# generated using pymatgen
data_SnH12C9IN3
_symmetry_space_group_name_H-M   'P 1'
_cell_length_a   8.48044757
_cell_length_b   11.06383726
_cell_length_c   13.74010374
_cell_angle_alpha   89.99987708
_cell_angle_beta   103.94349824
_cell_angle_gamma   89.99985817
_symmetry_Int_Tables_number   1
_chemical_formula_structural   SnH12C9IN3
_chemical_formula_sum   'Sn4 H48 C36 I4 N12'
_cell_volume   1251.19568931
_cell_formula_units_Z   4
loop_
 _symmetry_equiv_pos_site_id
 _symmetry_equiv_pos_as_xyz
  1  'x, y, z'
loop_
 _atom_site_type_symbol
 _atom_site_label
 _atom_site_symmetry_multiplicity
 _atom_site_fract_x
 _atom_site_fract_y
 _atom_site_fract_z
 _atom_site_occupancy
 _atom_site_hle17_bader_spin_density
 _atom_site_hle17_ddec_charge
 _atom_site_hle17_ddec_spin_density
 _atom_site_hle17_ddec_sum_bond_order
 _atom_site_hle17_magmom
 _atom_site_hse06_10hf_bader_spin_density
 _atom_site_hse06_10hf_ddec_charge
 _atom_site_hse06_10hf_ddec_spin_density
 _atom_site_hse06_10hf_ddec_sum_bond_order
 _atom_site_hse06_10hf_magmom
 _atom_site_hse06_bader_spin_density
 _atom_site_hse06_ddec_charge
 _atom_site_hse06_ddec_spin_density
 _atom_site_hse06_ddec_sum_bond_order
 _atom_site_hse06_magmom
 _atom_site_pbe_bader_spin_density
 _atom_site_pbe_cm5_charge
 _atom_site_pbe_ddec_charge
 _atom_site_pbe_ddec_spin_density
 _atom_site_pbe_ddec_sum_bond_order
 _atom_site_pbe_magmom
Sn  Sn0  1  0.41331796  0.25680718  0.18715479  1  0  1.08905  0  2.870671  0  0  0.952282  0  3.34894  0  0  0.983215  0  3.343953  0  0  0.424285  0.93126  0  3.352066  0
Sn  Sn1  1  0.08668152  0.75680655  0.31284576  1  0  1.089047  0  2.870721  0  0  0.952281  0  3.348986  0  0  0.983214  0  3.343997  0  0  0.424271  0.931251  0  3.352119  0
Sn  Sn2  1  0.58668190  0.74319168  0.81284589  1  0  1.08906  0  2.870593  0  0  0.952302  0  3.34884  0  0  0.98324  0  3.343856  0  0  0.424299  0.931289  0  3.351952  0
Sn  Sn3  1  0.91331590  0.24319322  0.68715383  1  0  1.089016  0  2.870688  0  0  0.952253  0  3.348945  0  0  0.98319  0  3.34396  0  0  0.42429  0.931229  0  3.352082  0
H  H4  1  0.36055786  0.15335466  0.35541403  1  0  0.107451  0  0.9965  0  0  0.121484  0  1.059516  0  0  0.123209  0  1.061497  0  0  0.082777  0.12  0  1.058703  0
H  H5  1  0.13944326  0.65335437  0.14458768  1  0  0.107454  0  0.99658  0  0  0.121491  0  1.059588  0  0  0.123213  0  1.061573  0  0  0.082749  0.120009  0  1.058775  0
H  H6  1  0.63944564  0.84664602  0.64458865  1  0  0.107438  0  0.996541  0  0  0.121474  0  1.059558  0  0  0.123198  0  1.061539  0  0  0.082757  0.119991  0  1.058744  0
H  H7  1  0.86055538  0.34664631  0.85541210  1  0  0.10742  0  0.996561  0  0  0.121473  0  1.05955  0  0  0.123196  0  1.061533  0  0  0.082746  0.119992  0  1.058736  0
H  H8  1  0.38228912  0.31285443  0.37399470  1  0  0.122131  0  0.999187  0  0  0.132122  0  1.066966  0  0  0.135327  0  1.066869  0  0  0.078527  0.129535  0  1.067597  0
H  H9  1  0.11771134  0.81285333  0.12600590  1  0  0.122098  0  0.999125  0  0  0.132078  0  1.066921  0  0  0.135282  0  1.066824  0  0  0.078506  0.129489  0  1.067564  0
H  H10  1  0.61771317  0.68714806  0.62600707  1  0  0.122128  0  0.999209  0  0  0.132127  0  1.066988  0  0  0.135333  0  1.066888  0  0  0.078537  0.129539  0  1.067624  0
H  H11  1  0.88228850  0.18714825  0.87399332  1  0  0.122128  0  0.999195  0  0  0.132127  0  1.066974  0  0  0.135333  0  1.066874  0  0  0.078532  0.129539  0  1.067612  0
H  H12  1  0.09433326  0.33899497  0.25962848  1  0  0.106407  0  0.943888  0  0  0.118233  0  1.012157  0  0  0.119999  0  1.010558  0  0  0.105077  0.116963  0  1.013408  0
H  H13  1  0.40566709  0.83899302  0.24037206  1  0  0.106423  0  0.943903  0  0  0.11827  0  1.01215  0  0  0.120036  0  1.010552  0  0  0.105099  0.116999  0  1.013404  0
H  H14  1  0.90566781  0.66100661  0.74037310  1  0  0.106424  0  0.94389  0  0  0.118249  0  1.012158  0  0  0.120014  0  1.010562  0  0  0.105094  0.11698  0  1.013408  0
H  H15  1  0.59433276  0.16100585  0.75962790  1  0  0.106419  0  0.943877  0  0  0.118258  0  1.012132  0  0  0.120026  0  1.010531  0  0  0.105103  0.116991  0  1.013385  0
H  H16  1  0.07808103  0.18101093  0.24878804  1  0  0.099712  0  0.943831  0  0  0.113747  0  1.00677  0  0  0.115267  0  1.0062  0  0  0.099499  0.112662  0  1.007234  0
H  H17  1  0.42191877  0.68101073  0.25121488  1  0  0.099825  0  0.94375  0  0  0.113867  0  1.006675  0  0  0.115386  0  1.006106  0  0  0.099563  0.112784  0  1.007135  0
H  H18  1  0.92192004  0.81898884  0.75121355  1  0  0.099829  0  0.943756  0  0  0.113871  0  1.006676  0  0  0.11539  0  1.006106  0  0  0.099561  0.112788  0  1.007139  0
H  H19  1  0.57807988  0.31898905  0.74878781  1  0  0.099822  0  0.943792  0  0  0.113863  0  1.006713  0  0  0.115383  0  1.006142  0  0  0.099566  0.112784  0  1.007171  0
H  H20  1  0.27850914  0.47478058  0.13861963  1  0  0.116142  0  0.976235  0  0  0.131824  0  1.035577  0  0  0.133891  0  1.036989  0  0  0.088997  0.129952  0  1.03541  0
H  H21  1  0.22148821  0.97478046  0.36137805  1  0  0.116129  0  0.976214  0  0  0.131805  0  1.035563  0  0  0.133872  0  1.036975  0  0  0.089004  0.129934  0  1.035402  0
H  H22  1  0.72149558  0.52522010  0.86138249  1  0  0.11609  0  0.976279  0  0  0.131766  0  1.035638  0  0  0.133834  0  1.03705  0  0  0.088957  0.129894  0  1.035475  0
H  H23  1  0.77850555  0.02522203  0.63861810  1  0  0.115981  0  0.976412  0  0  0.131691  0  1.035725  0  0  0.133758  0  1.037137  0  0  0.088921  0.129815  0  1.035566  0
H  H24  1  0.43457925  0.45062705  0.07392152  1  0  0.125168  0  0.967092  0  0  0.140353  0  1.02352  0  0  0.142696  0  1.024549  0  0  0.09397  0.138522  0  1.023157  0
H  H25  1  0.06542064  0.95062615  0.42607876  1  0  0.125213  0  0.966966  0  0  0.140385  0  1.023424  0  0  0.142728  0  1.024453  0  0  0.09397  0.138554  0  1.023062  0
H  H26  1  0.56542547  0.54937182  0.92608061  1  0  0.125191  0  0.967074  0  0  0.140359  0  1.023523  0  0  0.142701  0  1.024553  0  0  0.093972  0.138528  0  1.023161  0
H  H27  1  0.93457556  0.04937362  0.57392066  1  0  0.125116  0  0.967133  0  0  0.140299  0  1.023566  0  0  0.14264  0  1.024597  0  0  0.093949  0.138466  0  1.023201  0
H  H28  1  0.24618763  0.31015671  0.95290762  1  0  0.105904  0  0.949647  0  0  0.119317  0  1.01464  0  0  0.12084  0  1.013821  0  0  0.106033  0.118273  0  1.015139  0
H  H29  1  0.25381247  0.81015737  0.54709206  1  0  0.105918  0  0.94962  0  0  0.11936  0  1.014623  0  0  0.120889  0  1.013797  0  0  0.106043  0.11831  0  1.01512  0
H  H30  1  0.75381223  0.68984216  0.04709451  1  0  0.105924  0  0.949678  0  0  0.119342  0  1.014671  0  0  0.120869  0  1.013845  0  0  0.106054  0.118296  0  1.015167  0
H  H31  1  0.74618615  0.18984241  0.45290480  1  0  0.105947  0  0.949641  0  0  0.119322  0  1.014669  0  0  0.120849  0  1.013846  0  0  0.10606  0.118276  0  1.015167  0
H  H32  1  0.08929094  0.33971115  0.01393641  1  0  0.105376  0  0.943245  0  0  0.11834  0  1.008032  0  0  0.119447  0  1.008027  0  0  0.105423  0.117671  0  1.007834  0
H  H33  1  0.41070938  0.83970672  0.48606049  1  0  0.105304  0  0.94324  0  0  0.118311  0  1.008039  0  0  0.119419  0  1.008035  0  0  0.105405  0.117635  0  1.007843  0
H  H34  1  0.91071255  0.66029134  0.98606408  1  0  0.105346  0  0.943261  0  0  0.118344  0  1.008031  0  0  0.119453  0  1.008024  0  0  0.105429  0.117673  0  1.00783  0
H  H35  1  0.58928801  0.16029124  0.51393474  1  0  0.105347  0  0.943252  0  0  0.118335  0  1.008027  0  0  0.119445  0  1.008018  0  0  0.105432  0.117661  0  1.007827  0
H  H36  1  0.77756089  0.73844063  0.33110189  1  0  0.13409  0  0.970258  0  0  0.147081  0  1.029962  0  0  0.149849  0  1.030284  0  0  0.094523  0.145173  0  1.029671  0
H  H37  1  0.72243729  0.23843987  0.16889731  1  0  0.134136  0  0.970236  0  0  0.147134  0  1.029917  0  0  0.149903  0  1.030238  0  0  0.094557  0.145231  0  1.029623  0
H  H38  1  0.22243775  0.26155914  0.66889861  1  0  0.134151  0  0.970198  0  0  0.147143  0  1.029897  0  0  0.149912  0  1.030218  0  0  0.094552  0.145238  0  1.029603  0
H  H39  1  0.27755891  0.76155900  0.83110138  1  0  0.134104  0  0.970231  0  0  0.147092  0  1.029938  0  0  0.149861  0  1.030261  0  0  0.094536  0.145188  0  1.029647  0
H  H40  1  0.79776594  0.66673327  0.21873258  1  0  0.107931  0  0.993902  0  0  0.123344  0  1.053481  0  0  0.124871  0  1.055903  0  0  0.087284  0.122265  0  1.051826  0
H  H41  1  0.70223254  0.16673315  0.28126752  1  0  0.107984  0  0.993941  0  0  0.12338  0  1.053523  0  0  0.124907  0  1.055946  0  0  0.087311  0.122305  0  1.051863  0
H  H42  1  0.20222906  0.33326741  0.78126885  1  0  0.107935  0  0.993868  0  0  0.123337  0  1.053457  0  0  0.124863  0  1.055879  0  0  0.087268  0.122258  0  1.051804  0
H  H43  1  0.29776730  0.83326752  0.71873243  1  0  0.107938  0  0.993878  0  0  0.123333  0  1.053477  0  0  0.124859  0  1.0559  0  0  0.087276  0.122256  0  1.051817  0
H  H44  1  0.96154447  0.49600737  0.34091915  1  0  0.093551  0  0.968994  0  0  0.104887  0  1.039046  0  0  0.105899  0  1.039218  0  0  0.098792  0.10404  0  1.039133  0
H  H45  1  0.53845388  0.99600543  0.15908181  1  0  0.093567  0  0.968918  0  0  0.104874  0  1.03899  0  0  0.105893  0  1.039158  0  0  0.098791  0.104029  0  1.039081  0
H  H46  1  0.03845295  0.50399421  0.65908044  1  0  0.093543  0  0.968954  0  0  0.104873  0  1.039009  0  0  0.10588  0  1.03918  0  0  0.098791  0.104024  0  1.0391  0
H  H47  1  0.46154476  0.00399344  0.84091797  1  0  0.093572  0  0.968966  0  0  0.104891  0  1.03903  0  0  0.105902  0  1.039197  0  0  0.098794  0.104045  0  1.039123  0
H  H48  1  0.87429552  0.56077148  0.43272024  1  0  0.116658  0  0.937873  0  0  0.128506  0  1.003103  0  0  0.130134  0  1.002602  0  0  0.106482  0.127199  0  1.003704  0
H  H49  1  0.62570219  0.06077118  0.06727993  1  0  0.116638  0  0.937889  0  0  0.128487  0  1.003107  0  0  0.130117  0  1.002605  0  0  0.106496  0.127181  0  1.003711  0
H  H50  1  0.12570312  0.43922919  0.56727954  1  0  0.116657  0  0.937886  0  0  0.12849  0  1.003113  0  0  0.130118  0  1.002612  0  0  0.106488  0.127182  0  1.003713  0
H  H51  1  0.37429766  0.93922859  0.93272002  1  0  0.116673  0  0.937888  0  0  0.128513  0  1.003106  0  0  0.13014  0  1.002606  0  0  0.106495  0.127205  0  1.003712  0
C  C52  1  0.32255706  0.24204820  0.32221055  1  0  -0.468134  0  3.583312  0  0  -0.477299  0  3.838366  0  0  -0.488918  0  3.853184  0  0  -0.248663  -0.469003  0  3.828659  0
C  C53  1  0.17744369  0.74204504  0.17779022  1  0  -0.468092  0  3.583293  0  0  -0.477238  0  3.838342  0  0  -0.488853  0  3.853157  0  0  -0.248605  -0.468934  0  3.828629  0
C  C54  1  0.67744401  0.75795248  0.67779031  1  0  -0.468122  0  3.58328  0  0  -0.477304  0  3.838343  0  0  -0.488923  0  3.853158  0  0  -0.248673  -0.46901  0  3.828649  0
C  C55  1  0.82255616  0.25795293  0.82220973  1  0  -0.468087  0  3.583363  0  0  -0.477283  0  3.838435  0  0  -0.488901  0  3.853251  0  0  -0.248647  -0.468988  0  3.828742  0
C  C56  1  0.13709461  0.25412468  0.29916750  1  0  -0.126805  0  3.839961  0  0  -0.159991  0  4.075682  0  0  -0.159993  0  4.086835  0  0  -0.144376  -0.160055  0  4.068371  0
C  C57  1  0.36290731  0.75412382  0.20083342  1  0  -0.126999  0  3.840124  0  0  -0.160223  0  4.075903  0  0  -0.160225  0  4.087052  0  0  -0.1445  -0.160279  0  4.068572  0
C  C58  1  0.86290888  0.74587599  0.70083226  1  0  -0.126938  0  3.840082  0  0  -0.160136  0  4.075828  0  0  -0.160139  0  4.086977  0  0  -0.144447  -0.16019  0  4.068482  0
C  C59  1  0.63709376  0.24587595  0.79916744  1  0  -0.126933  0  3.840084  0  0  -0.160143  0  4.075844  0  0  -0.160144  0  4.086993  0  0  -0.144483  -0.160203  0  4.068506  0
C  C60  1  0.07548654  0.25032486  0.38911959  1  0  0.342547  0  3.659957  0  0  0.333939  0  3.937325  0  0  0.345463  0  3.953563  0  0  0.192125  0.325854  0  3.927181  0
C  C61  1  0.42451299  0.75032411  0.11088535  1  0  0.342538  0  3.659713  0  0  0.333956  0  3.937075  0  0  0.345483  0  3.95331  0  0  0.192099  0.325869  0  3.926936  0
C  C62  1  0.92451333  0.74967582  0.61088473  1  0  0.342444  0  3.659568  0  0  0.333868  0  3.93691  0  0  0.345397  0  3.953143  0  0  0.192041  0.325783  0  3.926778  0
C  C63  1  0.57548809  0.24967566  0.88911769  1  0  0.342431  0  3.659718  0  0  0.333836  0  3.937089  0  0  0.345361  0  3.953327  0  0  0.192068  0.325756  0  3.926953  0
C  C64  1  0.32612401  0.41113450  0.09143170  1  0  -0.437403  0  3.572731  0  0  -0.448585  0  3.831719  0  0  -0.459224  0  3.846118  0  0  -0.233301  -0.440841  0  3.822308  0
C  C65  1  0.17387481  0.91113254  0.40856558  1  0  -0.437441  0  3.572675  0  0  -0.448574  0  3.831737  0  0  -0.459215  0  3.846135  0  0  -0.233303  -0.440835  0  3.822306  0
C  C66  1  0.67387827  0.58886617  0.90856861  1  0  -0.437307  0  3.572734  0  0  -0.44847  0  3.831739  0  0  -0.459111  0  3.846142  0  0  -0.233233  -0.440743  0  3.82234  0
C  C67  1  0.82612017  0.08886723  0.59143147  1  0  -0.437139  0  3.572916  0  0  -0.448333  0  3.831837  0  0  -0.458973  0  3.84624  0  0  -0.233205  -0.440594  0  3.822416  0
C  C68  1  0.19815795  0.37900171  0.99605354  1  0  -0.141153  0  3.85509  0  0  -0.17756  0  4.093647  0  0  -0.177805  0  4.105532  0  0  -0.14581  -0.17738  0  4.085413  0
C  C69  1  0.30184306  0.87899787  0.50394398  1  0  -0.140902  0  3.855227  0  0  -0.177463  0  4.093931  0  0  -0.177712  0  4.105817  0  0  -0.145663  -0.177253  0  4.085661  0
C  C70  1  0.80184433  0.62100077  0.00394750  1  0  -0.141131  0  3.855544  0  0  -0.177573  0  4.094101  0  0  -0.177822  0  4.10599  0  0  -0.145804  -0.177375  0  4.085839  0
C  C71  1  0.69815555  0.12100100  0.49605143  1  0  -0.141142  0  3.855325  0  0  -0.177518  0  4.093832  0  0  -0.177765  0  4.105716  0  0  -0.145792  -0.177322  0  4.085575  0
C  C72  1  0.14709531  0.48306972  0.93140260  1  0  0.336918  0  3.660289  0  0  0.32973  0  3.939296  0  0  0.340669  0  3.955704  0  0  0.191775  0.322244  0  3.928432  0
C  C73  1  0.35290282  0.98306199  0.56858922  1  0  0.336871  0  3.660046  0  0  0.329731  0  3.939093  0  0  0.340679  0  3.955499  0  0  0.191685  0.322235  0  3.928222  0
C  C74  1  0.85290331  0.51693819  0.06859354  1  0  0.336854  0  3.660018  0  0  0.329663  0  3.939053  0  0  0.340605  0  3.955465  0  0  0.191702  0.32217  0  3.928186  0
C  C75  1  0.64709335  0.01693416  0.43140437  1  0  0.336853  0  3.660037  0  0  0.329655  0  3.939062  0  0  0.340594  0  3.955475  0  0  0.191691  0.322163  0  3.928198  0
C  C76  1  0.84991183  0.67379215  0.29974923  1  0  -0.439764  0  3.559149  0  0  -0.450156  0  3.812541  0  0  -0.461173  0  3.827821  0  0  -0.234347  -0.442483  0  3.801807  0
C  C77  1  0.65008663  0.17378963  0.20025158  1  0  -0.439846  0  3.559192  0  0  -0.450236  0  3.812572  0  0  -0.461253  0  3.827858  0  0  -0.234404  -0.442569  0  3.801836  0
C  C78  1  0.15008316  0.32620943  0.70025001  1  0  -0.439818  0  3.559188  0  0  -0.450213  0  3.812561  0  0  -0.461231  0  3.827841  0  0  -0.234349  -0.442545  0  3.801829  0
C  C79  1  0.34991322  0.82620924  0.79974910  1  0  -0.439747  0  3.559127  0  0  -0.450138  0  3.812516  0  0  -0.461158  0  3.827798  0  0  -0.234344  -0.442471  0  3.80178  0
C  C80  1  0.85777219  0.55037196  0.35123161  1  0  -0.139592  0  3.840981  0  0  -0.170311  0  4.073328  0  0  -0.171526  0  4.084864  0  0  -0.141575  -0.169303  0  4.065518  0
C  C81  1  0.64222800  0.05037050  0.14876967  1  0  -0.139608  0  3.840972  0  0  -0.17027  0  4.073249  0  0  -0.171495  0  4.084793  0  0  -0.141566  -0.169264  0  4.065446  0
C  C82  1  0.14222645  0.44962691  0.64876817  1  0  -0.139605  0  3.841022  0  0  -0.170259  0  4.073272  0  0  -0.171466  0  4.084811  0  0  -0.141582  -0.169251  0  4.065465  0
C  C83  1  0.35777186  0.94962837  0.85123174  1  0  -0.139676  0  3.84106  0  0  -0.170345  0  4.073338  0  0  -0.171551  0  4.084862  0  0  -0.141598  -0.169339  0  4.065535  0
C  C84  1  0.71333400  0.47878577  0.31316611  1  0  0.3975  0  3.629445  0  0  0.374784  0  3.909269  0  0  0.389841  0  3.922995  0  0  0.22318  0.364528  0  3.899949  0
C  C85  1  0.78666440  0.97878328  0.18683271  1  0  0.397514  0  3.629452  0  0  0.374781  0  3.909259  0  0  0.389839  0  3.922989  0  0  0.223173  0.364529  0  3.899938  0
C  C86  1  0.28666464  0.52121490  0.68683439  1  0  0.39748  0  3.629551  0  0  0.37474  0  3.909361  0  0  0.389797  0  3.923086  0  0  0.223176  0.364484  0  3.900042  0
C  C87  1  0.21333423  0.02121468  0.81316780  1  0  0.397492  0  3.629403  0  0  0.374761  0  3.909212  0  0  0.389817  0  3.922935  0  0  0.22318  0.364507  0  3.89989  0
I  I88  1  0.20226632  0.07260471  0.08346227  1  0  -0.406531  0  1.040057  0  0  -0.362653  0  1.33767  0  0  -0.377274  0  1.323126  0  0  -0.111128  -0.351464  0  1.347802  0
I  I89  1  0.29773270  0.57260429  0.41653854  1  0  -0.406518  0  1.040071  0  0  -0.362641  0  1.337691  0  0  -0.377262  0  1.323147  0  0  -0.111122  -0.351457  0  1.347818  0
I  I90  1  0.79773231  0.92739507  0.91653823  1  0  -0.406524  0  1.040043  0  0  -0.362655  0  1.337671  0  0  -0.377278  0  1.323128  0  0  -0.11113  -0.351473  0  1.347799  0
I  I91  1  0.70226472  0.42739638  0.58346106  1  0  -0.406517  0  1.040057  0  0  -0.362654  0  1.337687  0  0  -0.377276  0  1.323141  0  0  -0.111129  -0.351471  0  1.347815  0
N  N92  1  0.02687545  0.24765665  0.46163420  1  0  -0.449796  0  2.630509  0  0  -0.422115  0  2.862177  0  0  -0.434924  0  2.87549  0  0  -0.311558  -0.413379  0  2.853693  0
N  N93  1  0.47312526  0.74765330  0.03836291  1  0  -0.44975  0  2.630046  0  0  -0.422089  0  2.861716  0  0  -0.434901  0  2.875029  0  0  -0.31149  -0.413353  0  2.853236  0
N  N94  1  0.97312681  0.75234493  0.53836174  1  0  -0.449701  0  2.629854  0  0  -0.422048  0  2.861538  0  0  -0.434861  0  2.874849  0  0  -0.311457  -0.413314  0  2.85306  0
N  N95  1  0.52687458  0.25234376  0.96163558  1  0  -0.449673  0  2.630148  0  0  -0.422005  0  2.861829  0  0  -0.434815  0  2.875143  0  0  -0.311473  -0.41327  0  2.853349  0
N  N96  1  0.10530873  0.56637185  0.87945516  1  0  -0.441656  0  2.586546  0  0  -0.412675  0  2.80213  0  0  -0.424654  0  2.814942  0  0  -0.315096  -0.40477  0  2.793683  0
N  N97  1  0.39469721  0.06637089  0.62054143  1  0  -0.441783  0  2.585973  0  0  -0.412813  0  2.801575  0  0  -0.424807  0  2.814398  0  0  -0.31513  -0.404906  0  2.793133  0
N  N98  1  0.89469842  0.43362793  0.12054805  1  0  -0.441665  0  2.585882  0  0  -0.412697  0  2.801496  0  0  -0.424671  0  2.814298  0  0  -0.315069  -0.404791  0  2.793053  0
N  N99  1  0.60530382  0.93362617  0.37945360  1  0  -0.441653  0  2.586091  0  0  -0.412679  0  2.801709  0  0  -0.424652  0  2.814514  0  0  -0.315049  -0.404774  0  2.79327  0
N  N100  1  0.59811579  0.42141975  0.27959109  1  0  -0.455706  0  2.784067  0  0  -0.408627  0  3.041873  0  0  -0.42513  0  3.05435  0  0  -0.292924  -0.397462  0  3.033312  0
N  N101  1  0.90188407  0.92141786  0.22040877  1  0  -0.455727  0  2.784069  0  0  -0.408641  0  3.041867  0  0  -0.425144  0  3.054342  0  0  -0.292922  -0.39748  0  3.033307  0
N  N102  1  0.40188284  0.57857911  0.72040869  1  0  -0.455687  0  2.78417  0  0  -0.408606  0  3.041975  0  0  -0.425109  0  3.054453  0  0  -0.292923  -0.397445  0  3.033418  0
N  N103  1  0.09811456  0.07858101  0.77959100  1  0  -0.455681  0  2.784011  0  0  -0.408596  0  3.041801  0  0  -0.425099  0  3.054278  0  0  -0.292918  -0.397434  0  3.03324  0
