# generated using pymatgen
data_ZnH8C5S(NO4)2
_symmetry_space_group_name_H-M   'P 1'
_cell_length_a   7.81049151
_cell_length_b   11.16222778
_cell_length_c   11.16627715
_cell_angle_alpha   94.02356613
_cell_angle_beta   89.99966773
_cell_angle_gamma   89.99977365
_symmetry_Int_Tables_number   1
_chemical_formula_structural   ZnH8C5S(NO4)2
_chemical_formula_sum   'Zn4 H32 C20 S4 N8 O32'
_cell_volume   971.10437501
_cell_formula_units_Z   4
loop_
 _symmetry_equiv_pos_site_id
 _symmetry_equiv_pos_as_xyz
  1  'x, y, z'
loop_
 _atom_site_type_symbol
 _atom_site_label
 _atom_site_symmetry_multiplicity
 _atom_site_fract_x
 _atom_site_fract_y
 _atom_site_fract_z
 _atom_site_occupancy
 _atom_site_hle17_bader_spin_density
 _atom_site_hle17_ddec_charge
 _atom_site_hle17_ddec_spin_density
 _atom_site_hle17_ddec_sum_bond_order
 _atom_site_hle17_magmom
 _atom_site_hse06_10hf_bader_spin_density
 _atom_site_hse06_10hf_ddec_charge
 _atom_site_hse06_10hf_ddec_spin_density
 _atom_site_hse06_10hf_ddec_sum_bond_order
 _atom_site_hse06_10hf_magmom
 _atom_site_hse06_bader_spin_density
 _atom_site_hse06_ddec_charge
 _atom_site_hse06_ddec_spin_density
 _atom_site_hse06_ddec_sum_bond_order
 _atom_site_hse06_magmom
 _atom_site_pbe_bader_spin_density
 _atom_site_pbe_cm5_charge
 _atom_site_pbe_ddec_charge
 _atom_site_pbe_ddec_spin_density
 _atom_site_pbe_ddec_sum_bond_order
 _atom_site_pbe_magmom
Zn  Zn0  1  0.99999883  0.50000054  0.50000080  1  0  1.118989  0  1.732041  0  0  0.95074  0  2.168141  0  0  0.990744  0  2.118397  0  0  0.699916  0.922765  0  2.202338  0
Zn  Zn1  1  0.49999913  0.49999975  0.00000175  1  0  1.119009  0  1.732011  0  0  0.950781  0  2.168084  0  0  0.990788  0  2.11834  0  0  0.699943  0.922826  0  2.202285  0
Zn  Zn2  1  0.49999329  0.00000972  0.50000691  1  0  1.044041  0  1.819485  0  0  0.866129  0  2.264052  0  0  0.910802  0  2.212588  0  0  0.728308  0.835013  0  2.299518  0
Zn  Zn3  1  0.00000256  0.00000447  0.00000393  1  0  1.044138  0  1.819627  0  0  0.866235  0  2.264185  0  0  0.910902  0  2.212723  0  0  0.728366  0.835122  0  2.299652  0
H  H4  1  0.97987896  0.93694581  0.69250353  1  0  0.417591  0  0.869184  0  0  0.382742  0  0.952254  0  0  0.395923  0  0.939017  0  0  0.303646  0.373536  0  0.961362  0
H  H5  1  0.47987783  0.06305769  0.80749481  1  0  0.417462  0  0.869427  0  0  0.382651  0  0.952443  0  0  0.395833  0  0.939213  0  0  0.303632  0.373445  0  0.961549  0
H  H6  1  0.02011760  0.06305775  0.30749395  1  0  0.417564  0  0.869134  0  0  0.382699  0  0.952238  0  0  0.39588  0  0.939001  0  0  0.303616  0.373492  0  0.961344  0
H  H7  1  0.52012258  0.93693596  0.19250549  1  0  0.417513  0  0.86934  0  0  0.382673  0  0.952393  0  0  0.395854  0  0.939161  0  0  0.303649  0.373466  0  0.9615  0
H  H8  1  0.01798281  0.24928117  0.59880711  1  0  0.117314  0  0.943345  0  0  0.118265  0  1.013754  0  0  0.121757  0  1.010903  0  0  0.131468  0.115612  0  1.016011  0
H  H9  1  0.51798705  0.75071391  0.90118611  1  0  0.117262  0  0.943401  0  0  0.118251  0  1.013759  0  0  0.121743  0  1.010912  0  0  0.131464  0.115596  0  1.016023  0
H  H10  1  0.98202016  0.75071969  0.40119016  1  0  0.117294  0  0.943325  0  0  0.118228  0  1.013764  0  0  0.121718  0  1.010914  0  0  0.131431  0.115574  0  1.016023  0
H  H11  1  0.48201720  0.24927974  0.09881508  1  0  0.117289  0  0.943399  0  0  0.118221  0  1.013837  0  0  0.121711  0  1.010989  0  0  0.131436  0.115569  0  1.016094  0
H  H12  1  0.69551693  0.40891897  0.35844110  1  0  0.099973  0  0.936888  0  0  0.106793  0  0.998564  0  0  0.109653  0  0.995683  0  0  0.130933  0.104533  0  1.000988  0
H  H13  1  0.19551552  0.59109215  0.14156079  1  0  0.099961  0  0.936942  0  0  0.106817  0  0.998574  0  0  0.109674  0  0.995696  0  0  0.130946  0.104558  0  1.000996  0
H  H14  1  0.30447836  0.59108453  0.64156354  1  0  0.099923  0  0.93691  0  0  0.106776  0  0.998572  0  0  0.109633  0  0.995695  0  0  0.130909  0.104516  0  1.000994  0
H  H15  1  0.80447977  0.40891410  0.85843690  1  0  0.100016  0  0.936851  0  0  0.106852  0  0.998501  0  0  0.109709  0  0.995625  0  0  0.130956  0.104592  0  1.000923  0
H  H16  1  0.51128329  0.22048426  0.34087492  1  0  0.123288  0  0.94006  0  0  0.125741  0  1.005186  0  0  0.12926  0  1.00288  0  0  0.133039  0.123144  0  1.006997  0
H  H17  1  0.01128579  0.77952832  0.15912781  1  0  0.123283  0  0.940082  0  0  0.125777  0  1.005172  0  0  0.129299  0  1.00286  0  0  0.132988  0.123179  0  1.006982  0
H  H18  1  0.48871840  0.77951926  0.65912793  1  0  0.123221  0  0.940062  0  0  0.125685  0  1.005176  0  0  0.129206  0  1.002865  0  0  0.132999  0.123088  0  1.006989  0
H  H19  1  0.98871462  0.22047522  0.84087057  1  0  0.123282  0  0.940011  0  0  0.125753  0  1.00512  0  0  0.129276  0  1.002809  0  0  0.132989  0.123155  0  1.006928  0
H  H20  1  0.98135588  0.45765777  0.24371831  1  0  0.433135  0  0.862931  0  0  0.40127  0  0.927485  0  0  0.412364  0  0.911219  0  0  0.289943  0.393449  0  0.938929  0
H  H21  1  0.48135121  0.54234437  0.25628535  1  0  0.433162  0  0.862883  0  0  0.401292  0  0.927447  0  0  0.412385  0  0.911183  0  0  0.289917  0.393474  0  0.938886  0
H  H22  1  0.01864708  0.54234576  0.75628275  1  0  0.433136  0  0.862924  0  0  0.401293  0  0.927439  0  0  0.412386  0  0.911173  0  0  0.289937  0.393472  0  0.938882  0
H  H23  1  0.51865048  0.45765648  0.74371461  1  0  0.433149  0  0.862891  0  0  0.401273  0  0.927467  0  0  0.412367  0  0.911202  0  0  0.28992  0.393452  0  0.93891  0
H  H24  1  0.88797456  0.58456127  0.28127850  1  0  0.424927  0  0.874067  0  0  0.393899  0  0.937929  0  0  0.404365  0  0.922556  0  0  0.293058  0.386477  0  0.948819  0
H  H25  1  0.38796068  0.41544476  0.21872403  1  0  0.424917  0  0.87407  0  0  0.393896  0  0.93792  0  0  0.404362  0  0.922547  0  0  0.293041  0.386474  0  0.948811  0
H  H26  1  0.11203225  0.41544406  0.71872270  1  0  0.424943  0  0.874044  0  0  0.393899  0  0.937929  0  0  0.404371  0  0.922548  0  0  0.293047  0.386477  0  0.948821  0
H  H27  1  0.61203589  0.58455697  0.78127779  1  0  0.424898  0  0.874099  0  0  0.393865  0  0.937968  0  0  0.404333  0  0.922593  0  0  0.293041  0.386442  0  0.94886  0
H  H28  1  0.67755925  0.61620869  0.47141290  1  0  0.425253  0  0.876249  0  0  0.392653  0  0.94292  0  0  0.403253  0  0.927467  0  0  0.288903  0.385173  0  0.953804  0
H  H29  1  0.17755484  0.38379527  0.02859209  1  0  0.42521  0  0.876283  0  0  0.39264  0  0.942934  0  0  0.403237  0  0.927485  0  0  0.288906  0.38516  0  0.953819  0
H  H30  1  0.32244372  0.38379215  0.52858706  1  0  0.425221  0  0.876285  0  0  0.392616  0  0.942961  0  0  0.403216  0  0.927509  0  0  0.288911  0.385134  0  0.953848  0
H  H31  1  0.82244300  0.61620465  0.97141049  1  0  0.425267  0  0.876212  0  0  0.392677  0  0.942867  0  0  0.403275  0  0.927417  0  0  0.288922  0.385196  0  0.953753  0
H  H32  1  0.75170245  0.64649632  0.60502413  1  0  0.43153  0  0.868538  0  0  0.398881  0  0.933953  0  0  0.409683  0  0.918225  0  0  0.291098  0.391274  0  0.945011  0
H  H33  1  0.25170022  0.35350874  0.89498060  1  0  0.431533  0  0.868561  0  0  0.398954  0  0.933876  0  0  0.40976  0  0.918142  0  0  0.291111  0.391342  0  0.944943  0
H  H34  1  0.24829667  0.35350002  0.39497728  1  0  0.431519  0  0.868546  0  0  0.398858  0  0.933986  0  0  0.409659  0  0.91826  0  0  0.291076  0.391249  0  0.945048  0
H  H35  1  0.74830147  0.64649028  0.10502369  1  0  0.431558  0  0.868512  0  0  0.398935  0  0.933886  0  0  0.409735  0  0.918162  0  0  0.291107  0.391326  0  0.944949  0
C  C36  1  0.81940282  0.03801277  0.61187641  1  0  0.645561  0  3.803509  0  0  0.584684  0  4.104658  0  0  0.61922  0  4.09643  0  0  0.246444  0.561356  0  4.109783  0
C  C37  1  0.31940618  0.96199494  0.88810407  1  0  0.645639  0  3.803488  0  0  0.584802  0  4.10459  0  0  0.61936  0  4.096333  0  0  0.246441  0.561455  0  4.109726  0
C  C38  1  0.18059886  0.96199081  0.38811749  1  0  0.645546  0  3.803749  0  0  0.584719  0  4.104797  0  0  0.619256  0  4.096559  0  0  0.24643  0.561386  0  4.109921  0
C  C39  1  0.68059807  0.03800684  0.11188969  1  0  0.645529  0  3.803788  0  0  0.584689  0  4.104911  0  0  0.619231  0  4.096671  0  0  0.246391  0.561352  0  4.110041  0
C  C40  1  0.79850531  0.14344199  0.53687769  1  0  0.059968  0  3.699298  0  0  0.060933  0  3.944702  0  0  0.057943  0  3.962854  0  0  0.129853  0.062285  0  3.933223  0
C  C41  1  0.29850734  0.85656032  0.96311500  1  0  0.059842  0  3.69921  0  0  0.060859  0  3.944591  0  0  0.057876  0  3.962753  0  0  0.129993  0.062228  0  3.933086  0
C  C42  1  0.20149125  0.85655801  0.46311504  1  0  0.059953  0  3.699243  0  0  0.060965  0  3.944619  0  0  0.057988  0  3.962784  0  0  0.129998  0.062322  0  3.933131  0
C  C43  1  0.70149690  0.14343873  0.03688571  1  0  0.060028  0  3.699404  0  0  0.060965  0  3.944742  0  0  0.057969  0  3.962894  0  0  0.129964  0.062321  0  3.933259  0
C  C44  1  0.90318471  0.24441602  0.54318192  1  0  0.12817  0  3.577011  0  0  0.086613  0  3.82791  0  0  0.092279  0  3.84267  0  0  0.082869  0.082678  0  3.818604  0
C  C45  1  0.40318352  0.75558056  0.95681081  1  0  0.12817  0  3.57711  0  0  0.08667  0  3.827855  0  0  0.092347  0  3.842591  0  0  0.082816  0.082733  0  3.818549  0
C  C46  1  0.09681313  0.75558663  0.45681639  1  0  0.128194  0  3.577219  0  0  0.086648  0  3.828062  0  0  0.09232  0  3.842814  0  0  0.082773  0.082711  0  3.818758  0
C  C47  1  0.59681432  0.24440770  0.04318907  1  0  0.128086  0  3.577239  0  0  0.086516  0  3.828141  0  0  0.092183  0  3.842903  0  0  0.082727  0.082585  0  3.818834  0
C  C48  1  0.72521032  0.33173914  0.40906479  1  0  0.142665  0  3.592345  0  0  0.107386  0  3.846458  0  0  0.113734  0  3.858783  0  0  0.082969  0.103017  0  3.838608  0
C  C49  1  0.22521019  0.66826649  0.09093745  1  0  0.142754  0  3.592479  0  0  0.10742  0  3.846679  0  0  0.113768  0  3.859002  0  0  0.08296  0.103053  0  3.838826  0
C  C50  1  0.27478496  0.66826528  0.59093813  1  0  0.142732  0  3.5921  0  0  0.107359  0  3.846284  0  0  0.113707  0  3.858607  0  0  0.08294  0.102992  0  3.838431  0
C  C51  1  0.77478254  0.33172895  0.90906388  1  0  0.142571  0  3.592286  0  0  0.107253  0  3.846413  0  0  0.113596  0  3.858746  0  0  0.082922  0.102889  0  3.838557  0
C  C52  1  0.62388669  0.22870640  0.39882954  1  0  0.126592  0  3.574094  0  0  0.092183  0  3.831511  0  0  0.095484  0  3.84487  0  0  0.080309  0.089597  0  3.823019  0
C  C53  1  0.12388716  0.77128968  0.10116967  1  0  0.126515  0  3.574167  0  0  0.092132  0  3.831637  0  0  0.095445  0  3.845002  0  0  0.080277  0.089553  0  3.823137  0
C  C54  1  0.37611244  0.77129088  0.60116477  1  0  0.126649  0  3.574199  0  0  0.092339  0  3.831624  0  0  0.095658  0  3.844995  0  0  0.080328  0.08975  0  3.823133  0
C  C55  1  0.87611324  0.22871024  0.89883380  1  0  0.1266  0  3.574314  0  0  0.092202  0  3.831608  0  0  0.095496  0  3.844968  0  0  0.080303  0.089624  0  3.823104  0
S  S56  1  0.38322451  0.23613072  0.69175285  1  0  1.577046  0  5.797083  0  0  1.448855  0  6.345216  0  0  1.504645  0  6.309594  0  0  0.565319  1.410105  0  6.368526  0
S  S57  1  0.88322307  0.76387575  0.80824879  1  0  1.576862  0  5.796992  0  0  1.44867  0  6.345121  0  0  1.504443  0  6.309514  0  0  0.565228  1.409928  0  6.368428  0
S  S58  1  0.61678614  0.76387280  0.30825000  1  0  1.576811  0  5.796734  0  0  1.448654  0  6.344863  0  0  1.504428  0  6.309246  0  0  0.565267  1.409915  0  6.368173  0
S  S59  1  0.11677478  0.23612330  0.19175103  1  0  1.577151  0  5.796594  0  0  1.448999  0  6.344688  0  0  1.504771  0  6.309071  0  0  0.565441  1.410248  0  6.367999  0
N  N60  1  0.66054505  0.13726899  0.46487022  1  0  -0.266696  0  3.305969  0  0  -0.198777  0  3.568339  0  0  -0.210568  0  3.582159  0  0  -0.302713  -0.1907  0  3.55938  0
N  N61  1  0.16054813  0.86272880  0.03512629  1  0  -0.266595  0  3.305848  0  0  -0.198861  0  3.568413  0  0  -0.210693  0  3.582293  0  0  -0.302709  -0.190786  0  3.559448  0
N  N62  1  0.33944511  0.86273188  0.53512615  1  0  -0.266762  0  3.305924  0  0  -0.199045  0  3.568481  0  0  -0.210893  0  3.58238  0  0  -0.302749  -0.190966  0  3.559522  0
N  N63  1  0.83945227  0.13726216  0.96487380  1  0  -0.266831  0  3.306017  0  0  -0.198851  0  3.568306  0  0  -0.210625  0  3.58211  0  0  -0.302746  -0.190774  0  3.559345  0
N  N64  1  0.86177630  0.33907947  0.48131279  1  0  -0.265705  0  3.268524  0  0  -0.190201  0  3.533178  0  0  -0.205095  0  3.547229  0  0  -0.297807  -0.180255  0  3.523894  0
N  N65  1  0.36177683  0.66091858  0.01868565  1  0  -0.265692  0  3.2684  0  0  -0.190221  0  3.533091  0  0  -0.205115  0  3.547143  0  0  -0.297789  -0.180279  0  3.523817  0
N  N66  1  0.13822026  0.66092231  0.51868187  1  0  -0.265691  0  3.268286  0  0  -0.190131  0  3.532919  0  0  -0.205025  0  3.546967  0  0  -0.297676  -0.180186  0  3.523637  0
N  N67  1  0.63822230  0.33907772  0.98132112  1  0  -0.265563  0  3.268128  0  0  -0.190012  0  3.532749  0  0  -0.204903  0  3.546797  0  0  -0.297642  -0.180071  0  3.523475  0
O  O68  1  0.69344006  0.97275479  0.62810696  1  0  -0.526116  0  2.06222  0  0  -0.464215  0  2.311938  0  0  -0.488728  0  2.300631  0  0  -0.265965  -0.44766  0  2.319502  0
O  O69  1  0.19342577  0.02724780  0.87189153  1  0  -0.526229  0  2.062526  0  0  -0.464296  0  2.312177  0  0  -0.488818  0  2.300864  0  0  -0.265968  -0.447724  0  2.319741  0
O  O70  1  0.30656035  0.02724875  0.37189321  1  0  -0.526122  0  2.062423  0  0  -0.464198  0  2.312  0  0  -0.488704  0  2.30069  0  0  -0.265979  -0.447639  0  2.319564  0
O  O71  1  0.80656823  0.97275125  0.12810739  1  0  -0.526179  0  2.062575  0  0  -0.464311  0  2.312263  0  0  -0.488826  0  2.300958  0  0  -0.265974  -0.447743  0  2.319823  0
O  O72  1  0.97161205  0.02283707  0.65522603  1  0  -0.50272  0  2.105782  0  0  -0.449239  0  2.329754  0  0  -0.473681  0  2.319058  0  0  -0.295175  -0.432312  0  2.336538  0
O  O73  1  0.47163490  0.97716290  0.84476669  1  0  -0.502611  0  2.105825  0  0  -0.449202  0  2.329766  0  0  -0.473665  0  2.319088  0  0  -0.295194  -0.432271  0  2.336554  0
O  O74  1  0.02837939  0.97715660  0.34477158  1  0  -0.502753  0  2.105823  0  0  -0.449203  0  2.329608  0  0  -0.473672  0  2.318976  0  0  -0.295156  -0.432275  0  2.33639  0
O  O75  1  0.52837831  0.02283349  0.15522755  1  0  -0.502694  0  2.105975  0  0  -0.449162  0  2.329776  0  0  -0.473637  0  2.319146  0  0  -0.295166  -0.432231  0  2.336561  0
O  O76  1  0.97102829  0.52458787  0.30746939  1  0  -0.848897  0  1.872869  0  0  -0.789181  0  2.073284  0  0  -0.809541  0  2.039518  0  0  -0.581929  -0.774679  0  2.096713  0
O  O77  1  0.47101429  0.47541611  0.19253177  1  0  -0.848896  0  1.872813  0  0  -0.789193  0  2.07324  0  0  -0.809559  0  2.03949  0  0  -0.581878  -0.77469  0  2.096666  0
O  O78  1  0.02897852  0.47541656  0.69253174  1  0  -0.848907  0  1.872849  0  0  -0.789204  0  2.073278  0  0  -0.809562  0  2.039503  0  0  -0.581901  -0.774702  0  2.096705  0
O  O79  1  0.52898483  0.52458292  0.80746984  1  0  -0.848856  0  1.87279  0  0  -0.78915  0  2.073236  0  0  -0.809513  0  2.039478  0  0  -0.581892  -0.774647  0  2.096663  0
O  O80  1  0.33565711  0.14284746  0.59674137  1  0  -0.729457  0  1.991955  0  0  -0.676065  0  2.276284  0  0  -0.699075  0  2.257407  0  0  -0.359095  -0.659377  0  2.288507  0
O  O81  1  0.83565305  0.85715375  0.90326184  1  0  -0.729353  0  1.991867  0  0  -0.675951  0  2.276148  0  0  -0.698965  0  2.257283  0  0  -0.359035  -0.659263  0  2.288359  0
O  O82  1  0.66435354  0.85715603  0.40326506  1  0  -0.729348  0  1.991675  0  0  -0.676014  0  2.276064  0  0  -0.699028  0  2.257198  0  0  -0.359096  -0.659307  0  2.288231  0
O  O83  1  0.16433967  0.14283899  0.09673929  1  0  -0.729416  0  1.991767  0  0  -0.676083  0  2.276128  0  0  -0.699091  0  2.257256  0  0  -0.359097  -0.659418  0  2.288403  0
O  O84  1  0.50445737  0.18466952  0.77823147  1  0  -0.730676  0  2.01302  0  0  -0.677128  0  2.269322  0  0  -0.700827  0  2.257421  0  0  -0.360955  -0.660293  0  2.277034  0
O  O85  1  0.00444889  0.81533725  0.72176719  1  0  -0.730781  0  2.012994  0  0  -0.677212  0  2.269314  0  0  -0.700912  0  2.257418  0  0  -0.360973  -0.660377  0  2.277024  0
O  O86  1  0.49554944  0.81533403  0.22176691  1  0  -0.730638  0  2.012985  0  0  -0.677119  0  2.269349  0  0  -0.700818  0  2.257457  0  0  -0.360952  -0.660284  0  2.277056  0
O  O87  1  0.99554255  0.18466179  0.27823442  1  0  -0.730789  0  2.01293  0  0  -0.677194  0  2.269186  0  0  -0.700896  0  2.257291  0  0  -0.361036  -0.660357  0  2.276897  0
O  O88  1  0.46911532  0.34044199  0.63850985  1  0  -0.754104  0  1.936673  0  0  -0.687984  0  2.169136  0  0  -0.712045  0  2.154181  0  0  -0.359721  -0.67087  0  2.179023  0
O  O89  1  0.96911786  0.65956425  0.86148695  1  0  -0.754042  0  1.936513  0  0  -0.687956  0  2.168981  0  0  -0.712018  0  2.154031  0  0  -0.359762  -0.670849  0  2.178872  0
O  O90  1  0.53089020  0.65955348  0.36148790  1  0  -0.754035  0  1.936572  0  0  -0.68791  0  2.169015  0  0  -0.711973  0  2.154067  0  0  -0.359709  -0.670818  0  2.178912  0
O  O91  1  0.03088255  0.34043750  0.13851218  1  0  -0.754093  0  1.936461  0  0  -0.687991  0  2.168925  0  0  -0.712056  0  2.153974  0  0  -0.359756  -0.670884  0  2.17882  0
O  O92  1  0.22502535  0.28255907  0.75569555  1  0  -0.756195  0  1.986297  0  0  -0.684309  0  2.222388  0  0  -0.707936  0  2.204602  0  0  -0.352172  -0.667404  0  2.234192  0
O  O93  1  0.72502600  0.71744428  0.74430914  1  0  -0.756059  0  1.986197  0  0  -0.684207  0  2.222382  0  0  -0.707791  0  2.204554  0  0  -0.35213  -0.667302  0  2.234179  0
O  O94  1  0.77498529  0.71744002  0.24429889  1  0  -0.756099  0  1.986154  0  0  -0.684242  0  2.222273  0  0  -0.70782  0  2.204452  0  0  -0.352122  -0.667339  0  2.234068  0
O  O95  1  0.27497313  0.28255295  0.25569412  1  0  -0.756173  0  1.986185  0  0  -0.684353  0  2.222385  0  0  -0.707921  0  2.204536  0  0  -0.35217  -0.667441  0  2.234181  0
O  O96  1  0.76091617  0.59053474  0.53188383  1  0  -0.853914  0  1.886455  0  0  -0.792196  0  2.093209  0  0  -0.812802  0  2.059114  0  0  -0.588434  -0.777551  0  2.116827  0
O  O97  1  0.26091300  0.40946669  0.96812237  1  0  -0.853886  0  1.886505  0  0  -0.792267  0  2.093041  0  0  -0.812868  0  2.058946  0  0  -0.588448  -0.777614  0  2.116664  0
O  O98  1  0.23908168  0.40946249  0.46811853  1  0  -0.853865  0  1.886478  0  0  -0.792127  0  2.093226  0  0  -0.812734  0  2.059135  0  0  -0.588425  -0.77748  0  2.116849  0
O  O99  1  0.73908485  0.59053144  0.03188096  1  0  -0.853963  0  1.886415  0  0  -0.792267  0  2.093124  0  0  -0.81287  0  2.059037  0  0  -0.588441  -0.777617  0  2.116746  0
