# generated using pymatgen
data_AlH6C11O6
_symmetry_space_group_name_H-M   'P 1'
_cell_length_a   6.67195944
_cell_length_b   17.98804156
_cell_length_c   19.97021280
_cell_angle_alpha   95.70234187
_cell_angle_beta   92.51132970
_cell_angle_gamma   93.38752559
_symmetry_Int_Tables_number   1
_chemical_formula_structural   AlH6C11O6
_chemical_formula_sum   'Al4 H24 C44 O24'
_cell_volume   2377.72704210
_cell_formula_units_Z   4
loop_
 _symmetry_equiv_pos_site_id
 _symmetry_equiv_pos_as_xyz
  1  'x, y, z'
loop_
 _atom_site_type_symbol
 _atom_site_label
 _atom_site_symmetry_multiplicity
 _atom_site_fract_x
 _atom_site_fract_y
 _atom_site_fract_z
 _atom_site_occupancy
 _atom_site_pbe_bader_charge
 _atom_site_pbe_bader_spin_density
 _atom_site_pbe_cm5_charge
 _atom_site_pbe_ddec_charge
 _atom_site_pbe_ddec_spin_density
 _atom_site_pbe_ddec_sum_bond_order
 _atom_site_pbe_magmom
Al  Al0  1  0.74261660  0.74926271  0.24991519  1  2.503676  0  0.403355  1.648376  0  2.576065  0
Al  Al1  1  0.25739061  0.25074331  0.75007921  1  2.503826  0  0.403333  1.648401  0  2.576387  0
Al  Al2  1  0.24286673  0.75010922  0.25030706  1  2.50035  0  0.403356  1.650984  0  2.57116  0
Al  Al3  1  0.75714464  0.24988985  0.74968939  1  2.500359  0  0.403329  1.651025  0  2.570991  0
H  H4  1  0.77461625  0.44545802  0.88244490  1  0.101912  0  0.108244  0.117487  0  1.018125  0
H  H5  1  0.22537558  0.55453228  0.11757089  1  0.101805  0  0.108202  0.117388  0  1.018177  0
H  H6  1  0.73405917  0.05420278  0.61593035  1  0.132421  0  0.108697  0.118205  0  1.017706  0
H  H7  1  0.26595021  0.94581670  0.38405959  1  0.133272  0  0.10881  0.118355  0  1.017515  0
H  H8  1  0.33173147  0.35763291  0.94302073  1  0.114808  0  0.110352  0.128849  0  1.02317  0
H  H9  1  0.66826447  0.64235386  0.05698755  1  0.114984  0  0.11041  0.128904  0  1.023169  0
H  H10  1  0.17661751  0.14427497  0.55908356  1  0.104841  0  0.110505  0.129453  0  1.021655  0
H  H11  1  0.82339006  0.85573896  0.44090684  1  0.105786  0  0.110519  0.129277  0  1.021866  0
H  H12  1  0.53238061  0.65924382  0.94562300  1  0.03797  0  0.10266  0.101691  0  0.979746  0
H  H13  1  0.39284664  0.59996136  0.99690407  1  0.086349  0  0.098857  0.102286  0  1.021947  0
H  H14  1  0.35330309  0.58706943  0.90715416  1  0.08368  0  0.112372  0.122271  0  0.965554  0
H  H15  1  0.60714608  0.40001974  0.00310869  1  0.086942  0  0.098759  0.102362  0  1.021793  0
H  H16  1  0.46760411  0.34073100  0.05438410  1  0.037983  0  0.102761  0.101858  0  0.97974  0
H  H17  1  0.64667116  0.41290409  0.09285783  1  0.083198  0  0.112338  0.122291  0  0.965893  0
H  H18  1  0.10360586  0.89660526  0.49972448  1  0.053845  0  0.099451  0.103303  0  1.021734  0
H  H19  1  0.96180247  0.83781375  0.55081998  1  0.053217  0  0.102685  0.101641  0  0.97965  0
H  H20  1  0.14526567  0.90834293  0.58941537  1  0.08774  0  0.112165  0.121227  0  0.966173  0
H  H21  1  0.03819471  0.16220225  0.44917029  1  0.053609  0  0.102607  0.101562  0  0.979522  0
H  H22  1  0.89640607  0.10340691  0.50026446  1  0.05411  0  0.099525  0.101887  0  1.023154  0
H  H23  1  0.85474494  0.09167295  0.41057205  1  0.087409  0  0.112155  0.121309  0  0.965949  0
H  H24  1  0.47198169  0.65161522  0.22980731  1  0.615132  0  0.359403  0.440791  0  0.837827  0
H  H25  1  0.52803930  0.34837854  0.77022648  1  0.615046  0  0.359438  0.440792  0  0.837928  0
H  H26  1  0.00876345  0.84913340  0.25937412  1  0.60357  0  0.361051  0.442734  0  0.834019  0
H  H27  1  0.99126462  0.15086778  0.74068645  1  0.605804  0  0.361021  0.442711  0  0.833971  0
C  C28  1  0.00202472  0.47763589  0.52149327  1  0.090527  0  -0.001764  -0.004102  0  4.191293  0
C  C29  1  0.99793995  0.52239967  0.47853335  1  -0.112087  0  -0.001177  -0.003407  0  4.191449  0
C  C30  1  0.50096520  0.02225925  0.97839835  1  0.090847  0  -0.001545  -0.003673  0  4.192031  0
C  C31  1  0.49905810  0.97769945  0.02156746  1  -0.110352  0  -0.00166  -0.003984  0  4.192285  0
C  C32  1  0.48826575  0.83555497  0.16406612  1  1.713166  0  0.271408  0.691199  0  4.195177  0
C  C33  1  0.51172860  0.16443768  0.83592455  1  1.713262  0  0.271611  0.69147  0  4.194997  0
C  C34  1  0.99799120  0.66459991  0.33610870  1  1.707354  0  0.273546  0.692826  0  4.192087  0
C  C35  1  0.00199933  0.33539999  0.66389301  1  1.707967  0  0.273711  0.693061  0  4.191704  0
C  C36  1  0.52659664  0.84208247  0.34594852  1  1.544787  0  0.27096  0.650397  0  4.072698  0
C  C37  1  0.47340336  0.15793023  0.65404177  1  1.544679  0  0.271149  0.650598  0  4.072346  0
C  C38  1  0.96034319  0.65692442  0.15403559  1  1.557557  0  0.27209  0.653119  0  4.066894  0
C  C39  1  0.03966369  0.34307289  0.84596583  1  1.5577  0  0.272063  0.653139  0  4.067239  0
C  C40  1  0.00601067  0.38529847  0.61163307  1  0.154714  0  0.001267  -0.131748  0  3.824031  0
C  C41  1  0.99396899  0.61471685  0.38837910  1  0.156317  0  0.001314  -0.131813  0  3.824339  0
C  C42  1  0.50644302  0.11440520  0.88807717  1  0.156773  0  -0.000146  -0.131733  0  3.825634  0
C  C43  1  0.49354304  0.88557576  0.11190934  1  0.154446  0  -8.1e-05  -0.131806  0  3.825645  0
C  C44  1  0.05125065  0.39713011  0.90770755  1  -0.050937  0  -0.017135  -0.01776  0  4.019182  0
C  C45  1  0.94873808  0.60286296  0.09229814  1  -0.01545  0  -0.01711  -0.017592  0  4.019255  0
C  C46  1  0.45767224  0.10368164  0.59245437  1  0.007083  0  -0.017125  -0.017569  0  4.024753  0
C  C47  1  0.54233079  0.89633256  0.40753396  1  0.003918  0  -0.017138  -0.017504  0  4.024466  0
C  C48  1  0.00482867  0.42923085  0.56842699  1  -0.266438  0  -0.011118  0.021813  0  4.260698  0
C  C49  1  0.99513358  0.57079258  0.43159050  1  -0.264518  0  -0.01129  0.021672  0  4.261301  0
C  C50  1  0.50366102  0.07053124  0.93134251  1  -0.271545  0  -0.011438  0.021301  0  4.263042  0
C  C51  1  0.49636338  0.92944420  0.06862889  1  -0.268257  0  -0.011551  0.021352  0  4.262816  0
C  C52  1  0.76717343  0.55263969  0.98845905  1  0.449561  0  0.089432  0.214582  0  4.040174  0
C  C53  1  0.23281309  0.44733534  0.01156015  1  0.452948  0  0.089199  0.214281  0  4.040225  0
C  C54  1  0.73128154  0.94614746  0.51010999  1  0.453807  0  0.089317  0.214854  0  4.040585  0
C  C55  1  0.26872620  0.05387330  0.48987137  1  0.454681  0  0.089447  0.215231  0  4.039895  0
C  C56  1  0.78177247  0.60258249  0.04597040  1  0.016148  0  -0.110395  -0.250544  0  3.990554  0
C  C57  1  0.21820847  0.39740192  0.95404372  1  0.012697  0  -0.110201  -0.250337  0  3.990234  0
C  C58  1  0.71180666  0.89605745  0.45273333  1  -0.034697  0  -0.109209  -0.250079  0  3.989829  0
C  C59  1  0.28819490  0.10395774  0.54725398  1  -0.034571  0  -0.109292  -0.250406  0  3.989594  0
C  C60  1  0.09794907  0.55327577  0.08154712  1  -0.041869  0  -0.093366  -0.162396  0  3.98378  0
C  C61  1  0.90203644  0.44670893  0.91846907  1  -0.005884  0  -0.093345  -0.162276  0  3.983598  0
C  C62  1  0.39542818  0.94667880  0.41921145  1  -0.033056  0  -0.092657  -0.163397  0  3.986021  0
C  C63  1  0.60458861  0.05333957  0.58077757  1  -0.034934  0  -0.092632  -0.163134  0  3.985845  0
C  C64  1  0.08303048  0.50045145  0.02405255  1  0.045848  0  -0.011703  -0.011837  0  4.008685  0
C  C65  1  0.91696676  0.49952664  0.97596780  1  -0.01623  0  -0.012028  -0.012348  0  4.008984  0
C  C66  1  0.41560112  0.99980674  0.47650887  1  0.041827  0  -0.011495  -0.009726  0  4.002006  0
C  C67  1  0.58440044  0.00020800  0.52347944  1  -0.016241  0  -0.011733  -0.009933  0  4.002159  0
C  C68  1  0.46520993  0.60236654  0.94870975  1  0.359967  0  -0.133843  -0.17401  0  3.902886  0
C  C69  1  0.53477070  0.39761191  0.05130586  1  0.359786  0  -0.133826  -0.174261  0  3.903211  0
C  C70  1  0.03203119  0.89430242  0.54806940  1  0.381203  0  -0.13357  -0.173007  0  3.902454  0
C  C71  1  0.96798705  0.10571621  0.45191662  1  0.380859  0  -0.133651  -0.171896  0  3.90334  0
O  O72  1  0.35506180  0.82895937  0.31475083  1  -1.267732  0  -0.236737  -0.601097  0  2.337618  0
O  O73  1  0.64494403  0.17105059  0.68523904  1  -1.267521  0  -0.236695  -0.601123  0  2.337575  0
O  O74  1  0.79691462  0.68500697  0.17147958  1  -1.258795  0  -0.234967  -0.591495  0  2.328739  0
O  O75  1  0.20309401  0.31499566  0.82851936  1  -1.259132  0  -0.234992  -0.59153  0  2.328747  0
O  O76  1  0.65712568  0.82358875  0.19187672  1  -1.227246  0  -0.227155  -0.578324  0  2.285233  0
O  O77  1  0.34287479  0.17640527  0.80811554  1  -1.227419  0  -0.227212  -0.578363  0  2.285416  0
O  O78  1  0.17062915  0.69184657  0.32319077  1  -1.222428  0  -0.224088  -0.566801  0  2.27746  0
O  O79  1  0.82936568  0.30815135  0.67680747  1  -1.222556  0  -0.224091  -0.56684  0  2.277436  0
O  O80  1  0.68814261  0.81291937  0.32814915  1  -1.255734  0  -0.233816  -0.588406  0  2.338964  0
O  O81  1  0.31185591  0.18709163  0.67184615  1  -1.255803  0  -0.233963  -0.588538  0  2.338849  0
O  O82  1  0.13109978  0.67080163  0.18560160  1  -1.267721  0  -0.238703  -0.605534  0  2.340445  0
O  O83  1  0.86891326  0.32920030  0.81439538  1  -1.267535  0  -0.238711  -0.605547  0  2.34058  0
O  O84  1  0.82935298  0.67552881  0.30764976  1  -1.224154  0  -0.225929  -0.574639  0  2.28312  0
O  O85  1  0.17064679  0.32447647  0.69234906  1  -1.225009  0  -0.225992  -0.574767  0  2.283061  0
O  O86  1  0.31501642  0.80924882  0.17747683  1  -1.225293  0  -0.22525  -0.570844  0  2.276232  0
O  O87  1  0.68498086  0.19074142  0.82251689  1  -1.225216  0  -0.225311  -0.57113  0  2.276304  0
O  O88  1  0.48457847  0.70417999  0.24648269  1  -1.415894  0  -0.446019  -0.997152  0  2.197885  0
O  O89  1  0.51542738  0.29582514  0.75351924  1  -1.415732  0  -0.446063  -0.997163  0  2.197986  0
O  O90  1  0.99997635  0.79497911  0.25290620  1  -1.40345  0  -0.446022  -0.999259  0  2.205054  0
O  O91  1  0.00003540  0.20502484  0.74709430  1  -1.405685  0  -0.445939  -0.999157  0  2.204958  0
O  O92  1  0.61426324  0.54849138  0.94058277  1  -1.080927  0  -0.182456  -0.156161  0  2.586369  0
O  O93  1  0.38571605  0.45148938  0.05943383  1  -1.08106  0  -0.182406  -0.156165  0  2.586325  0
O  O94  1  0.88647956  0.94940869  0.55707293  1  -1.077307  0  -0.183596  -0.157997  0  2.585357  0
O  O95  1  0.11353884  0.05061316  0.44291210  1  -1.077658  0  -0.183533  -0.158004  0  2.58539  0
