# generated using pymatgen
data_CdH14C19(NO)4
_symmetry_space_group_name_H-M   'P 1'
_cell_length_a   8.54782366
_cell_length_b   9.19548657
_cell_length_c   15.35042056
_cell_angle_alpha   88.14585149
_cell_angle_beta   84.25483748
_cell_angle_gamma   76.76008394
_symmetry_Int_Tables_number   1
_chemical_formula_structural   CdH14C19(NO)4
_chemical_formula_sum   'Cd2 H28 C38 N8 O8'
_cell_volume   1168.53863553
_cell_formula_units_Z   2
loop_
 _symmetry_equiv_pos_site_id
 _symmetry_equiv_pos_as_xyz
  1  'x, y, z'
loop_
 _atom_site_type_symbol
 _atom_site_label
 _atom_site_symmetry_multiplicity
 _atom_site_fract_x
 _atom_site_fract_y
 _atom_site_fract_z
 _atom_site_occupancy
 _atom_site_hle17_bader_spin_density
 _atom_site_hle17_ddec_charge
 _atom_site_hle17_ddec_spin_density
 _atom_site_hle17_ddec_sum_bond_order
 _atom_site_hle17_magmom
 _atom_site_hse06_10hf_bader_spin_density
 _atom_site_hse06_10hf_ddec_charge
 _atom_site_hse06_10hf_ddec_spin_density
 _atom_site_hse06_10hf_ddec_sum_bond_order
 _atom_site_hse06_10hf_magmom
 _atom_site_hse06_bader_spin_density
 _atom_site_hse06_ddec_charge
 _atom_site_hse06_ddec_spin_density
 _atom_site_hse06_ddec_sum_bond_order
 _atom_site_hse06_magmom
 _atom_site_pbe_bader_spin_density
 _atom_site_pbe_cm5_charge
 _atom_site_pbe_ddec_charge
 _atom_site_pbe_ddec_spin_density
 _atom_site_pbe_ddec_sum_bond_order
 _atom_site_pbe_magmom
Cd  Cd0  1  0.76903162  0.71081022  0.92997450  1  0  1.099401  0  1.687437  0  0  0.901199  0  2.138469  0  0  0.958457  0  2.088138  0  0  0.782152  0.860806  0  2.172717  0
Cd  Cd1  1  0.23096866  0.28918972  0.07002529  1  0  1.099412  0  1.687439  0  0  0.901214  0  2.138478  0  0  0.958472  0  2.088147  0  0  0.782149  0.860815  0  2.172725  0
H  H2  1  0.19053335  0.69685143  0.81811225  1  0  0.326027  0  0.94559  0  0  0.30201  0  1.013798  0  0  0.312171  0  1.005642  0  0  0.30238  0.294891  0  1.019465  0
H  H3  1  0.80946694  0.30314851  0.18188754  1  0  0.32619  0  0.945437  0  0  0.302106  0  1.01375  0  0  0.312287  0  1.005555  0  0  0.302414  0.294988  0  1.019416  0
H  H4  1  0.02003487  0.51561304  0.64180290  1  0  0.092071  0  0.94297  0  0  0.104135  0  0.999077  0  0  0.107249  0  0.998086  0  0  0.101037  0.101905  0  0.999898  0
H  H5  1  0.97996658  0.48438691  0.35819552  1  0  0.092093  0  0.942953  0  0  0.104153  0  0.999059  0  0  0.107266  0  0.998067  0  0  0.10103  0.10192  0  0.99988  0
H  H6  1  0.21719993  0.34115182  0.54157639  1  0  0.081267  0  0.958805  0  0  0.092773  0  1.017597  0  0  0.095466  0  1.016278  0  0  0.097499  0.090875  0  1.018512  0
H  H7  1  0.78280478  0.65884924  0.45842377  1  0  0.081297  0  0.95876  0  0  0.092797  0  1.017559  0  0  0.09549  0  1.01624  0  0  0.097501  0.090896  0  1.018476  0
H  H8  1  0.43306377  0.14473186  0.60345341  1  0  0.078819  0  0.978777  0  0  0.088618  0  1.043328  0  0  0.091124  0  1.042757  0  0  0.093476  0.086816  0  1.043846  0
H  H9  1  0.56693888  0.85526807  0.39654820  1  0  0.078778  0  0.978774  0  0  0.088577  0  1.043332  0  0  0.091082  0  1.042762  0  0  0.093463  0.086773  0  1.04385  0
H  H10  1  0.45941670  0.13796632  0.76374693  1  0  0.104971  0  0.945195  0  0  0.112441  0  1.007291  0  0  0.116291  0  1.004738  0  0  0.10353  0.109679  0  1.009145  0
H  H11  1  0.54058152  0.86203248  0.23625495  1  0  0.105003  0  0.945158  0  0  0.112442  0  1.007288  0  0  0.116292  0  1.004735  0  0  0.103523  0.109676  0  1.00914  0
H  H12  1  0.78456893  0.80877755  0.73089329  1  0  0.107629  0  0.95474  0  0  0.11771  0  1.014948  0  0  0.121114  0  1.012973  0  0  0.103896  0.115264  0  1.016419  0
H  H13  1  0.21543135  0.19122238  0.26910650  1  0  0.10768  0  0.954805  0  0  0.117779  0  1.014987  0  0  0.121186  0  1.013011  0  0  0.103926  0.115328  0  1.01646  0
H  H14  1  0.72622006  0.85192304  0.57449174  1  0  0.082587  0  0.951197  0  0  0.096557  0  1.005141  0  0  0.099114  0  1.004672  0  0  0.097662  0.094671  0  1.005609  0
H  H15  1  0.27377905  0.14807689  0.42550812  1  0  0.082575  0  0.951191  0  0  0.096535  0  1.005147  0  0  0.099098  0  1.004669  0  0  0.097652  0.094644  0  1.005623  0
H  H16  1  0.46555145  0.82730730  0.52655791  1  0  0.081554  0  0.968897  0  0  0.094167  0  1.027673  0  0  0.096615  0  1.026862  0  0  0.096934  0.092426  0  1.028289  0
H  H17  1  0.53444766  0.17269263  0.47344195  1  0  0.0816  0  0.9689  0  0  0.094216  0  1.027671  0  0  0.096663  0  1.026862  0  0  0.096961  0.092475  0  1.028293  0
H  H18  1  0.25036947  0.76359247  0.63289304  1  0  0.107496  0  0.939352  0  0  0.120278  0  0.991817  0  0  0.123415  0  0.990517  0  0  0.107231  0.118039  0  0.992771  0
H  H19  1  0.74962991  0.23640635  0.36710682  1  0  0.107517  0  0.93933  0  0  0.120257  0  0.991838  0  0  0.123386  0  0.990541  0  0  0.107222  0.118016  0  0.992791  0
H  H20  1  0.25124602  0.60833770  0.97608724  1  0  0.126648  0  0.931159  0  0  0.136045  0  0.992917  0  0  0.138877  0  0.99075  0  0  0.125667  0.133988  0  0.994592  0
H  H21  1  0.74875427  0.39166224  0.02391254  1  0  0.12665  0  0.93117  0  0  0.136041  0  0.992941  0  0  0.138864  0  0.990769  0  0  0.125659  0.133979  0  0.994617  0
H  H22  1  0.43545795  0.63207681  0.01418941  1  0  0.10523  0  0.919455  0  0  0.117087  0  0.98072  0  0  0.118509  0  0.979494  0  0  0.118861  0.11599  0  0.981736  0
H  H23  1  0.56454233  0.36792312  0.98581038  1  0  0.105211  0  0.919474  0  0  0.117083  0  0.980726  0  0  0.118496  0  0.979495  0  0  0.118841  0.115977  0  0.981749  0
H  H24  1  0.38218336  0.97920697  0.95999116  1  0  0.102412  0  0.965475  0  0  0.109688  0  1.033162  0  0  0.112183  0  1.030226  0  0  0.133718  0.107695  0  1.035485  0
H  H25  1  0.61781720  0.02079185  0.04000798  1  0  0.102411  0  0.965484  0  0  0.109693  0  1.033162  0  0  0.112187  0  1.030227  0  0  0.133723  0.107703  0  1.035478  0
H  H26  1  0.07214311  0.74175942  0.10606057  1  0  0.133124  0  0.98748  0  0  0.139173  0  1.050733  0  0  0.142776  0  1.048625  0  0  0.121015  0.136524  0  1.052394  0
H  H27  1  0.92785864  0.25823939  0.89394045  1  0  0.133128  0  0.987458  0  0  0.13915  0  1.050743  0  0  0.142752  0  1.048636  0  0  0.121009  0.136504  0  1.052398  0
H  H28  1  0.99674623  0.04038328  0.15927234  1  0  0.102962  0  0.954454  0  0  0.114516  0  1.011457  0  0  0.117069  0  1.010393  0  0  0.115025  0.112649  0  1.012314  0
H  H29  1  0.00325787  0.95961553  0.84072855  1  0  0.102954  0  0.954435  0  0  0.114485  0  1.011463  0  0  0.117057  0  1.010376  0  0  0.115008  0.112625  0  1.012318  0
C  C30  1  0.00086541  0.53016763  0.81541045  1  0  0.667634  0  3.899604  0  0  0.609415  0  4.207212  0  0  0.64475  0  4.197565  0  0  0.204814  0.585294  0  4.21308  0
C  C31  1  0.99913252  0.46983230  0.18458948  1  0  0.667757  0  3.899442  0  0  0.609528  0  4.207118  0  0  0.644867  0  4.197467  0  0  0.204886  0.585406  0  4.21299  0
C  C32  1  0.12849323  0.42514630  0.75861718  1  0  -0.043554  0  3.704888  0  0  -0.030943  0  3.942742  0  0  -0.032613  0  3.961509  0  0  -0.00572  -0.029848  0  3.930226  0
C  C33  1  0.87150497  0.57485252  0.24138210  1  0  -0.043615  0  3.705029  0  0  -0.031139  0  3.943036  0  0  -0.032824  0  3.96183  0  0  -0.005746  -0.030034  0  3.930518  0
C  C34  1  0.11708113  0.43246563  0.66806546  1  0  -0.103038  0  3.765652  0  0  -0.123464  0  4.011978  0  0  -0.126905  0  4.032753  0  0  -0.094103  -0.121212  0  3.99794  0
C  C35  1  0.88292060  0.56753320  0.33193361  1  0  -0.103088  0  3.765673  0  0  -0.123458  0  4.012019  0  0  -0.126894  0  4.032795  0  0  -0.094112  -0.121211  0  3.997979  0
C  C36  1  0.22697405  0.33359507  0.61200318  1  0  -0.060147  0  3.793319  0  0  -0.073561  0  4.040748  0  0  -0.073553  0  4.06166  0  0  -0.089622  -0.073314  0  4.026364  0
C  C37  1  0.77302741  0.66640486  0.38799654  1  0  -0.060212  0  3.793382  0  0  -0.073623  0  4.040808  0  0  -0.073615  0  4.061717  0  0  -0.089647  -0.073379  0  4.026427  0
C  C38  1  0.34912058  0.22538280  0.64612565  1  0  -0.08439  0  3.796849  0  0  -0.098246  0  4.04717  0  0  -0.101797  0  4.069424  0  0  -0.096969  -0.095932  0  4.03205  0
C  C39  1  0.65088088  0.77461713  0.35387472  1  0  -0.08428  0  3.796886  0  0  -0.098132  0  4.047199  0  0  -0.101681  0  4.069452  0  0  -0.096937  -0.095815  0  4.032074  0
C  C40  1  0.36372661  0.21982603  0.73571807  1  0  -0.056176  0  3.728415  0  0  -0.078292  0  3.972402  0  0  -0.07722  0  3.991549  0  0  -0.081668  -0.078788  0  3.959432  0
C  C41  1  0.63627279  0.78017277  0.26428310  1  0  -0.056255  0  3.728374  0  0  -0.078359  0  3.972369  0  0  -0.077286  0  3.991515  0  0  -0.081681  -0.078852  0  3.959395  0
C  C42  1  0.25538601  0.31982450  0.79266210  1  0  -0.079298  0  3.726571  0  0  -0.063967  0  3.956985  0  0  -0.071996  0  3.979326  0  0  -0.017973  -0.058922  0  3.942164  0
C  C43  1  0.74461308  0.68017544  0.20733645  1  0  -0.079241  0  3.726675  0  0  -0.063832  0  3.957074  0  0  -0.071858  0  3.97942  0  0  -0.017943  -0.058797  0  3.942261  0
C  C44  1  0.27793811  0.31027916  0.88839953  1  0  0.616072  0  3.957114  0  0  0.569318  0  4.245839  0  0  0.603437  0  4.240604  0  0  0.188307  0.546294  0  4.248456  0
C  C45  1  0.72205866  0.68972076  0.11160112  1  0  0.61612  0  3.957005  0  0  0.569355  0  4.24573  0  0  0.603475  0  4.240495  0  0  0.188334  0.546323  0  4.248361  0
C  C46  1  0.54760117  0.76496925  0.76950438  1  0  0.152497  0  3.823671  0  0  0.150104  0  4.065774  0  0  0.153496  0  4.090098  0  0  0.085211  0.147698  0  4.049423  0
C  C47  1  0.45239766  0.23503180  0.23049548  1  0  0.152409  0  3.823802  0  0  0.150095  0  4.065813  0  0  0.153487  0  4.090137  0  0  0.085197  0.147693  0  4.049449  0
C  C48  1  0.66881143  0.80018359  0.70982429  1  0  -0.138751  0  3.747691  0  0  -0.156568  0  3.995267  0  0  -0.159164  0  4.015973  0  0  -0.092866  -0.154731  0  3.981252  0
C  C49  1  0.33118622  0.19981746  0.29017563  1  0  -0.138797  0  3.747838  0  0  -0.156651  0  3.99538  0  0  -0.159252  0  4.01609  0  0  -0.092905  -0.154808  0  3.981352  0
C  C50  1  0.63530634  0.82299538  0.62280937  1  0  -0.091412  0  3.815519  0  0  -0.107865  0  4.072221  0  0  -0.111501  0  4.096903  0  0  -0.102339  -0.105302  0  4.055413  0
C  C51  1  0.36469367  0.17700567  0.37719041  1  0  -0.09136  0  3.815532  0  0  -0.107805  0  4.072242  0  0  -0.111446  0  4.096922  0  0  -0.10232  -0.105242  0  4.055439  0
C  C52  1  0.48627676  0.80985696  0.59539471  1  0  -0.079498  0  3.816669  0  0  -0.096336  0  4.073689  0  0  -0.099001  0  4.098136  0  0  -0.099656  -0.094408  0  4.056944  0
C  C53  1  0.51372147  0.19014185  0.40460652  1  0  -0.079525  0  3.81664  0  0  -0.096365  0  4.073642  0  0  -0.099031  0  4.098087  0  0  -0.09965  -0.094447  0  4.056912  0
C  C54  1  0.36501329  0.77459843  0.65399596  1  0  -0.151563  0  3.771707  0  0  -0.168701  0  4.018194  0  0  -0.171795  0  4.038846  0  0  -0.09369  -0.166537  0  4.004139  0
C  C55  1  0.63498644  0.22540374  0.34600383  1  0  -0.151645  0  3.77168  0  0  -0.168739  0  4.018191  0  0  -0.171825  0  4.038834  0  0  -0.093734  -0.166575  0  4.004134  0
C  C56  1  0.39784512  0.75343565  0.74143199  1  0  0.166752  0  3.793592  0  0  0.159713  0  4.035006  0  0  0.163724  0  4.057578  0  0  0.098296  0.156988  0  4.019833  0
C  C57  1  0.60215400  0.24656428  0.25856852  1  0  0.166783  0  3.793629  0  0  0.159711  0  4.035038  0  0  0.163723  0  4.057607  0  0  0.098288  0.15699  0  4.019856  0
C  C58  1  0.39782700  0.71097047  0.88409739  1  0  0.393187  0  3.698737  0  0  0.357351  0  3.9812  0  0  0.375815  0  3.993405  0  0  0.234659  0.345266  0  3.972459  0
C  C59  1  0.60217329  0.28902947  0.11590305  1  0  0.393101  0  3.698894  0  0  0.357312  0  3.981296  0  0  0.37576  0  3.993501  0  0  0.234627  0.34521  0  3.972568  0
C  C60  1  0.33454160  0.68335491  0.97596009  1  0  -0.1044  0  3.631268  0  0  -0.161232  0  3.872963  0  0  -0.158901  0  3.879443  0  0  -0.035185  -0.162857  0  3.868706  0
C  C61  1  0.66546013  0.31664391  0.02403963  1  0  -0.104334  0  3.631307  0  0  -0.161183  0  3.872971  0  0  -0.158801  0  3.879388  0  0  -0.03512  -0.162785  0  3.8687  0
C  C62  1  0.28763860  0.95671178  0.00729654  1  0  0.169033  0  3.66535  0  0  0.103416  0  3.934026  0  0  0.117811  0  3.947409  0  0  0.136579  0.094183  0  3.924719  0
C  C63  1  0.71236196  0.04328703  0.99270391  1  0  0.169069  0  3.665325  0  0  0.103446  0  3.934009  0  0  0.117841  0  3.947394  0  0  0.136574  0.094221  0  3.924697  0
C  C64  1  0.12077146  0.83712017  0.08387621  1  0  -0.052786  0  3.636984  0  0  -0.091945  0  3.89127  0  0  -0.090178  0  3.908946  0  0  0.002722  -0.093085  0  3.879498  0
C  C65  1  0.87923001  0.16287976  0.91612481  1  0  -0.052721  0  3.636948  0  0  -0.09186  0  3.89124  0  0  -0.090094  0  3.908925  0  0  0.002743  -0.093001  0  3.879465  0
C  C66  1  0.08777251  0.98331453  0.10998686  1  0  -0.003498  0  3.768856  0  0  -0.039406  0  4.037146  0  0  -0.037773  0  4.058146  0  0  -0.010447  -0.040495  0  4.022955  0
C  C67  1  0.91222897  0.01668539  0.89001481  1  0  -0.003527  0  3.768813  0  0  -0.039409  0  4.037104  0  0  -0.037793  0  4.058099  0  0  -0.010439  -0.040509  0  4.022924  0
N  N68  1  0.54343689  0.73726028  0.85915001  1  0  -0.492546  0  3.160008  0  0  -0.42414  0  3.442666  0  0  -0.447742  0  3.45576  0  0  -0.354857  -0.408052  0  3.43335  0
N  N69  1  0.45656311  0.26274078  0.14084912  1  0  -0.492451  0  3.16011  0  0  -0.424084  0  3.442736  0  0  -0.447686  0  3.455837  0  0  -0.354825  -0.407996  0  3.43342  0
N  N70  1  0.30731567  0.71956114  0.81552661  1  0  -0.381306  0  3.331522  0  0  -0.324232  0  3.566765  0  0  -0.343069  0  3.57814  0  0  -0.368494  -0.311614  0  3.558952  0
N  N71  1  0.69268462  0.28043880  0.18447318  1  0  -0.381418  0  3.331581  0  0  -0.324329  0  3.566868  0  0  -0.343177  0  3.578224  0  0  -0.368533  -0.311714  0  3.559063  0
N  N72  1  0.24733084  0.82280779  0.01874943  1  0  -0.038269  0  3.542131  0  0  0.054573  0  3.759167  0  0  0.040347  0  3.78389  0  0  -0.237017  0.064017  0  3.742254  0
N  N73  1  0.75267090  0.17719103  0.98125094  1  0  -0.038323  0  3.542191  0  0  0.054521  0  3.759239  0  0  0.040281  0  3.783952  0  0  -0.237013  0.063964  0  3.74232  0
N  N74  1  0.19232144  0.05649300  0.06156615  1  0  -0.405492  0  3.307342  0  0  -0.325334  0  3.598308  0  0  -0.34827  0  3.616837  0  0  -0.368011  -0.309638  0  3.585162  0
N  N75  1  0.80768147  0.94350582  0.93843415  1  0  -0.405522  0  3.307316  0  0  -0.325364  0  3.598279  0  0  -0.348302  0  3.616814  0  0  -0.368029  -0.309677  0  3.585145  0
O  O76  1  0.87687250  0.48755221  0.84766245  1  0  -0.606324  0  1.954552  0  0  -0.545858  0  2.187727  0  0  -0.574232  0  2.178221  0  0  -0.314496  -0.525941  0  2.193521  0
O  O77  1  0.12312632  0.51244885  0.15233611  1  0  -0.606357  0  1.954492  0  0  -0.545886  0  2.18769  0  0  -0.574261  0  2.178184  0  0  -0.314503  -0.525968  0  2.193485  0
O  O78  1  0.01607373  0.66473836  0.82440216  1  0  -0.652438  0  1.997523  0  0  -0.590563  0  2.238698  0  0  -0.619135  0  2.227599  0  0  -0.327994  -0.570403  0  2.245558  0
O  O79  1  0.98392566  0.33526045  0.17559770  1  0  -0.652561  0  1.997443  0  0  -0.590629  0  2.238632  0  0  -0.61921  0  2.227521  0  0  -0.328054  -0.570472  0  2.245495  0
O  O80  1  0.17332356  0.40064796  0.93968068  1  0  -0.639293  0  2.002581  0  0  -0.567626  0  2.246878  0  0  -0.597502  0  2.236612  0  0  -0.330686  -0.546722  0  2.253058  0
O  O81  1  0.82667203  0.59935196  0.06032004  1  0  -0.639317  0  2.00255  0  0  -0.56763  0  2.24683  0  0  -0.597508  0  2.236567  0  0  -0.330676  -0.546716  0  2.253001  0
O  O82  1  0.39438894  0.21532562  0.91598927  1  0  -0.633177  0  1.948711  0  0  -0.581999  0  2.179579  0  0  -0.607455  0  2.171157  0  0  -0.32886  -0.564134  0  2.184532  0
O  O83  1  0.60561080  0.78467654  0.08401116  1  0  -0.633199  0  1.948653  0  0  -0.582025  0  2.179523  0  0  -0.607479  0  2.171098  0  0  -0.32888  -0.564152  0  2.184469  0
