# generated using pymatgen
data_Zn3H20(C18O7)2
_symmetry_space_group_name_H-M   'P 1'
_cell_length_a   18.56027029
_cell_length_b   18.67103720
_cell_length_c   18.47280584
_cell_angle_alpha   109.04341290
_cell_angle_beta   109.11098602
_cell_angle_gamma   109.10268462
_symmetry_Int_Tables_number   1
_chemical_formula_structural   Zn3H20(C18O7)2
_chemical_formula_sum   'Zn6 H40 C72 O28'
_cell_volume   4997.02112236
_cell_formula_units_Z   2
loop_
 _symmetry_equiv_pos_site_id
 _symmetry_equiv_pos_as_xyz
  1  'x, y, z'
loop_
 _atom_site_type_symbol
 _atom_site_label
 _atom_site_symmetry_multiplicity
 _atom_site_fract_x
 _atom_site_fract_y
 _atom_site_fract_z
 _atom_site_occupancy
 _atom_site_pbe_bader_charge
 _atom_site_pbe_bader_spin_density
 _atom_site_pbe_cm5_charge
 _atom_site_pbe_ddec_charge
 _atom_site_pbe_ddec_spin_density
 _atom_site_pbe_ddec_sum_bond_order
 _atom_site_pbe_magmom
Zn  Zn0  1  0.56352579  0.55585650  0.49821971  1  1.302159  0  0.719564  0.947763  0  2.162374  0
Zn  Zn1  1  0.43621534  0.43420485  0.49873430  1  1.302357  0  0.716883  0.943651  0  2.140571  0
Zn  Zn2  1  0.99334392  0.55886756  0.06550412  1  1.307874  0  0.720255  0.95334  0  2.144693  0
Zn  Zn3  1  0.00174798  0.44172345  0.94158147  1  1.307136  0  0.721995  0.953728  0  2.146597  0
Zn  Zn4  1  0.55522236  0.99556998  0.06693436  1  1.310267  0  0.723601  0.955506  0  2.15181  0
Zn  Zn5  1  0.44216714  0.99845605  0.93521487  1  1.303731  0  0.718666  0.948129  0  2.129996  0
H  H6  1  0.17681520  0.12502785  0.97955358  1  0.065314  0  0.102229  0.095266  0  0.990601  0
H  H7  1  0.30685218  0.10857547  0.99385682  1  0.099981  0  0.103749  0.118075  0  1.028305  0
H  H8  1  0.58589885  0.21538424  0.23848482  1  0.101622  0  0.109972  0.119216  0  0.988996  0
H  H9  1  0.28024403  0.38371416  0.24247916  1  0.076232  0  0.100707  0.100631  0  1.039749  0
H  H10  1  0.47020765  0.69087849  0.42527150  1  0.095586  0  0.101798  0.11366  0  1.019457  0
H  H11  1  0.46705763  0.82024786  0.41979660  1  0.063421  0  0.10223  0.097886  0  0.991361  0
H  H12  1  0.34359035  0.80323161  0.29452883  1  0.065407  0  0.10423  0.102165  0  0.98605  0
H  H13  1  0.22290859  0.65836080  0.17974207  1  0.085456  0  0.098034  0.104286  0  1.050648  0
H  H14  1  0.16083200  0.36639966  0.11403342  1  0.125976  0  0.105629  0.107861  0  0.997885  0
H  H15  1  0.69165831  0.37308809  0.59204455  1  0.062688  0  0.102998  0.101867  0  0.988814  0
H  H16  1  0.58232831  0.60171719  0.74273828  1  0.053433  0  0.097742  0.104661  0  1.034062  0
H  H17  1  0.70788555  0.67628405  0.89201603  1  0.034348  0  0.09955  0.095842  0  1.002166  0
H  H18  1  0.74683218  0.82281112  0.00045538  1  -0.001143  0  0.099376  0.105901  0  1.010689  0
H  H19  1  0.38216888  0.78887152  0.70754091  1  0.085367  0  0.110852  0.128272  0  1.003864  0
H  H20  1  0.77216722  0.39607152  0.07878862  1  0.093962  0  0.109676  0.114985  0  0.986743  0
H  H21  1  0.96495892  0.29514959  0.01730139  1  0.104308  0  0.099451  0.110142  0  1.034459  0
H  H22  1  0.96936517  0.15847349  0.98300005  1  0.026002  0  0.097985  0.09217  0  0.998727  0
H  H23  1  0.85116129  0.03149942  0.96792174  1  0.057929  0  0.097497  0.092095  0  1.00099  0
H  H24  1  0.73467529  0.04673896  0.99686037  1  0.097134  0  0.096233  0.103479  0  1.067232  0
H  H25  1  0.87434588  0.48945116  0.69747410  1  0.077462  0  0.105336  0.097199  0  0.980557  0
H  H26  1  0.66008467  0.27170456  0.07249658  1  0.083199  0  0.108342  0.113919  0  0.982567  0
H  H27  1  0.26206504  0.66134825  0.06382394  1  0.078559  0  0.107115  0.11232  0  0.994906  0
H  H28  1  0.02265669  0.85227181  0.95029312  1  0.047145  0  0.099127  0.108387  0  1.006747  0
H  H29  1  0.15706259  0.97698833  0.98478159  1  0.048663  0  0.095617  0.09108  0  1.026082  0
H  H30  1  0.29383668  0.97110619  0.02038718  1  0.069312  0  0.096127  0.107144  0  1.047505  0
H  H31  1  0.38846514  0.77298475  0.07290822  1  0.108133  0  0.111332  0.116984  0  0.981278  0
H  H32  1  0.83849726  0.63048650  0.73242596  1  0.061392  0  0.099114  0.090131  0  0.991814  0
H  H33  1  0.83310153  0.62384392  0.88444524  1  0.066452  0  0.09332  0.074275  0  1.01758  0
H  H34  1  0.65150108  0.50810738  0.77905384  1  0.059942  0  0.102288  0.104969  0  0.995715  0
H  H35  1  0.58965238  0.32001657  0.36608966  1  0.070792  0  0.108652  0.113128  0  0.983491  0
H  H36  1  0.29959175  0.27930208  0.25994044  1  0.072659  0  0.103073  0.110998  0  1.022864  0
H  H37  1  0.17137369  0.20769869  0.11282300  1  0.057987  0  0.101439  0.096572  0  0.995966  0
H  H38  1  0.57618940  0.27560816  0.63016848  1  0.032022  0  0.096067  0.0504  0  0.96919  0
H  H39  1  0.56468726  0.34268114  0.71502108  1  0.022008  0  0.096188  0.051247  0  0.973336  0
H  H40  1  0.58963383  0.25805821  0.79414350  1  0.056329  0  0.094429  0.128892  0  0.991667  0
H  H41  1  0.49781998  0.18911330  0.68684362  1  -0.001676  0  0.093353  0.123081  0  0.997501  0
H  H42  1  0.59911982  0.19015378  0.70832429  1  0.035592  0  0.094883  0.129092  0  0.989256  0
H  H43  1  0.32731925  0.68509141  0.56575903  1  0.601926  0  0.345889  0.372012  0  0.861639  0
H  H44  1  0.72218078  0.93013951  0.02494763  1  0.616249  0  0.339448  0.361644  0  0.86944  0
H  H45  1  0.96540502  0.71908925  0.93718977  1  0.593526  0  0.329588  0.356277  0  0.895114  0
C  C46  1  0.46395499  0.35172428  0.37420405  1  1.55224  0  0.22342  0.609003  0  4.136145  0
C  C47  1  0.80222117  0.56903731  0.81872644  1  -0.047669  0  -0.080737  -0.063394  0  3.670966  0
C  C48  1  0.70184447  0.50417657  0.76215493  1  -0.041444  0  -0.084213  -0.151843  0  3.633596  0
C  C49  1  0.70541244  0.50774719  0.67960513  1  0.021575  0  -0.008783  -0.013089  0  3.667514  0
C  C50  1  0.30118446  0.24294193  0.20138934  1  -0.011597  0  -0.090154  -0.132378  0  3.984165  0
C  C51  1  0.22986373  0.20254909  0.11956567  1  -0.039983  0  -0.092999  -0.084979  0  4.04694  0
C  C52  1  0.23266245  0.15499447  0.04435374  1  -0.093354  0  -0.090316  -0.080027  0  4.047601  0
C  C53  1  0.30519720  0.14584622  0.05186242  1  -0.013173  0  -0.089588  -0.133407  0  3.968994  0
C  C54  1  0.37989408  0.18589576  0.13515446  1  0.029433  0  0.004696  0.06954  0  3.930122  0
C  C55  1  0.37833606  0.23786066  0.21161694  1  -0.019835  0  0.00247  0.055749  0  3.941365  0
C  C56  1  0.45568783  0.28614629  0.29474101  1  -0.027088  0  -0.001562  -0.044452  0  3.916487  0
C  C57  1  0.63786548  0.51198646  0.61362701  1  1.514661  0  0.218783  0.602191  0  4.145263  0
C  C58  1  0.53011608  0.28042257  0.30287588  1  0.007517  0  -0.085564  -0.105686  0  4.013762  0
C  C59  1  0.52885983  0.22354255  0.23052515  1  0.018917  0  -0.079693  -0.079426  0  3.994543  0
C  C60  1  0.45625896  0.17693493  0.14755720  1  -0.101622  0  -0.012001  -0.084304  0  3.920166  0
C  C61  1  0.41632055  0.68355318  0.37122451  1  -0.074385  0  -0.094235  -0.137313  0  3.98639  0
C  C62  1  0.41442858  0.75563625  0.36780001  1  -0.011407  0  -0.093402  -0.084372  0  4.055037  0
C  C63  1  0.34474039  0.74612196  0.29733603  1  -0.045369  0  -0.09233  -0.081053  0  4.040686  0
C  C64  1  0.27747129  0.66468169  0.23205212  1  -0.075426  0  -0.094474  -0.133196  0  3.983248  0
C  C65  1  0.27715449  0.58872419  0.23286745  1  0.047543  0  0.001345  0.060302  0  3.937212  0
C  C66  1  0.34897621  0.59855881  0.30402477  1  0.015769  0  0.001891  0.063128  0  3.949966  0
C  C67  1  0.34728722  0.52210961  0.30593978  1  -0.026875  0  -0.007884  -0.066743  0  3.923874  0
C  C68  1  0.47197902  0.58713337  0.61322166  1  1.573604  0  0.227535  0.64449  0  4.12328  0
C  C69  1  0.28017362  0.44065617  0.23883899  1  -0.034745  0  -0.084103  -0.089341  0  3.995058  0
C  C70  1  0.21273545  0.43089261  0.16696384  1  -0.058898  0  -0.08506  -0.100304  0  4.005614  0
C  C71  1  0.20930415  0.50312007  0.16486609  1  -0.044823  0  -0.00682  -0.059147  0  3.928815  0
C  C72  1  0.59693654  0.66358731  0.79224410  1  -0.02233  0  -0.110293  -0.172331  0  4.012336  0
C  C73  1  0.66703088  0.70520572  0.87490141  1  0.000533  0  -0.098371  -0.050657  0  4.101058  0
C  C74  1  0.68802469  0.78706673  0.93660572  1  -0.015503  0  -0.125208  -0.262546  0  4.080012  0
C  C75  1  0.63721776  0.82564001  0.91728329  1  0.485388  0  0.085031  0.279052  0  4.05204  0
C  C76  1  0.55777299  0.78066651  0.83565393  1  -0.011988  0  -0.008238  -0.051004  0  3.873956  0
C  C77  1  0.54286456  0.70070128  0.77069276  1  0.061312  0  0.002512  0.092627  0  3.9853  0
C  C78  1  0.47481145  0.65925546  0.68283204  1  0.022141  0  -0.016494  -0.169264  0  3.891229  0
C  C79  1  0.41442758  0.52406892  0.37935711  1  1.538857  0  0.22575  0.617111  0  4.111776  0
C  C80  1  0.42010009  0.69268233  0.65941941  1  0.467683  0  0.082998  0.29047  0  4.115034  0
C  C81  1  0.42872856  0.76553236  0.72429410  1  0.015029  0  -0.093428  -0.230052  0  3.990758  0
C  C82  1  0.49453640  0.80900290  0.81056956  1  0.021568  0  -0.008901  -0.027571  0  3.912352  0
C  C83  1  0.89622384  0.40150811  0.03798586  1  1.522276  0  0.224646  0.615467  0  4.117293  0
C  C84  1  0.88397955  0.48289487  0.86572907  1  1.54889  0  0.224481  0.630243  0  4.115877  0
C  C85  1  0.10804723  0.64492747  0.02768506  1  1.553421  0  0.222057  0.615959  0  4.141803  0
C  C86  1  0.12911807  0.48917185  0.09472083  1  1.544718  0  0.219743  0.605445  0  4.143221  0
C  C87  1  0.39628386  0.89923183  0.03602815  1  1.541391  0  0.221466  0.614049  0  4.117216  0
C  C88  1  0.46367980  0.11507450  0.07852693  1  1.523963  0  0.218313  0.598994  0  4.1293  0
C  C89  1  0.64363372  0.11475399  0.03272707  1  1.547314  0  0.227308  0.619426  0  4.121319  0
C  C90  1  0.72423855  0.42855093  0.65762281  1  -0.04538  0  -0.076632  -0.139172  0  3.603612  0
C  C91  1  0.48644687  0.87703428  0.87301996  1  1.545257  0  0.221923  0.608183  0  4.113919  0
C  C92  1  0.91497438  0.24154375  0.01391159  1  -0.017621  0  -0.094014  -0.129874  0  3.97552  0
C  C93  1  0.91694851  0.16453837  0.99419772  1  -0.034082  0  -0.095947  -0.085367  0  4.054527  0
C  C94  1  0.85091863  0.09320320  0.98672211  1  -0.07222  0  -0.099245  -0.08908  0  4.062803  0
C  C95  1  0.78584859  0.10149266  0.00273876  1  -0.032575  0  -0.097789  -0.140283  0  3.990776  0
C  C96  1  0.78330516  0.18066110  0.02571113  1  0.033947  0  -0.00028  0.058886  0  3.952353  0
C  C97  1  0.84744657  0.25186294  0.02836267  1  -0.044401  0  0.004073  0.068693  0  3.928364  0
C  C98  1  0.84059878  0.32950652  0.04643624  1  0.030491  0  -0.01002  -0.074908  0  3.921906  0
C  C99  1  0.77572458  0.33630510  0.06485817  1  -0.056254  0  -0.079784  -0.08788  0  3.995963  0
C  C100  1  0.71282277  0.26633976  0.06158508  1  -0.05077  0  -0.08456  -0.10588  0  4.003126  0
C  C101  1  0.72188513  0.42622193  0.74157065  1  0.614041  0  0.094983  0.236403  0  3.748038  0
C  C102  1  0.71601302  0.18966631  0.04215769  1  0.010387  0  -0.003352  -0.051872  0  3.922675  0
C  C103  1  0.08888362  0.78256600  0.98078615  1  0.411794  0  0.080913  0.267925  0  4.080352  0
C  C104  1  0.08488196  0.85212456  0.97210230  1  0.00876  0  -0.123741  -0.25695  0  4.072896  0
C  C105  1  0.16028119  0.92142525  0.98971775  1  -0.054111  0  -0.096544  -0.047879  0  4.077551  0
C  C106  1  0.23753605  0.91896812  0.01121651  1  0.000855  0  -0.108302  -0.164908  0  4.000257  0
C  C107  1  0.24400310  0.84855980  0.02089257  1  0.014143  0  0.003955  0.084098  0  3.953449  0
C  C108  1  0.16975174  0.78141279  0.01167016  1  0.037715  0  -0.005722  -0.041142  0  3.904239  0
C  C109  1  0.17860912  0.71517962  0.02964000  1  -0.006074  0  -0.002772  -0.0273  0  3.900666  0
C  C110  1  0.25663142  0.71320639  0.05177424  1  -0.007182  0  -0.086125  -0.110235  0  3.997201  0
C  C111  1  0.32821112  0.77646069  0.05761995  1  -0.038186  0  -0.079647  -0.085638  0  3.998202  0
C  C112  1  0.82294072  0.49234757  0.79879716  1  -0.003652  0  -0.008883  -0.083079  0  3.640412  0
C  C113  1  0.32233345  0.84206900  0.04112140  1  -0.016177  0  -0.010741  -0.074968  0  3.927745  0
C  C114  1  0.82453459  0.49389992  0.71496768  1  -0.021803  0  -0.071247  -0.048843  0  3.633419  0
C  C115  1  0.80568160  0.57222579  0.73587865  1  -0.014065  0  -0.078309  -0.073711  0  3.638961  0
C  C116  1  0.59528612  0.30203429  0.70043734  1  0.445494  0  -0.065776  0.096142  0  3.934037  0
C  C117  1  0.56901634  0.23063339  0.72386514  1  -0.022369  0  -0.241351  -0.396309  0  3.982136  0
O  O118  1  0.52534121  0.42816743  0.40866173  1  -1.172432  0  -0.308469  -0.567501  0  2.309952  0
O  O119  1  0.91873765  0.38105672  0.97953577  1  -1.172874  0  -0.309285  -0.569623  0  2.365749  0
O  O120  1  0.90186452  0.52605151  0.94446367  1  -1.179587  0  -0.315312  -0.571101  0  2.319017  0
O  O121  1  0.91355136  0.43177585  0.83977357  1  -1.121616  0  -0.317786  -0.528744  0  2.218962  0
O  O122  1  0.08203086  0.66605401  0.08398702  1  -1.120718  0  -0.317251  -0.53155  0  2.243504  0
O  O123  1  0.08370855  0.56805536  0.97358195  1  -1.171258  0  -0.311573  -0.571877  0  2.321929  0
O  O124  1  0.09277069  0.53149012  0.11959071  1  -1.167822  0  -0.306607  -0.564227  0  2.352214  0
O  O125  1  0.10030566  0.43396336  0.01449092  1  -1.134321  0  -0.321048  -0.53612  0  2.211065  0
O  O126  1  0.47457652  0.92393085  0.09252269  1  -1.130151  0  -0.320392  -0.533302  0  2.221949  0
O  O127  1  0.37720074  0.91738208  0.97403790  1  -1.169849  0  -0.309981  -0.568274  0  2.345631  0
O  O128  1  0.51969527  0.09218282  0.10673425  1  -1.177849  0  -0.314243  -0.580608  0  2.3717  0
O  O129  1  0.41087343  0.32820122  0.40308457  1  -1.128666  0  -0.314264  -0.525347  0  2.230977  0
O  O130  1  0.41513576  0.08652677  0.99609128  1  -1.135912  0  -0.312245  -0.5259  0  2.237568  0
O  O131  1  0.66232701  0.08281842  0.08408808  1  -1.137026  0  -0.316906  -0.536172  0  2.239301  0
O  O132  1  0.56783968  0.08854233  0.97378564  1  -1.162608  0  -0.30594  -0.554465  0  2.305047  0
O  O133  1  0.51771416  0.89354370  0.95214874  1  -1.163335  0  -0.309042  -0.553768  0  2.40645  0
O  O134  1  0.44314588  0.91146629  0.84131367  1  -1.133796  0  -0.323694  -0.541375  0  2.240069  0
O  O135  1  0.66373107  0.56477024  0.58531273  1  -1.124214  0  -0.319128  -0.526288  0  2.239935  0
O  O136  1  0.55864716  0.46262108  0.58923579  1  -1.178801  0  -0.317572  -0.577851  0  2.303715  0
O  O137  1  0.52576138  0.61151422  0.58691203  1  -1.159093  0  -0.305755  -0.566283  0  2.302697  0
O  O138  1  0.41856569  0.50808861  0.58634868  1  -1.129629  0  -0.310049  -0.517412  0  2.205531  0
O  O139  1  0.49598646  0.57591000  0.40984440  1  -1.133892  0  -0.31328  -0.525414  0  2.249869  0
O  O140  1  0.38660248  0.47180855  0.40598929  1  -1.168634  0  -0.310289  -0.570443  0  2.322265  0
O  O141  1  0.91574400  0.47959864  0.08803189  1  -1.136756  0  -0.320656  -0.536031  0  2.223635  0
O  O142  1  0.68890470  0.35524460  0.75209782  1  -1.091141  0  -0.206597  -0.2483  0  2.494957  0
O  O143  1  0.35889608  0.65313875  0.57317705  1  -1.111068  0  -0.346901  -0.434599  0  2.243387  0
O  O144  1  0.66644993  0.90980393  0.97525763  1  -1.128615  0  -0.340139  -0.425556  0  2.381108  0
O  O145  1  0.01600432  0.71094421  0.95793526  1  -1.116741  0  -0.341875  -0.432616  0  2.349159  0
