# generated using pymatgen
data_ZnH6C20Br3NO4
_symmetry_space_group_name_H-M   'P 1'
_cell_length_a   14.83739050
_cell_length_b   15.84111512
_cell_length_c   16.21488813
_cell_angle_alpha   89.81127705
_cell_angle_beta   89.58232937
_cell_angle_gamma   65.66730339
_symmetry_Int_Tables_number   1
_chemical_formula_structural   ZnH6C20Br3NO4
_chemical_formula_sum   'Zn2 H12 C40 Br6 N2 O8'
_cell_volume   3472.51612088
_cell_formula_units_Z   2
loop_
 _symmetry_equiv_pos_site_id
 _symmetry_equiv_pos_as_xyz
  1  'x, y, z'
loop_
 _atom_site_type_symbol
 _atom_site_label
 _atom_site_symmetry_multiplicity
 _atom_site_fract_x
 _atom_site_fract_y
 _atom_site_fract_z
 _atom_site_occupancy
 _atom_site_pbe_bader_charge
 _atom_site_pbe_bader_spin_density
 _atom_site_pbe_cm5_charge
 _atom_site_pbe_ddec_charge
 _atom_site_pbe_ddec_spin_density
 _atom_site_pbe_ddec_sum_bond_order
 _atom_site_pbe_magmom
Zn  Zn0  1  0.59836472  0.49059673  0.49902745  1  1.324579  0  0.684029  0.893882  0  2.417905  0
Zn  Zn1  1  0.40163366  0.50940446  0.50097526  1  1.325318  0  0.684113  0.893858  0  2.41775  0
H  H2  1  0.76715946  0.88608475  0.51397753  1  0.073754  0  0.097396  0.105548  0  1.024308  0
H  H3  1  0.23283193  0.11391730  0.48599683  1  0.073485  0  0.097336  0.105419  0  1.024424  0
H  H4  1  0.53909530  0.76639478  0.48892136  1  0.097906  0  0.089744  0.102626  0  1.082161  0
H  H5  1  0.46089741  0.23360724  0.51106410  1  0.097467  0  0.089725  0.102562  0  1.082168  0
H  H6  1  0.23623870  0.81507819  0.51962678  1  0.079143  0  0.104795  0.109938  0  1.000512  0
H  H7  1  0.76375831  0.18492304  0.48037717  1  0.079446  0  0.104825  0.10996  0  1.000435  0
H  H8  1  0.15076715  0.35075031  0.50784507  1  0.149994  0  0.110908  0.124999  0  1.029724  0
H  H9  1  0.84923636  0.64924185  0.49215394  1  0.149912  0  0.110914  0.12499  0  1.029658  0
H  H10  1  0.81187219  0.01312459  0.48114277  1  0.049497  0  0.099883  0.100887  0  0.996644  0
H  H11  1  0.18812254  0.98687738  0.51884699  1  0.049549  0  0.099876  0.100883  0  0.996781  0
H  H12  1  0.63572346  0.51608241  0.92015641  1  0.127617  0  0.11582  0.136322  0  0.973197  0
H  H13  1  0.36429306  0.48391080  0.07984872  1  0.127567  0  0.115831  0.136306  0  0.973182  0
C  C14  1  0.50058238  0.49677611  0.33909042  1  1.644391  0  0.219285  0.667201  0  4.237961  0
C  C15  1  0.49940629  0.50322739  0.66091170  1  1.644872  0  0.219214  0.666952  0  4.238045  0
C  C16  1  0.61898394  0.89688562  0.51977307  1  -0.078191  0  -0.011903  0.072185  0  3.917002  0
C  C17  1  0.38101104  0.10311429  0.48020129  1  -0.077713  0  -0.011884  0.072217  0  3.916806  0
C  C18  1  0.68897223  0.93082949  0.50601156  1  0.010296  0  -0.099846  -0.192655  0  4.024297  0
C  C19  1  0.31101757  0.06917466  0.49397267  1  0.010467  0  -0.099695  -0.192424  0  4.024317  0
C  C20  1  0.57648074  0.50911297  0.95543257  1  -0.030171  0  -0.081041  -0.159897  0  3.926732  0
C  C21  1  0.42353627  0.49087749  0.04457010  1  -0.029979  0  -0.081065  -0.159745  0  3.926756  0
C  C22  1  0.49813289  0.50076426  0.91233580  1  0.119769  0  0.001741  0.104171  0  4.090547  0
C  C23  1  0.50188498  0.49922412  0.08766748  1  0.11972  0  0.001582  0.103866  0  4.090788  0
C  C24  1  0.42171972  0.49151684  0.95910393  1  -0.027038  0  -0.00914  0.070851  0  3.941521  0
C  C25  1  0.57830145  0.50847009  0.04089996  1  -0.027187  0  -0.009146  0.071011  0  3.941207  0
C  C26  1  0.49809333  0.50188463  0.82528052  1  -0.38097  0  -0.041168  -0.055869  0  4.126079  0
C  C27  1  0.50192106  0.49810727  0.17472092  1  -0.380758  0  -0.041192  -0.05586  0  4.125646  0
C  C28  1  0.50044116  0.49711184  0.24983284  1  0.155873  0  -0.035482  -0.154109  0  3.930778  0
C  C29  1  0.49956432  0.50289330  0.75017477  1  0.156029  0  -0.035483  -0.154081  0  3.93114  0
C  C30  1  0.99103840  0.41500298  0.50469370  1  -0.025445  0  0.004641  0.078722  0  3.94798  0
C  C31  1  0.00896249  0.58499061  0.49530593  1  -0.025153  0  0.004564  0.078657  0  3.947682  0
C  C32  1  0.90640533  0.49977282  0.49981913  1  0.130952  0  0.01846  0.033017  0  4.047212  0
C  C33  1  0.09359681  0.50021937  0.50017927  1  0.130867  0  0.018396  0.032869  0  4.047279  0
C  C34  1  0.91553142  0.58454846  0.49510773  1  0.028651  0  -0.062402  -0.122736  0  3.897588  0
C  C35  1  0.08446936  0.41544376  0.50489067  1  0.028683  0  -0.062369  -0.122714  0  3.89796  0
C  C36  1  0.57709531  0.31982757  0.50087485  1  1.588153  0  0.215941  0.598565  0  4.16027  0
C  C37  1  0.42287993  0.68017420  0.49912177  1  1.588187  0  0.215931  0.598493  0  4.160729  0
C  C38  1  0.81064423  0.50001775  0.49924299  1  0.896303  0  0.236405  0.29648  0  3.935217  0
C  C39  1  0.18935900  0.49997510  0.50075417  1  0.896302  0  0.236452  0.296569  0  3.935158  0
C  C40  1  0.60822996  0.21717224  0.49568494  1  -0.010251  0  -0.014681  -0.017603  0  3.954533  0
C  C41  1  0.39176552  0.78282628  0.50430792  1  -0.009772  0  -0.014771  -0.017682  0  3.954741  0
C  C42  1  0.73435223  0.06212248  0.48460400  1  -0.073186  0  -0.091567  -0.137688  0  3.993207  0
C  C43  1  0.26564114  0.93787952  0.51538516  1  -0.073231  0  -0.09158  -0.137711  0  3.993292  0
C  C44  1  0.70863905  0.15618694  0.48529841  1  0.020333  0  -0.082346  -0.086592  0  3.996564  0
C  C45  1  0.29135574  0.84381161  0.51469754  1  0.020099  0  -0.082265  -0.086467  0  3.996312  0
C  C46  1  0.53588360  0.18306633  0.50032556  1  -0.057608  0  -0.086771  -0.133187  0  3.939227  0
C  C47  1  0.46410657  0.81693370  0.49966053  1  -0.057993  0  -0.086805  -0.133381  0  3.939437  0
C  C48  1  0.55850800  0.08767205  0.49349749  1  0.022263  0  -0.005983  0.035993  0  3.943728  0
C  C49  1  0.44148939  0.91232848  0.50648302  1  0.024241  0  -0.005893  0.036416  0  3.94328  0
C  C50  1  0.66114995  0.02643911  0.49114086  1  0.028167  0  -0.005375  0.098961  0  4.015378  0
C  C51  1  0.33884461  0.97356012  0.50884090  1  0.027904  0  -0.005399  0.098755  0  4.015492  0
C  C52  1  0.48513233  0.04890557  0.49328596  1  0.003767  0  0.000412  -0.000157  0  3.89407  0
C  C53  1  0.51486546  0.95110044  0.50669947  1  -0.047616  0  0.00023  -0.000493  0  3.893967  0
Br  Br54  1  0.67199530  0.77618349  0.57074941  1  -0.08124  0  0.045022  -0.057058  0  1.471195  0
Br  Br55  1  0.32800222  0.22382321  0.42923108  1  -0.08186  0  0.044946  -0.057125  0  1.471074  0
Br  Br56  1  0.68511157  0.52035293  0.09523033  1  -0.045379  0  0.016832  -0.069915  0  1.328167  0
Br  Br57  1  0.31491154  0.47963257  0.90477232  1  -0.045453  0  0.016797  -0.069951  0  1.328379  0
Br  Br58  1  0.97759980  0.30205992  0.51124618  1  0.030115  0  0.09283  0.01389  0  1.345692  0
Br  Br59  1  0.02240215  0.69793434  0.48875530  1  0.030156  0  0.092838  0.013904  0  1.345576  0
N  N60  1  0.26741338  0.50018607  0.50145638  1  -1.135475  0  -0.255833  -0.258162  0  3.085062  0
N  N61  1  0.73258724  0.49981302  0.49854201  1  -1.135419  0  -0.255764  -0.258032  0  3.085003  0
O  O62  1  0.58129624  0.48721711  0.37304792  1  -1.136068  0  -0.314694  -0.54215  0  2.249468  0
O  O63  1  0.41872062  0.51276718  0.62695969  1  -1.136519  0  -0.3145  -0.541783  0  2.250377  0
O  O64  1  0.42009942  0.50610543  0.37455192  1  -1.142202  0  -0.317917  -0.549894  0  2.24774  0
O  O65  1  0.57989905  0.49392798  0.62544579  1  -1.142117  0  -0.318142  -0.550109  0  2.246981  0
O  O66  1  0.64473620  0.34978348  0.50038122  1  -1.155849  0  -0.318996  -0.545636  0  2.287607  0
O  O67  1  0.35526272  0.65022113  0.49963628  1  -1.155746  0  -0.319007  -0.545545  0  2.28888  0
O  O68  1  0.48436857  0.36944064  0.50454512  1  -1.178081  0  -0.31881  -0.560738  0  2.358455  0
O  O69  1  0.51563310  0.63055774  0.49543477  1  -1.178125  0  -0.318804  -0.560775  0  2.357574  0
