# generated using pymatgen
data_CdH18C24(NO2)2
_symmetry_space_group_name_H-M   'P 1'
_cell_length_a   9.84211527
_cell_length_b   10.50668398
_cell_length_c   12.15002651
_cell_angle_alpha   103.93481243
_cell_angle_beta   95.03989485
_cell_angle_gamma   109.66485211
_symmetry_Int_Tables_number   1
_chemical_formula_structural   CdH18C24(NO2)2
_chemical_formula_sum   'Cd2 H36 C48 N4 O8'
_cell_volume   1128.53769096
_cell_formula_units_Z   2
loop_
 _symmetry_equiv_pos_site_id
 _symmetry_equiv_pos_as_xyz
  1  'x, y, z'
loop_
 _atom_site_type_symbol
 _atom_site_label
 _atom_site_symmetry_multiplicity
 _atom_site_fract_x
 _atom_site_fract_y
 _atom_site_fract_z
 _atom_site_occupancy
 _atom_site_hle17_bader_spin_density
 _atom_site_hle17_ddec_charge
 _atom_site_hle17_ddec_spin_density
 _atom_site_hle17_ddec_sum_bond_order
 _atom_site_hle17_magmom
 _atom_site_hse06_10hf_bader_spin_density
 _atom_site_hse06_10hf_ddec_charge
 _atom_site_hse06_10hf_ddec_spin_density
 _atom_site_hse06_10hf_ddec_sum_bond_order
 _atom_site_hse06_10hf_magmom
 _atom_site_hse06_bader_spin_density
 _atom_site_hse06_ddec_charge
 _atom_site_hse06_ddec_spin_density
 _atom_site_hse06_ddec_sum_bond_order
 _atom_site_hse06_magmom
 _atom_site_pbe_bader_spin_density
 _atom_site_pbe_cm5_charge
 _atom_site_pbe_ddec_charge
 _atom_site_pbe_ddec_spin_density
 _atom_site_pbe_ddec_sum_bond_order
 _atom_site_pbe_magmom
Cd  Cd0  1  0.91392081  0.62753238  0.59389526  1  0  1.11081  0  1.719477  0  0  0.917001  0  2.173977  0  0  0.976838  0  2.120864  0  0  0.769283  0.873553  0  2.210876  0
Cd  Cd1  1  0.08608185  0.37247380  0.40610524  1  0  1.110817  0  1.71945  0  0  0.917024  0  2.173952  0  0  0.976858  0  2.120839  0  0  0.769286  0.873575  0  2.210853  0
H  H2  1  0.06793444  0.60899744  0.82405489  1  0  0.110966  0  0.985224  0  0  0.117344  0  1.054871  0  0  0.121459  0  1.051122  0  0  0.100288  0.114633  0  1.057071  0
H  H3  1  0.93206178  0.39100242  0.17594883  1  0  0.111009  0  0.98522  0  0  0.117375  0  1.05487  0  0  0.121487  0  1.051126  0  0  0.100309  0.114667  0  1.057072  0
H  H4  1  0.12834465  0.64634726  0.03340630  1  0  0.087002  0  0.94397  0  0  0.101122  0  0.995327  0  0  0.103953  0  0.994883  0  0  0.100401  0.099133  0  0.995688  0
H  H5  1  0.87164480  0.35364313  0.96659662  1  0  0.086981  0  0.944085  0  0  0.101103  0  0.99543  0  0  0.103933  0  0.994986  0  0  0.10042  0.099115  0  0.995791  0
H  H6  1  0.28734390  0.53320033  0.10989890  1  0  0.081605  0  0.962809  0  0  0.091472  0  1.025525  0  0  0.093971  0  1.024895  0  0  0.095424  0.089642  0  1.025926  0
H  H7  1  0.71264233  0.46679223  0.89010434  1  0  0.081676  0  0.962746  0  0  0.091482  0  1.025518  0  0  0.093981  0  1.024898  0  0  0.095425  0.089655  0  1.025918  0
H  H8  1  0.38818694  0.38633162  0.97514324  1  0  0.087524  0  0.97811  0  0  0.096619  0  1.040801  0  0  0.098326  0  1.042461  0  0  0.097595  0.095604  0  1.039371  0
H  H9  1  0.61181016  0.61367034  0.02486264  1  0  0.087496  0  0.978119  0  0  0.09657  0  1.040846  0  0  0.098285  0  1.042481  0  0  0.097612  0.095573  0  1.039394  0
H  H10  1  0.32807236  0.34911007  0.76334829  1  0  0.090015  0  0.96742  0  0  0.098807  0  1.03217  0  0  0.101699  0  1.031068  0  0  0.096284  0.096565  0  1.033267  0
H  H11  1  0.67193299  0.65089499  0.23665457  1  0  0.0901  0  0.96733  0  0  0.098903  0  1.032082  0  0  0.101788  0  1.030988  0  0  0.096317  0.096663  0  1.033177  0
H  H12  1  0.93383104  0.87688569  0.99971452  1  0  0.099135  0  0.947638  0  0  0.10891  0  1.00765  0  0  0.112147  0  1.005972  0  0  0.103015  0.106346  0  1.009486  0
H  H13  1  0.06616696  0.12311421  0.00028025  1  0  0.098999  0  0.94759  0  0  0.108777  0  1.00763  0  0  0.112014  0  1.005952  0  0  0.102961  0.106213  0  1.009469  0
H  H14  1  0.82138686  0.96908445  0.16224699  1  0  0.084387  0  0.966802  0  0  0.094735  0  1.026672  0  0  0.096897  0  1.027243  0  0  0.093793  0.093187  0  1.026305  0
H  H15  1  0.17861858  0.03091319  0.83775341  1  0  0.084378  0  0.966854  0  0  0.094721  0  1.026714  0  0  0.096883  0  1.027286  0  0  0.093832  0.093168  0  1.026346  0
H  H16  1  0.55656674  0.93539610  0.12648960  1  0  0.072143  0  0.977056  0  0  0.081126  0  1.043187  0  0  0.08338  0  1.042957  0  0  0.089306  0.079332  0  1.043882  0
H  H17  1  0.44343612  0.06459198  0.87351515  1  0  0.072149  0  0.97706  0  0  0.081145  0  1.043168  0  0  0.083398  0  1.042939  0  0  0.089325  0.079351  0  1.043865  0
H  H18  1  0.40742017  0.81729784  0.92929154  1  0  0.085061  0  0.964251  0  0  0.096328  0  1.023416  0  0  0.098404  0  1.02415  0  0  0.096053  0.09509  0  1.02252  0
H  H19  1  0.59257810  0.18269134  0.07071569  1  0  0.085133  0  0.964116  0  0  0.096383  0  1.023297  0  0  0.098462  0  1.024025  0  0  0.096085  0.095148  0  1.022415  0
H  H20  1  0.52603649  0.73930574  0.76535540  1  0  0.088264  0  0.956523  0  0  0.097987  0  1.020487  0  0  0.101199  0  1.018625  0  0  0.094759  0.095491  0  1.022182  0
H  H21  1  0.47395966  0.26068882  0.23464714  1  0  0.088195  0  0.956621  0  0  0.097958  0  1.020537  0  0  0.101171  0  1.018674  0  0  0.094735  0.09546  0  1.022236  0
H  H22  1  0.85291598  0.37838542  0.71915103  1  0  0.084349  0  0.936842  0  0  0.0933  0  0.999639  0  0  0.095193  0  0.998618  0  0  0.120233  0.092012  0  1.000288  0
H  H23  1  0.14708466  0.62162078  0.28084938  1  0  0.084378  0  0.93681  0  0  0.093316  0  0.999622  0  0  0.09521  0  0.998603  0  0  0.120236  0.092028  0  1.000272  0
H  H24  1  0.64590500  0.17305656  0.73886106  1  0  0.109556  0  0.940427  0  0  0.12435  0  0.991426  0  0  0.127619  0  0.990393  0  0  0.113829  0.122156  0  0.992159  0
H  H25  1  0.35410000  0.82694535  0.26113698  1  0  0.109621  0  0.940487  0  0  0.124403  0  0.991483  0  0  0.127672  0  0.99045  0  0  0.11384  0.122207  0  0.992215  0
H  H26  1  0.36937287  0.24334795  0.47916811  1  0  0.140904  0  0.968413  0  0  0.147712  0  1.031597  0  0  0.152181  0  1.028328  0  0  0.113145  0.144479  0  1.034197  0
H  H27  1  0.63062765  0.75665296  0.52082948  1  0  0.140965  0  0.968295  0  0  0.147756  0  1.031486  0  0  0.152228  0  1.028211  0  0  0.113148  0.144498  0  1.03412  0
H  H28  1  0.58665930  0.44567781  0.47422681  1  0  0.084732  0  0.935691  0  0  0.093029  0  0.999566  0  0  0.095327  0  0.998036  0  0  0.119964  0.091423  0  1.000646  0
H  H29  1  0.41334025  0.55432311  0.52577237  1  0  0.084688  0  0.93565  0  0  0.092964  0  0.999558  0  0  0.095261  0  0.998029  0  0  0.11994  0.091359  0  1.000637  0
H  H30  1  0.49062714  0.94340838  0.65176941  1  0  0.107617  0  0.950419  0  0  0.119089  0  1.008993  0  0  0.122083  0  1.00847  0  0  0.111185  0.116847  0  1.009733  0
H  H31  1  0.50937490  0.05659148  0.34822473  1  0  0.107602  0  0.950401  0  0  0.119089  0  1.008966  0  0  0.122084  0  1.00844  0  0  0.111224  0.116844  0  1.009711  0
H  H32  1  0.26889676  0.73559021  0.64683325  1  0  0.084137  0  0.947849  0  0  0.092324  0  1.011163  0  0  0.094307  0  1.010085  0  0  0.118202  0.091015  0  1.011796  0
H  H33  1  0.73110367  0.26441073  0.35316104  1  0  0.084108  0  0.947868  0  0  0.092286  0  1.01118  0  0  0.094268  0  1.010104  0  0  0.11818  0.090972  0  1.011823  0
H  H34  1  0.98925418  0.93699404  0.58085538  1  0  0.078843  0  0.942084  0  0  0.088476  0  1.004495  0  0  0.090552  0  1.003072  0  0  0.118646  0.087066  0  1.005259  0
H  H35  1  0.01075142  0.06301420  0.41914820  1  0  0.078818  0  0.942105  0  0  0.08845  0  1.004518  0  0  0.090528  0  1.003092  0  0  0.11864  0.087039  0  1.005286  0
H  H36  1  0.19860347  0.15659173  0.58444685  1  0  0.128985  0  0.983427  0  0  0.135332  0  1.048934  0  0  0.13951  0  1.046656  0  0  0.111144  0.131878  0  1.051295  0
H  H37  1  0.80140162  0.84341548  0.41555318  1  0  0.128989  0  0.983429  0  0  0.135333  0  1.048929  0  0  0.139513  0  1.04665  0  0  0.111148  0.131876  0  1.051292  0
C  C38  1  0.15344484  0.44562909  0.65227282  1  0  0.635836  0  3.930005  0  0  0.585726  0  4.218829  0  0  0.6214  0  4.211119  0  0  0.196006  0.561564  0  4.222827  0
C  C39  1  0.84655542  0.55437605  0.34772898  1  0  0.635937  0  3.929828  0  0  0.585768  0  4.218692  0  0  0.621442  0  4.21098  0  0  0.196065  0.561608  0  4.222691  0
C  C40  1  0.19340702  0.47480712  0.77968932  1  0  -0.091268  0  3.798953  0  0  -0.06472  0  4.028667  0  0  -0.074845  0  4.053877  0  0  -0.031111  -0.05823  0  4.011926  0
C  C41  1  0.80659774  0.52519901  0.22031375  1  0  -0.091304  0  3.799049  0  0  -0.064681  0  4.028706  0  0  -0.074807  0  4.053918  0  0  -0.031095  -0.058192  0  4.011969  0
C  C42  1  0.13848492  0.56010301  0.85624769  1  0  -0.086096  0  3.731459  0  0  -0.110306  0  3.978539  0  0  -0.109892  0  3.998474  0  0  -0.090355  -0.110352  0  3.964457  0
C  C43  1  0.86151818  0.43989889  0.14375519  1  0  -0.086136  0  3.731478  0  0  -0.110369  0  3.978562  0  0  -0.109951  0  3.998496  0  0  -0.09039  -0.110413  0  3.964479  0
C  C44  1  0.17332402  0.58166598  0.97482624  1  0  -0.077596  0  3.787739  0  0  -0.088375  0  4.038418  0  0  -0.092288  0  4.060655  0  0  -0.091514  -0.085783  0  4.022809  0
C  C45  1  0.82667059  0.41833497  0.02517763  1  0  -0.0776  0  3.787941  0  0  -0.088368  0  4.03861  0  0  -0.092276  0  4.060836  0  0  -0.091537  -0.085776  0  4.023002  0
C  C46  1  0.26246416  0.51879466  0.01756881  1  0  -0.049908  0  3.743894  0  0  -0.067737  0  3.995356  0  0  -0.067453  0  4.015407  0  0  -0.085735  -0.067362  0  3.981337  0
C  C47  1  0.73753034  0.48120100  0.98243225  1  0  -0.049939  0  3.743916  0  0  -0.06772  0  3.995346  0  0  -0.067443  0  4.015407  0  0  -0.08569  -0.067345  0  3.981329  0
C  C48  1  0.31878145  0.43532092  0.94175242  1  0  -0.072322  0  3.776749  0  0  -0.081569  0  4.022289  0  0  -0.085028  0  4.044717  0  0  -0.090528  -0.079387  0  4.006682  0
C  C49  1  0.68121616  0.56468000  0.05824995  1  0  -0.07221  0  3.776545  0  0  -0.081424  0  4.022078  0  0  -0.084878  0  4.044507  0  0  -0.090534  -0.079253  0  4.006461  0
C  C50  1  0.28488986  0.41381348  0.82345214  1  0  -0.068098  0  3.735766  0  0  -0.091034  0  3.977279  0  0  -0.090468  0  3.997972  0  0  -0.087703  -0.091325  0  3.963514  0
C  C51  1  0.71511190  0.58619268  0.17655243  1  0  -0.06826  0  3.735675  0  0  -0.091267  0  3.977239  0  0  -0.090698  0  3.997936  0  0  -0.087775  -0.091558  0  3.963472  0
C  C52  1  0.80590461  0.75288255  0.77512466  1  0  0.626903  0  3.947919  0  0  0.581437  0  4.234575  0  0  0.615743  0  4.228624  0  0  0.185307  0.558287  0  4.237687  0
C  C53  1  0.19409057  0.24711526  0.22487114  1  0  0.626926  0  3.948018  0  0  0.581457  0  4.234678  0  0  0.615763  0  4.228729  0  0  0.185287  0.558299  0  4.237804  0
C  C54  1  0.73739319  0.80530854  0.87288241  1  0  -0.061077  0  3.76691  0  0  -0.034331  0  3.991773  0  0  -0.042076  0  4.014938  0  0  -0.021474  -0.029138  0  3.976013  0
C  C55  1  0.26260329  0.19468710  0.12711709  1  0  -0.061004  0  3.76699  0  0  -0.034262  0  3.991849  0  0  -0.042008  0  4.015015  0  0  -0.021437  -0.029068  0  3.97609  0
C  C56  1  0.81974329  0.86794154  0.98506822  1  0  -0.073372  0  3.739693  0  0  -0.095863  0  3.983682  0  0  -0.095911  0  4.003772  0  0  -0.084771  -0.095829  0  3.970561  0
C  C57  1  0.18026007  0.13205615  0.01493045  1  0  -0.07324  0  3.739655  0  0  -0.095734  0  3.983635  0  0  -0.095781  0  4.003726  0  0  -0.084727  -0.0957  0  3.970507  0
C  C58  1  0.75570479  0.91727504  0.07576894  1  0  -0.075614  0  3.779449  0  0  -0.086266  0  4.027429  0  0  -0.089042  0  4.048862  0  0  -0.095298  -0.084392  0  4.012615  0
C  C59  1  0.24429814  0.08272160  0.92422865  1  0  -0.075527  0  3.779669  0  0  -0.08618  0  4.027654  0  0  -0.088955  0  4.049083  0  0  -0.095302  -0.084295  0  4.012821  0
C  C60  1  0.60735044  0.89856244  0.05559313  1  0  -0.072275  0  3.783553  0  0  -0.085236  0  4.030943  0  0  -0.085915  0  4.051745  0  0  -0.095404  -0.084858  0  4.017217  0
C  C61  1  0.39264823  0.10143312  0.94441224  1  0  -0.072424  0  3.783909  0  0  -0.085393  0  4.031293  0  0  -0.086074  0  4.052099  0  0  -0.095511  -0.085011  0  4.017554  0
C  C62  1  0.52356490  0.83325033  0.94431637  1  0  -0.08027  0  3.799125  0  0  -0.091187  0  4.04678  0  0  -0.094653  0  4.070206  0  0  -0.096243  -0.088803  0  4.031261  0
C  C63  1  0.47643335  0.16674418  0.05568874  1  0  -0.080308  0  3.799094  0  0  -0.091213  0  4.04677  0  0  -0.094679  0  4.070194  0  0  -0.096196  -0.088837  0  4.031263  0
C  C64  1  0.58909782  0.78913801  0.85292974  1  0  -0.08784  0  3.756039  0  0  -0.109948  0  4.000025  0  0  -0.110427  0  4.021103  0  0  -0.093876  -0.109705  0  3.986249  0
C  C65  1  0.41089829  0.21085656  0.14707116  1  0  -0.087818  0  3.75612  0  0  -0.109952  0  4.000097  0  0  -0.110431  0  4.021178  0  0  -0.093905  -0.1097  0  3.986322  0
C  C66  1  0.74338002  0.34398235  0.66802838  1  0  0.133075  0  3.713373  0  0  0.103525  0  3.965774  0  0  0.110496  0  3.984409  0  0  0.050845  0.098889  0  3.95305  0
C  C67  1  0.25662378  0.65602171  0.33197006  1  0  0.133075  0  3.713263  0  0  0.103525  0  3.965665  0  0  0.110497  0  3.9843  0  0  0.050879  0.098893  0  3.952941  0
C  C68  1  0.62766341  0.22914885  0.67782038  1  0  -0.160301  0  3.708538  0  0  -0.178033  0  3.953002  0  0  -0.184893  0  3.973246  0  0  -0.077234  -0.173588  0  3.939119  0
C  C69  1  0.37233947  0.77085312  0.32217427  1  0  -0.16039  0  3.708591  0  0  -0.178098  0  3.953055  0  0  -0.184956  0  3.973296  0  0  -0.077287  -0.173646  0  3.93917  0
C  C70  1  0.48854076  0.18971004  0.61074886  1  0  0.092171  0  3.757116  0  0  0.103204  0  3.990347  0  0  0.106423  0  4.012231  0  0  0.012834  0.10137  0  3.97533  0
C  C71  1  0.51145994  0.81028875  0.38924827  1  0  0.0922  0  3.757251  0  0  0.103184  0  3.990519  0  0  0.106403  0  4.012402  0  0  0.012814  0.101344  0  3.975501  0
C  C72  1  0.47266972  0.26923064  0.53620212  1  0  -0.148011  0  3.662408  0  0  -0.16854  0  3.912307  0  0  -0.174475  0  3.930285  0  0  -0.074576  -0.16454  0  3.90041  0
C  C73  1  0.52732975  0.73077030  0.46379377  1  0  -0.148132  0  3.662562  0  0  -0.168623  0  3.912442  0  0  -0.174558  0  3.930415  0  0  -0.074594  -0.164603  0  3.90056  0
C  C74  1  0.59428970  0.38223746  0.53193346  1  0  0.131031  0  3.70033  0  0  0.100874  0  3.955507  0  0  0.107285  0  3.973963  0  0  0.050963  0.096482  0  3.942824  0
C  C75  1  0.40571227  0.61776449  0.46806525  1  0  0.131164  0  3.700315  0  0  0.101011  0  3.955475  0  0  0.107424  0  3.973931  0  0  0.051048  0.096621  0  3.942786  0
C  C76  1  0.36258162  0.06652678  0.61493164  1  0  0.097832  0  3.750778  0  0  0.108919  0  3.982397  0  0  0.112668  0  4.004235  0  0  0.015284  0.106624  0  3.967155  0
C  C77  1  0.63742006  0.93347200  0.38506471  1  0  0.097807  0  3.750633  0  0  0.108919  0  3.982246  0  0  0.112668  0  4.004086  0  0  0.015319  0.106629  0  3.966997  0
C  C78  1  0.38172786  0.94762068  0.63604047  1  0  -0.161595  0  3.714042  0  0  -0.180652  0  3.964326  0  0  -0.188122  0  3.98577  0  0  -0.07899  -0.175646  0  3.949936  0
C  C79  1  0.61827584  0.05238341  0.36395386  1  0  -0.161599  0  3.714006  0  0  -0.18068  0  3.964284  0  0  -0.188151  0  3.98573  0  0  -0.079043  -0.175678  0  3.949898  0
C  C80  1  0.25911549  0.83096242  0.63280666  1  0  0.142047  0  3.698831  0  0  0.111286  0  3.952233  0  0  0.11838  0  3.97116  0  0  0.052368  0.10645  0  3.939376  0
C  C81  1  0.74088681  0.16904061  0.36718901  1  0  0.14209  0  3.698926  0  0  0.111356  0  3.952325  0  0  0.118451  0  3.971254  0  0  0.052412  0.106524  0  3.93947  0
C  C82  1  0.10259970  0.94304901  0.59447165  1  0  0.128545  0  3.716516  0  0  0.098974  0  3.966212  0  0  0.105971  0  3.984727  0  0  0.049577  0.094434  0  3.953338  0
C  C83  1  0.89740098  0.05695718  0.40553040  1  0  0.12855  0  3.716397  0  0  0.098986  0  3.966097  0  0  0.105983  0  3.984614  0  0  0.049559  0.09444  0  3.953229  0
C  C84  1  0.21870586  0.06391124  0.59567373  1  0  -0.162469  0  3.677084  0  0  -0.179227  0  3.921057  0  0  -0.18674  0  3.940961  0  0  -0.077786  -0.173967  0  3.907755  0
C  C85  1  0.78129960  0.93609172  0.40432621  1  0  -0.162496  0  3.677096  0  0  -0.179268  0  3.921091  0  0  -0.186781  0  3.940995  0  0  -0.077837  -0.173998  0  3.907778  0
N  N86  1  0.72725553  0.41933468  0.59627757  1  0  -0.321456  0  3.264203  0  0  -0.246571  0  3.527376  0  0  -0.266319  0  3.547461  0  0  -0.325087  -0.232545  0  3.513307  0
N  N87  1  0.27274563  0.58066515  0.40372145  1  0  -0.321476  0  3.264091  0  0  -0.246582  0  3.527269  0  0  -0.266332  0  3.547355  0  0  -0.325107  -0.232559  0  3.513206  0
N  N88  1  0.12155950  0.82740609  0.61052240  1  0  -0.32149  0  3.24623  0  0  -0.245661  0  3.511942  0  0  -0.265109  0  3.529673  0  0  -0.324347  -0.231743  0  3.499558  0
N  N89  1  0.87844215  0.17260010  0.38947805  1  0  -0.321416  0  3.24608  0  0  -0.245601  0  3.511792  0  0  -0.265052  0  3.529525  0  0  -0.32431  -0.231685  0  3.499411  0
O  O90  1  0.07516759  0.50511928  0.61122360  1  0  -0.68457  0  2.087773  0  0  -0.612771  0  2.360572  0  0  -0.643734  0  2.348008  0  0  -0.339886  -0.590504  0  2.368023  0
O  O91  1  0.92483556  0.49488793  0.38877963  1  0  -0.684673  0  2.087676  0  0  -0.612839  0  2.360494  0  0  -0.643794  0  2.347913  0  0  -0.339962  -0.590574  0  2.367955  0
O  O92  1  0.19822349  0.36091431  0.58507782  1  0  -0.639155  0  1.992487  0  0  -0.577084  0  2.238141  0  0  -0.605422  0  2.228645  0  0  -0.327111  -0.557212  0  2.244104  0
O  O93  1  0.80177309  0.63908663  0.41492369  1  0  -0.639195  0  1.992381  0  0  -0.577069  0  2.238021  0  0  -0.605416  0  2.228538  0  0  -0.327108  -0.557197  0  2.24398  0
O  O94  1  0.91383597  0.71590762  0.79726659  1  0  -0.645344  0  1.943458  0  0  -0.587109  0  2.177658  0  0  -0.615836  0  2.169008  0  0  -0.338226  -0.5676  0  2.183087  0
O  O95  1  0.08616016  0.28409020  0.20272679  1  0  -0.64539  0  1.943518  0  0  -0.587157  0  2.177718  0  0  -0.615878  0  2.169075  0  0  -0.338198  -0.567643  0  2.183155  0
O  O96  1  0.75223074  0.74487983  0.67278530  1  0  -0.663344  0  1.944786  0  0  -0.606786  0  2.180556  0  0  -0.634767  0  2.170819  0  0  -0.348501  -0.587049  0  2.186395  0
O  O97  1  0.24776457  0.25512326  0.32721414  1  0  -0.663317  0  1.944757  0  0  -0.606766  0  2.180544  0  0  -0.634751  0  2.170806  0  0  -0.348476  -0.587027  0  2.186388  0
