# generated using pymatgen
data_NaPH17C8SNClO
_symmetry_space_group_name_H-M   'P 1'
_cell_length_a   9.78999542
_cell_length_b   11.20292326
_cell_length_c   12.04740000
_cell_angle_alpha   100.73288168
_cell_angle_beta   90.00000000
_cell_angle_gamma   90.00000000
_symmetry_Int_Tables_number   1
_chemical_formula_structural   NaPH17C8SNClO
_chemical_formula_sum   'Na4 P4 H68 C32 S4 N4 Cl4 O4'
_cell_volume   1298.20245858
_cell_formula_units_Z   4
loop_
 _symmetry_equiv_pos_site_id
 _symmetry_equiv_pos_as_xyz
  1  'x, y, z'
loop_
 _atom_site_type_symbol
 _atom_site_label
 _atom_site_symmetry_multiplicity
 _atom_site_fract_x
 _atom_site_fract_y
 _atom_site_fract_z
 _atom_site_occupancy
 _atom_site_hle17_bader_spin_density
 _atom_site_hle17_ddec_charge
 _atom_site_hle17_ddec_spin_density
 _atom_site_hle17_ddec_sum_bond_order
 _atom_site_hle17_magmom
 _atom_site_hse06_10hf_bader_spin_density
 _atom_site_hse06_10hf_ddec_charge
 _atom_site_hse06_10hf_ddec_spin_density
 _atom_site_hse06_10hf_ddec_sum_bond_order
 _atom_site_hse06_10hf_magmom
 _atom_site_hse06_bader_spin_density
 _atom_site_hse06_ddec_charge
 _atom_site_hse06_ddec_spin_density
 _atom_site_hse06_ddec_sum_bond_order
 _atom_site_hse06_magmom
 _atom_site_pbe_bader_charge
 _atom_site_pbe_bader_spin_density
 _atom_site_pbe_cm5_charge
 _atom_site_pbe_ddec_charge
 _atom_site_pbe_ddec_spin_density
 _atom_site_pbe_ddec_sum_bond_order
 _atom_site_pbe_magmom
Na  Na0  1  0.75977666  0.34727453  0.14228447  1  0  0.88279  0  0.31329  0  0  0.820469  0  0.459727  0  0  0.833066  0  0.440744  0  0.882638  0  0.478701  0.809757  0  0.475499  0
Na  Na1  1  0.20690714  0.17234217  0.86677640  1  0  0.8399  0  0.443611  0  0  0.772514  0  0.625325  0  0  0.781651  0  0.609019  0  0.861057  0  0.523825  0.765293  0  0.638084  0
Na  Na2  1  0.29312986  0.67240939  0.86662394  1  0  0.840055  0  0.44341  0  0  0.772572  0  0.625298  0  0  0.781693  0  0.608984  0  0.861049  0  0.524042  0.765327  0  0.638089  0
Na  Na3  1  0.74039360  0.84782781  0.14175882  1  0  0.883089  0  0.312704  0  0  0.820751  0  0.458972  0  0  0.83334  0  0.440012  0  0.882096  0  0.478883  0.810066  0  0.474688  0
P  P4  1  0.56951508  0.60743130  0.03654977  1  0  0.504485  0  3.523805  0  0  0.424901  0  3.959165  0  0  0.448286  0  3.953568  0  1.412315  0  0.190461  0.409183  0  3.961379  0
P  P5  1  0.06229216  0.90979235  0.96287443  1  0  0.899107  0  4.675968  0  0  0.799684  0  5.150003  0  0  0.841221  0  5.144019  0  2.300024  0  0.328743  0.771199  0  5.153122  0
P  P6  1  0.43780511  0.40982779  0.96285708  1  0  0.89955  0  4.677607  0  0  0.800135  0  5.151579  0  0  0.841627  0  5.145633  0  2.301571  0  0.328887  0.771654  0  5.154729  0
P  P7  1  0.93064599  0.10741496  0.03659650  1  0  0.504122  0  3.525633  0  0  0.424611  0  3.96098  0  0  0.447997  0  3.955387  0  1.405913  0  0.189866  0.408892  0  3.96319  0
H  H8  1  0.52889912  0.50820936  0.26755154  1  0  0.104407  0  0.973614  0  0  0.117933  0  1.049473  0  0  0.120565  0  1.047925  0  0.064478  0  0.088371  0.115363  0  1.051821  0
H  H9  1  0.00915424  0.99044601  0.70548444  1  0  0.09791  0  0.98425  0  0  0.112376  0  1.058055  0  0  0.114233  0  1.057268  0  0.032319  0  0.080436  0.111156  0  1.058526  0
H  H10  1  0.49086744  0.49052233  0.70542769  1  0  0.098092  0  0.984572  0  0  0.112501  0  1.058405  0  0  0.114356  0  1.057607  0  0.032763  0  0.080498  0.111273  0  1.058884  0
H  H11  1  0.97138146  0.00809944  0.26770739  1  0  0.104605  0  0.973501  0  0  0.118187  0  1.049208  0  0  0.12081  0  1.047671  0  0.066235  0  0.088454  0.115627  0  1.051542  0
H  H12  1  0.43121471  0.37427931  0.21843457  1  0  0.110686  0  0.966619  0  0  0.130055  0  1.029643  0  0  0.131688  0  1.029851  0  0.060033  0  0.087109  0.129049  0  1.029147  0
H  H13  1  0.91283699  0.12225014  0.76396431  1  0  0.10712  0  0.982998  0  0  0.125093  0  1.04878  0  0  0.126937  0  1.049132  0  0.081173  0  0.082675  0.123911  0  1.048175  0
H  H14  1  0.58721682  0.62229828  0.76390649  1  0  0.107245  0  0.982905  0  0  0.125286  0  1.048538  0  0  0.127116  0  1.048895  0  0.08046  0  0.08272  0.124102  0  1.047939  0
H  H15  1  0.06904702  0.87422388  0.21844763  1  0  0.111192  0  0.965812  0  0  0.130368  0  1.02905  0  0  0.13201  0  1.029239  0  0.060432  0  0.087316  0.12935  0  1.028565  0
H  H16  1  0.37312173  0.48294984  0.33587918  1  0  0.096504  0  0.948078  0  0  0.120354  0  1.006157  0  0  0.121627  0  1.006238  0  0.025646  0  0.083196  0.119442  0  1.006061  0
H  H17  1  0.84216178  0.01084952  0.65354397  1  0  0.097517  0  0.956166  0  0  0.120383  0  1.016933  0  0  0.121769  0  1.016843  0  0.021683  0  0.083503  0.119453  0  1.016854  0
H  H18  1  0.65783994  0.51092673  0.65345715  1  0  0.097448  0  0.956429  0  0  0.120346  0  1.017243  0  0  0.121728  0  1.017156  0  0.020586  0  0.083607  0.119419  0  1.01716  0
H  H19  1  0.12723397  0.98285898  0.33587863  1  0  0.096795  0  0.948448  0  0  0.120662  0  1.006377  0  0  0.121933  0  1.00646  0  0.023094  0  0.083197  0.119751  0  1.006278  0
H  H20  1  0.27999094  0.68533669  0.30679364  1  0  0.096988  0  0.963405  0  0  0.121286  0  1.022245  0  0  0.122008  0  1.022989  0  0.044583  0  0.086905  0.120877  0  1.021452  0
H  H21  1  0.77269597  0.80646572  0.69394229  1  0  0.10055  0  0.962212  0  0  0.126119  0  1.019158  0  0  0.127081  0  1.01978  0  0.006812  0  0.087579  0.125404  0  1.018664  0
H  H22  1  0.72729247  0.30642667  0.69391868  1  0  0.100449  0  0.962634  0  0  0.126033  0  1.019556  0  0  0.126988  0  1.020197  0  0.006234  0  0.08746  0.125321  0  1.019057  0
H  H23  1  0.22026159  0.18532217  0.30678009  1  0  0.09699  0  0.963402  0  0  0.121443  0  1.022032  0  0  0.122166  0  1.022791  0  0.04374  0  0.087021  0.121032  0  1.021234  0
H  H24  1  0.27569778  0.72277398  0.16959279  1  0  0.111235  0  0.971982  0  0  0.128468  0  1.03991  0  0  0.129933  0  1.040339  0  0.039068  0  0.088768  0.127411  0  1.039705  0
H  H25  1  0.78480118  0.77376635  0.83234464  1  0  0.111417  0  0.982053  0  0  0.128572  0  1.050482  0  0  0.130127  0  1.051171  0  0.04417  0  0.08715  0.127122  0  1.050713  0
H  H26  1  0.71515559  0.27382633  0.83235561  1  0  0.111321  0  0.981716  0  0  0.128692  0  1.049953  0  0  0.130274  0  1.050616  0  0.044769  0  0.087064  0.127234  0  1.050178  0
H  H27  1  0.22441379  0.22275037  0.16954612  1  0  0.111001  0  0.971914  0  0  0.128488  0  1.039693  0  0  0.12996  0  1.040124  0  0.03803  0  0.088868  0.127426  0  1.039487  0
H  H28  1  0.43511358  0.71703669  0.23989511  1  0  0.101946  0  0.952829  0  0  0.123815  0  1.014425  0  0  0.125164  0  1.014451  0  0.016114  0  0.089967  0.122868  0  1.014326  0
H  H29  1  0.93561944  0.78093365  0.75073810  1  0  0.099246  0  0.963659  0  0  0.119125  0  1.029239  0  0  0.11961  0  1.030665  0  0.022728  0  0.084345  0.118946  0  1.027927  0
H  H30  1  0.56432611  0.28095637  0.75069779  1  0  0.099535  0  0.962931  0  0  0.119171  0  1.02885  0  0  0.119657  0  1.03028  0  0.022557  0  0.08429  0.118989  0  1.027536  0
H  H31  1  0.06506234  0.21701853  0.23998053  1  0  0.102145  0  0.952971  0  0  0.123837  0  1.014766  0  0  0.125222  0  1.014746  0  0.017015  0  0.089889  0.122861  0  1.014693  0
H  H32  1  0.14567116  0.49149808  0.23257842  1  0  0.104069  0  0.949128  0  0  0.127698  0  1.008149  0  0  0.129231  0  1.007859  0  0.028426  0  0.084436  0.127156  0  1.007057  0
H  H33  1  0.63530673  0.99646494  0.77614927  1  0  0.093982  0  0.952106  0  0  0.117173  0  1.013003  0  0  0.118085  0  1.013219  0  0.006034  0  0.082383  0.116237  0  1.013895  0
H  H34  1  0.86478590  0.49632594  0.77612329  1  0  0.093803  0  0.951845  0  0  0.116882  0  1.013008  0  0  0.117795  0  1.013224  0  0.004924  0  0.082349  0.115948  0  1.013896  0
H  H35  1  0.35459261  0.99148989  0.23246602  1  0  0.104266  0  0.949315  0  0  0.127674  0  1.008558  0  0  0.129213  0  1.008263  0  0.028941  0  0.084345  0.127129  0  1.007466  0
H  H36  1  0.20342706  0.39082251  0.11024148  1  0  0.09232  0  1.004961  0  0  0.107046  0  1.081131  0  0  0.107853  0  1.082545  0  0.029012  0  0.077291  0.10616  0  1.080639  0
H  H37  1  0.70449573  0.10498740  0.88863057  1  0  0.104793  0  0.984297  0  0  0.122638  0  1.052661  0  0  0.124016  0  1.052875  0  0.031642  0  0.083587  0.121566  0  1.052796  0
H  H38  1  0.79563061  0.60494741  0.88854587  1  0  0.104156  0  0.984342  0  0  0.122001  0  1.0528  0  0  0.123402  0  1.052974  0  0.031248  0  0.083182  0.120927  0  1.052943  0
H  H39  1  0.29670596  0.89080796  0.11012964  1  0  0.092481  0  1.005355  0  0  0.107204  0  1.081362  0  0  0.107992  0  1.082816  0  0.031704  0  0.077243  0.106341  0  1.080837  0
H  H40  1  0.13995308  0.53715745  0.10084629  1  0  0.126142  0  0.950545  0  0  0.145503  0  1.010913  0  0  0.14709  0  1.011038  0  0.06108  0  0.082041  0.144212  0  1.011249  0
H  H41  1  0.65306364  0.96052216  0.91380815  1  0  0.127629  0  0.961785  0  0  0.145494  0  1.025462  0  0  0.147853  0  1.024734  0  0.077939  0  0.085187  0.14362  0  1.02647  0
H  H42  1  0.84686250  0.46044131  0.91378726  1  0  0.127727  0  0.961142  0  0  0.145628  0  1.024824  0  0  0.147989  0  1.024097  0  0.077847  0  0.085211  0.143742  0  1.025855  0
H  H43  1  0.36010129  0.03718109  0.10071732  1  0  0.126027  0  0.95061  0  0  0.145366  0  1.011011  0  0  0.14696  0  1.011127  0  0.06173  0  0.08219  0.144069  0  1.011353  0
H  H44  1  0.62096352  0.23014479  0.35234383  1  0  0.078653  0  0.965368  0  0  0.090528  0  1.030199  0  0  0.09191  0  1.029605  0  0.133933  0  0.094348  0.089527  0  1.030382  0
H  H45  1  0.11781007  0.27475756  0.64595629  1  0  0.05649  0  0.93485  0  0  0.070236  0  1.001858  0  0  0.070644  0  1.001053  0  0.061123  0  0.102665  0.069741  0  1.002762  0
H  H46  1  0.38222592  0.77472302  0.64592815  1  0  0.056347  0  0.934615  0  0  0.070122  0  1.001603  0  0  0.070518  0  1.000827  0  0.06139  0  0.102667  0.069637  0  1.002495  0
H  H47  1  0.87887682  0.73025199  0.35210118  1  0  0.078411  0  0.965333  0  0  0.090488  0  1.030039  0  0  0.091793  0  1.02953  0  0.135149  0  0.094305  0.089538  0  1.030173  0
H  H48  1  0.62413308  0.34872362  0.47770483  1  0  0.032076  0  0.925475  0  0  0.049564  0  0.986652  0  0  0.04964  0  0.986526  0  0.010627  0  0.086546  0.049321  0  0.986992  0
H  H49  1  0.12193162  0.14951476  0.52925416  1  0  0.048297  0  0.911829  0  0  0.068389  0  0.966909  0  0  0.068912  0  0.966728  0  0.030936  0  0.097596  0.067674  0  0.967495  0
H  H50  1  0.37805840  0.64949022  0.52924933  1  0  0.048269  0  0.911857  0  0  0.068406  0  0.966876  0  0  0.069011  0  0.966598  0  0.030847  0  0.097649  0.06768  0  0.967474  0
H  H51  1  0.87552339  0.84906067  0.47735423  1  0  0.032435  0  0.924838  0  0  0.049746  0  0.986379  0  0  0.049839  0  0.986199  0  0.012916  0  0.08665  0.049485  0  0.986776  0
H  H52  1  0.84668681  0.16433541  0.38587722  1  0  0.084217  0  0.939252  0  0  0.100072  0  1.002793  0  0  0.101611  0  1.002461  0  0.05081  0  0.094425  0.098533  0  1.003931  0
H  H53  1  0.34996850  0.33412283  0.60856360  1  0  0.075393  0  0.960389  0  0  0.089899  0  1.027886  0  0  0.090776  0  1.028129  0  0.038628  0  0.087658  0.08916  0  1.027941  0
H  H54  1  0.15007668  0.83416552  0.60859864  1  0  0.075339  0  0.959926  0  0  0.089816  0  1.027542  0  0  0.090695  0  1.027791  0  0.037901  0  0.087651  0.089095  0  1.027579  0
H  H55  1  0.65317395  0.66440263  0.38558697  1  0  0.084187  0  0.939731  0  0  0.100054  0  1.003024  0  0  0.101562  0  1.002728  0  0.04751  0  0.094667  0.098537  0  1.004141  0
H  H56  1  0.79168270  0.20293106  0.52882201  1  0  0.061369  0  0.964833  0  0  0.078237  0  1.030614  0  0  0.079354  0  1.030024  0  0.01549  0  0.085791  0.077353  0  1.031093  0
H  H57  1  0.29028512  0.28804372  0.46741480  1  0  0.074893  0  0.950279  0  0  0.094603  0  1.009638  0  0  0.096027  0  1.008974  0  0.033059  0  0.093871  0.09342  0  1.010257  0
H  H58  1  0.20973656  0.78805007  0.46739872  1  0  0.074671  0  0.949975  0  0  0.094484  0  1.009305  0  0  0.095914  0  1.008641  0  0.033161  0  0.093792  0.093297  0  1.00993  0
H  H59  1  0.70808818  0.70318634  0.52854026  1  0  0.062275  0  0.964511  0  0  0.078707  0  1.030636  0  0  0.079783  0  1.03009  0  0.002955  0  0.085833  0.077828  0  1.031107  0
H  H60  1  0.92400963  0.38532689  0.56088264  1  0  0.057501  0  0.955501  0  0  0.075282  0  1.019707  0  0  0.07562  0  1.020619  0  0.028238  0  0.084127  0.075064  0  1.019044  0
H  H61  1  0.40670499  0.09727953  0.44571167  1  0  0.077185  0  0.939301  0  0  0.096084  0  0.99636  0  0  0.097046  0  0.996842  0  0.042954  0  0.095126  0.095317  0  0.995969  0
H  H62  1  0.09332282  0.59729315  0.44578567  1  0  0.077662  0  0.939496  0  0  0.096452  0  0.996549  0  0  0.097416  0  0.99702  0  0.042853  0  0.095334  0.095688  0  0.996156  0
H  H63  1  0.57573163  0.88556945  0.56039200  1  0  0.058053  0  0.955559  0  0  0.075717  0  1.019735  0  0  0.076067  0  1.020646  0  0.031941  0  0.084313  0.075484  0  1.019078  0
H  H64  1  0.01680491  0.31512027  0.43992676  1  0  0.063768  0  0.96154  0  0  0.082028  0  1.024402  0  0  0.082283  0  1.025761  0  0.011732  0  0.087616  0.08172  0  1.023644  0
H  H65  1  0.51558451  0.17887169  0.55007924  1  0  0.074837  0  0.954142  0  0  0.093725  0  1.014433  0  0  0.094045  0  1.015868  0  0.045434  0  0.094706  0.093334  0  1.013668  0
H  H66  1  0.98445603  0.67889530  0.55005038  1  0  0.075132  0  0.954337  0  0  0.094103  0  1.014359  0  0  0.094409  0  1.015814  0  0.04535  0  0.094843  0.093725  0  1.01357  0
H  H67  1  0.48287561  0.81507302  0.43957103  1  0  0.064268  0  0.961298  0  0  0.082384  0  1.024331  0  0  0.082673  0  1.025645  0  0.008798  0  0.087738  0.082049  0  1.023597  0
H  H68  1  0.81455196  0.51852557  0.46268352  1  0  0.03482  0  0.947716  0  0  0.049053  0  1.015897  0  0  0.049301  0  1.015722  0  0.020768  0  0.089248  0.048821  0  1.016177  0
H  H69  1  0.32939546  0.97933393  0.57400268  1  0  0.042975  0  0.948263  0  0  0.056105  0  1.017327  0  0  0.056164  0  1.017712  0  0.020365  0  0.093803  0.055937  0  1.017142  0
H  H70  1  0.17047199  0.47934575  0.57413064  1  0  0.042862  0  0.94787  0  0  0.056162  0  1.016836  0  0  0.056223  0  1.017221  0  0.021364  0  0.093843  0.055993  0  1.01665  0
H  H71  1  0.68475211  0.01870638  0.46180235  1  0  0.034265  0  0.947106  0  0  0.04894  0  1.015232  0  0  0.049108  0  1.015152  0  0.023682  0  0.089062  0.048771  0  1.015426  0
H  H72  1  0.92242025  0.46930481  0.34403214  1  0  0.061397  0  0.963569  0  0  0.071374  0  1.033089  0  0  0.072917  0  1.031547  0  0.075597  0  0.094928  0.070559  0  1.033464  0
H  H73  1  0.43163554  0.06379066  0.68422798  1  0  0.04962  0  0.936553  0  0  0.061372  0  1.004919  0  0  0.062094  0  1.003732  0  0.028912  0  0.10006  0.060402  0  1.006678  0
H  H74  1  0.06831362  0.56396145  0.68435575  1  0  0.049434  0  0.936476  0  0  0.061302  0  1.004912  0  0  0.062025  0  1.003731  0  0.028387  0  0.100126  0.060331  0  1.006669  0
H  H75  1  0.57700027  0.96891141  0.34322302  1  0  0.061443  0  0.962579  0  0  0.071225  0  1.032586  0  0  0.072815  0  1.030986  0  0.087832  0  0.094659  0.070378  0  1.033006  0
C  C76  1  0.34434133  0.53911804  0.17434185  1  0  0.404292  0  3.552084  0  0  0.423216  0  3.784002  0  0  0.42988  0  3.801589  0  0.351046  0  0.084564  0.418639  0  3.771762  0
C  C77  1  0.84340591  0.95779842  0.81836079  1  0  0.409946  0  3.543333  0  0  0.431408  0  3.769544  0  0  0.438382  0  3.786894  0  0.374194  0  0.087845  0.426725  0  3.757523  0
C  C78  1  0.65658968  0.45782115  0.81826902  1  0  0.409915  0  3.54346  0  0  0.432524  0  3.767588  0  0  0.439505  0  3.784928  0  0.375334  0  0.087983  0.427834  0  3.755576  0
C  C79  1  0.15586320  0.03909079  0.17434850  1  0  0.405265  0  3.551251  0  0  0.424005  0  3.783291  0  0  0.430722  0  3.800839  0  0.353901  0  0.084692  0.419395  0  3.771078  0
C  C80  1  0.42470091  0.47195586  0.25340271  1  0  -0.379216  0  3.649762  0  0  -0.458216  0  3.883223  0  0  -0.462406  0  3.892449  0  -0.14145  0  -0.245052  -0.454688  0  3.876659  0
C  C81  1  0.90616794  0.02448092  0.72987410  1  0  -0.379787  0  3.649555  0  0  -0.458296  0  3.88192  0  0  -0.462584  0  3.891425  0  -0.133268  0  -0.249821  -0.454816  0  3.874697  0
C  C82  1  0.59384604  0.52453996  0.72979658  1  0  -0.379983  0  3.649928  0  0  -0.458818  0  3.882033  0  0  -0.463074  0  3.891523  0  -0.132979  0  -0.250058  -0.455337  0  3.874832  0
C  C83  1  0.07558022  0.97189589  0.25344154  1  0  -0.380889  0  3.649582  0  0  -0.459651  0  3.882992  0  0  -0.463871  0  3.892241  0  -0.141987  0  -0.245584  -0.45611  0  3.876438  0
C  C84  1  0.33373969  0.67463254  0.22549624  1  0  -0.354179  0  3.621708  0  0  -0.432528  0  3.852025  0  0  -0.436226  0  3.861943  0  -0.071584  0  -0.237463  -0.429719  0  3.844821  0
C  C85  1  0.83432725  0.82130091  0.77148193  1  0  -0.370121  0  3.640532  0  0  -0.450317  0  3.870913  0  0  -0.454631  0  3.881941  0  -0.063097  0  -0.24458  -0.446982  0  3.862906  0
C  C86  1  0.66563770  0.32131091  0.77143776  1  0  -0.370229  0  3.639902  0  0  -0.450698  0  3.869774  0  0  -0.455038  0  3.880797  0  -0.062919  0  -0.244448  -0.447345  0  3.861766  0
C  C87  1  0.16643522  0.17461347  0.22550348  1  0  -0.354336  0  3.621989  0  0  -0.432913  0  3.852154  0  0  -0.436652  0  3.862032  0  -0.070681  0  -0.237566  -0.430064  0  3.844967  0
C  C88  1  0.20090714  0.48631317  0.15253481  1  0  -0.368148  0  3.641887  0  0  -0.446625  0  3.872061  0  0  -0.451233  0  3.883202  0  -0.073862  0  -0.249106  -0.442803  0  3.863455  0
C  C89  1  0.70048143  0.00785050  0.85173720  1  0  -0.362752  0  3.617712  0  0  -0.440511  0  3.844085  0  0  -0.444639  0  3.853505  0  -0.071098  0  -0.24331  -0.437386  0  3.837887  0
C  C90  1  0.79954379  0.50779780  0.85167603  1  0  -0.361867  0  3.616533  0  0  -0.439819  0  3.842733  0  0  -0.443972  0  3.852123  0  -0.069293  0  -0.242925  -0.436679  0  3.836519  0
C  C91  1  0.29928002  0.98628409  0.15246527  1  0  -0.368454  0  3.642695  0  0  -0.446813  0  3.873075  0  0  -0.451487  0  3.884303  0  -0.078472  0  -0.24877  -0.442954  0  3.864382  0
C  C92  1  0.68516171  0.29588604  0.40801125  1  0  0.081891  0  3.622251  0  0  0.029686  0  3.888677  0  0  0.035808  0  3.895172  0  0.355509  0  -0.081229  0.025692  0  3.883996  0
C  C93  1  0.18396944  0.20614448  0.59572809  1  0  0.093335  0  3.632401  0  0  0.037262  0  3.908128  0  0  0.044035  0  3.914107  0  0.399728  0  -0.074117  0.032816  0  3.903758  0
C  C94  1  0.31604305  0.70609995  0.59574470  1  0  0.093261  0  3.633617  0  0  0.037155  0  3.90946  0  0  0.043868  0  3.915487  0  0.400786  0  -0.074287  0.032718  0  3.905077  0
C  C95  1  0.81459997  0.79606047  0.40766403  1  0  0.082388  0  3.621325  0  0  0.029769  0  3.88799  0  0  0.035964  0  3.894451  0  0.353618  0  -0.081488  0.025715  0  3.883337  0
C  C96  1  0.81129558  0.23932173  0.45173923  1  0  -0.153036  0  3.679075  0  0  -0.195759  0  3.944679  0  0  -0.197491  0  3.956909  0  -0.04513  0  -0.171914  -0.194575  0  3.936574  0
C  C97  1  0.31023712  0.25710051  0.54711934  1  0  -0.156976  0  3.692053  0  0  -0.202327  0  3.959847  0  0  -0.204052  0  3.972159  0  -0.025255  0  -0.171584  -0.201029  0  3.951482  0
C  C98  1  0.18977946  0.75711322  0.54714171  1  0  -0.156597  0  3.691017  0  0  -0.202008  0  3.958975  0  0  -0.203764  0  3.971332  0  -0.025869  0  -0.171341  -0.200717  0  3.950597  0
C  C99  1  0.68845385  0.73948707  0.45141533  1  0  -0.153361  0  3.680658  0  0  -0.195465  0  3.945934  0  0  -0.197159  0  3.958186  0  -0.029549  0  -0.171759  -0.194288  0  3.937812  0
C  C100  1  0.91477979  0.34520765  0.47076678  1  0  -0.147405  0  3.665902  0  0  -0.189088  0  3.92759  0  0  -0.191249  0  3.942316  0  -0.042887  0  -0.171081  -0.187396  0  3.917344  0
C  C101  1  0.40993175  0.14901689  0.53249480  1  0  -0.143017  0  3.636782  0  0  -0.180904  0  3.890974  0  0  -0.183155  0  3.90472  0  -0.051419  0  -0.165485  -0.179156  0  3.881532  0
C  C102  1  0.09006848  0.64905413  0.53251976  1  0  -0.143854  0  3.637941  0  0  -0.18168  0  3.892289  0  0  -0.183912  0  3.906007  0  -0.050813  0  -0.16593  -0.179936  0  3.882866  0
C  C103  1  0.58490119  0.84526488  0.47030381  1  0  -0.148572  0  3.666706  0  0  -0.189873  0  3.928216  0  0  -0.192059  0  3.942905  0  -0.045638  0  -0.171339  -0.188165  0  3.918012  0
C  C104  1  0.85370622  0.43796458  0.40459575  1  0  0.077315  0  3.610561  0  0  0.025355  0  3.877167  0  0  0.031813  0  3.883277  0  0.390454  0  -0.081361  0.020975  0  3.872881  0
C  C105  1  0.35807167  0.07136861  0.61697613  1  0  0.090847  0  3.592993  0  0  0.037209  0  3.864177  0  0  0.044115  0  3.869867  0  0.423958  0  -0.074353  0.032536  0  3.860118  0
C  C106  1  0.14185808  0.57144037  0.61703612  1  0  0.091714  0  3.590489  0  0  0.037722  0  3.861949  0  0  0.044623  0  3.867638  0  0.422491  0  -0.074121  0.033046  0  3.8579  0
C  C107  1  0.64583381  0.93788553  0.40389586  1  0  0.078568  0  3.608879  0  0  0.025718  0  3.876556  0  0  0.032194  0  3.882629  0  0.379856  0  -0.080965  0.021334  0  3.872303  0
S  S108  1  0.52562639  0.75998323  0.97593612  1  0  -0.713429  0  1.913271  0  0  -0.664807  0  2.257587  0  0  -0.685405  0  2.247994  0  -0.900885  0  -0.30589  -0.648614  0  2.264989  0
S  S109  1  0.05240656  0.74390883  0.98901143  1  0  -0.515061  0  1.905048  0  0  -0.477239  0  2.225223  0  0  -0.488218  0  2.214273  0  -0.712632  0  -0.152941  -0.470791  0  2.23525  0
S  S110  1  0.44768765  0.24397879  0.98904239  1  0  -0.51496  0  1.906074  0  0  -0.477195  0  2.226452  0  0  -0.48824  0  2.215564  0  -0.712697  0  -0.15299  -0.47071  0  2.236451  0
S  S111  1  0.97438044  0.25995871  0.97593162  1  0  -0.712632  0  1.913057  0  0  -0.664127  0  2.257273  0  0  -0.684759  0  2.247713  0  -0.900827  0  -0.305594  -0.647927  0  2.264661  0
N  N112  1  0.41476322  0.52888813  0.06364635  1  0  -0.565905  0  3.17921  0  0  -0.473524  0  3.434491  0  0  -0.497133  0  3.4454  0  -1.644433  0  -0.312177  -0.45727  0  3.425621  0
N  N113  1  0.92839574  0.97814104  0.92187369  1  0  -0.552813  0  3.200164  0  0  -0.458768  0  3.451641  0  0  -0.482546  0  3.462857  0  -1.650203  0  -0.303274  -0.442164  0  3.443318  0
N  N114  1  0.57163867  0.47819193  0.92179676  1  0  -0.553087  0  3.201085  0  0  -0.459305  0  3.452214  0  0  -0.483096  0  3.46343  0  -1.651236  0  -0.303405  -0.442687  0  3.443885  0
N  N115  1  0.08536674  0.02884453  0.06367756  1  0  -0.565625  0  3.179116  0  0  -0.473045  0  3.434197  0  0  -0.49668  0  3.445135  0  -1.639193  0  -0.311692  -0.456778  0  3.425314  0
Cl  Cl116  1  0.85914953  0.58067273  0.17046438  1  0  -0.810262  0  0.624829  0  0  -0.76138  0  0.838852  0  0  -0.780629  0  0.824462  0  -0.80786  0  -0.439073  -0.746426  0  0.848514  0
Cl  Cl117  1  0.23359868  0.91862587  0.84034921  1  0  -0.40304  0  1.090907  0  0  -0.355226  0  1.351158  0  0  -0.357048  0  1.334043  0  -0.558948  0  -0.121676  -0.355252  0  1.365401  0
Cl  Cl118  1  0.26661912  0.41854138  0.84032686  1  0  -0.402349  0  1.091666  0  0  -0.354597  0  1.351995  0  0  -0.356438  0  1.334895  0  -0.559047  0  -0.120884  -0.354598  0  1.366215  0
Cl  Cl119  1  0.64136904  0.08145770  0.17006552  1  0  -0.810597  0  0.62651  0  0  -0.761427  0  0.840845  0  0  -0.780753  0  0.826479  0  -0.80774  0  -0.438632  -0.746447  0  0.850505  0
O  O120  1  0.74103916  0.37738826  0.34031948  1  0  -0.37477  0  2.222577  0  0  -0.301113  0  2.472256  0  0  -0.316447  0  2.470729  0  -1.04211  0  -0.298143  -0.29014  0  2.473229  0
O  O121  1  0.23825650  0.13205577  0.67113663  1  0  -0.393045  0  2.238301  0  0  -0.32194  0  2.495762  0  0  -0.337375  0  2.49509  0  -1.056612  0  -0.308991  -0.310723  0  2.49541  0
O  O122  1  0.26179890  0.63209665  0.67113316  1  0  -0.393324  0  2.238863  0  0  -0.322092  0  2.496472  0  0  -0.33753  0  2.495831  0  -1.056042  0  -0.309444  -0.310869  0  2.496115  0
O  O123  1  0.75864591  0.87733737  0.33980293  1  0  -0.376436  0  2.223439  0  0  -0.302135  0  2.473387  0  0  -0.317479  0  2.471801  0  -1.045722  0  -0.298127  -0.291155  0  2.474391  0
