# generated using pymatgen
data_ZnH6C13N(OF)4
_symmetry_space_group_name_H-M   'P 1'
_cell_length_a   10.21121815
_cell_length_b   10.98952052
_cell_length_c   11.25741526
_cell_angle_alpha   88.19540281
_cell_angle_beta   84.04165417
_cell_angle_gamma   81.69374621
_symmetry_Int_Tables_number   1
_chemical_formula_structural   ZnH6C13N(OF)4
_chemical_formula_sum   'Zn2 H12 C26 N2 O8 F8'
_cell_volume   1243.08720430
_cell_formula_units_Z   2
loop_
 _symmetry_equiv_pos_site_id
 _symmetry_equiv_pos_as_xyz
  1  'x, y, z'
loop_
 _atom_site_type_symbol
 _atom_site_label
 _atom_site_symmetry_multiplicity
 _atom_site_fract_x
 _atom_site_fract_y
 _atom_site_fract_z
 _atom_site_occupancy
 _atom_site_pbe_bader_charge
 _atom_site_pbe_bader_spin_density
 _atom_site_pbe_cm5_charge
 _atom_site_pbe_ddec_charge
 _atom_site_pbe_ddec_spin_density
 _atom_site_pbe_ddec_sum_bond_order
 _atom_site_pbe_magmom
Zn  Zn0  1  0.36088529  0.51552748  0.49280471  1  1.292274  0  0.67059  0.855942  0  2.420237  0
Zn  Zn1  1  0.63912089  0.48447108  0.50720422  1  1.293057  0  0.670606  0.855924  0  2.419999  0
H  H2  1  0.39892482  0.77554477  0.32254614  1  0.150957  0  0.111247  0.153729  0  1.017019  0
H  H3  1  0.94789928  0.71531355  0.46099748  1  0.055791  0  0.112686  0.152916  0  0.976559  0
H  H4  1  0.93053058  0.63339938  0.33092808  1  0.078005  0  0.118175  0.169535  0  0.954373  0
H  H5  1  0.78981377  0.67525786  0.43695731  1  0.132091  0  0.113644  0.185655  0  1.005596  0
H  H6  1  0.60106358  0.22446122  0.67745084  1  0.150759  0  0.111264  0.15372  0  1.01701  0
H  H7  1  0.32395306  0.47008322  0.90005688  1  0.123592  0  0.116475  0.158523  0  0.984482  0
H  H8  1  0.67604894  0.52991721  0.09994703  1  0.123304  0  0.116493  0.1585  0  0.984535  0
H  H9  1  0.13094781  0.61809859  0.42462613  1  0.426269  0  0.311602  0.287658  0  0.934405  0
H  H10  1  0.86906005  0.38190181  0.57538704  1  0.426217  0  0.311601  0.287585  0  0.934515  0
H  H11  1  0.05209952  0.28468230  0.53899885  1  0.056004  0  0.112648  0.152891  0  0.976532  0
H  H12  1  0.21018669  0.32472695  0.56304096  1  0.132069  0  0.113658  0.185619  0  1.005614  0
H  H13  1  0.06947498  0.36659095  0.66906514  1  0.078018  0  0.118157  0.169532  0  0.954491  0
C  C14  1  0.55172460  0.52834151  0.27084371  1  1.59821  0  0.210976  0.661329  0  4.172012  0
C  C15  1  0.52516403  0.26109515  0.47475678  1  1.613718  0  0.214445  0.601884  0  4.209639  0
C  C16  1  0.41717142  0.87061531  0.31114436  1  0.054602  0  -0.110933  -0.268189  0  3.977668  0
C  C17  1  0.58282544  0.12938699  0.68884663  1  0.054514  0  -0.11103  -0.268245  0  3.977697  0
C  C18  1  0.39728867  0.92967295  0.20469363  1  0.452453  0  0.089253  0.20539  0  4.137811  0
C  C19  1  0.60272227  0.07032749  0.79529527  1  0.452963  0  0.08925  0.205368  0  4.137844  0
C  C20  1  0.42080805  0.05298786  0.18392775  1  0.56095  0  0.081256  0.059352  0  4.124878  0
C  C21  1  0.57920456  0.94700797  0.81606291  1  0.560994  0  0.081161  0.059354  0  4.12499  0
C  C22  1  0.46284747  0.11533764  0.27347617  1  0.538348  0  0.092833  0.141338  0  4.058326  0
C  C23  1  0.53715292  0.88466098  0.72651283  1  0.538646  0  0.092789  0.141105  0  4.058516  0
C  C24  1  0.48031929  0.06129892  0.38892701  1  0.068313  0  -0.013625  -0.047892  0  4.021395  0
C  C25  1  0.44828314  0.47165981  0.72916500  1  1.598044  0  0.21104  0.661363  0  4.171973  0
C  C26  1  0.51967631  0.93870522  0.61106582  1  0.068261  0  -0.013533  -0.047494  0  4.021173  0
C  C27  1  0.45859147  0.93436820  0.40626421  1  -0.027243  0  -0.00224  0.089974  0  3.986554  0
C  C28  1  0.54140481  0.06563134  0.59373046  1  -0.027125  0  -0.002328  0.089683  0  3.986702  0
C  C29  1  0.51947124  0.12486277  0.48285829  1  0.017977  0  -0.006828  -0.085567  0  3.876833  0
C  C30  1  0.48052660  0.87513953  0.51713528  1  0.017856  0  -0.006794  -0.085714  0  3.876797  0
C  C31  1  0.10289057  0.35598043  0.57329316  1  -0.061976  0  -0.224895  -0.4725  0  3.902209  0
C  C32  1  0.89711327  0.64400805  0.42670382  1  -0.062375  0  -0.224967  -0.472602  0  3.902029  0
C  C33  1  0.57509715  0.52480651  0.13934967  1  0.08448  0  -0.104192  -0.344944  0  3.881814  0
C  C34  1  0.42490723  0.47520402  0.86065819  1  0.084414  0  -0.104138  -0.344973  0  3.882003  0
C  C35  1  0.48554095  0.50613766  0.06445262  1  0.473333  0  0.108093  0.23062  0  4.082462  0
C  C36  1  0.51445457  0.49387931  0.93555674  1  0.42061  0  0.108128  0.230769  0  4.082609  0
C  C37  1  0.92863179  0.52438922  0.49162450  1  0.673633  0  0.184521  0.337339  0  3.87536  0
C  C38  1  0.07137020  0.47559834  0.50837711  1  0.704901  0  0.184615  0.337427  0  3.87484  0
C  C39  1  0.47483842  0.73890253  0.52524096  1  1.613789  0  0.214386  0.601818  0  4.209768  0
N  N40  1  0.83576981  0.46253330  0.53273845  1  -1.186696  0  -0.445102  -0.43721  0  3.201044  0
N  N41  1  0.16424287  0.53746802  0.46726627  1  -1.185755  0  -0.445183  -0.437383  0  3.2004  0
O  O42  1  0.43228204  0.54714065  0.31975284  1  -1.162035  0  -0.323556  -0.567541  0  2.326372  0
O  O43  1  0.56772582  0.45285332  0.68025606  1  -1.162089  0  -0.323573  -0.56744  0  2.326288  0
O  O44  1  0.65647165  0.51116354  0.32549209  1  -1.161507  0  -0.321238  -0.544801  0  2.257066  0
O  O45  1  0.34353554  0.48883503  0.67451407  1  -1.161271  0  -0.321249  -0.544865  0  2.257004  0
O  O46  1  0.36309551  0.70191423  0.52435489  1  -1.148047  0  -0.316879  -0.541168  0  2.282794  0
O  O47  1  0.63690539  0.29808713  0.47564377  1  -1.148075  0  -0.316894  -0.541209  0  2.282741  0
O  O48  1  0.58768719  0.67228302  0.52498086  1  -1.169586  0  -0.310696  -0.558454  0  2.364004  0
O  O49  1  0.41231188  0.32771742  0.47501887  1  -1.169485  0  -0.310692  -0.558431  0  2.363846  0
F  F50  1  0.59624709  0.89304321  0.92372481  1  -0.609257  0  -0.090361  -0.098345  0  1.391438  0
F  F51  1  0.40377372  0.10695078  0.07625806  1  -0.609357  0  -0.090459  -0.098442  0  1.391423  0
F  F52  1  0.35476647  0.87228453  0.11415440  1  -0.619389  0  -0.099814  -0.123347  0  1.335909  0
F  F53  1  0.64525084  0.12771315  0.88582691  1  -0.619588  0  -0.099717  -0.123245  0  1.336091  0
F  F54  1  0.49118823  0.23041058  0.24775345  1  -0.616282  0  -0.079758  -0.089987  0  1.408437  0
F  F55  1  0.50881073  0.76959079  0.75224005  1  -0.616335  0  -0.079738  -0.089933  0  1.408494  0
F  F56  1  0.64196883  0.50571935  0.89681927  1  -0.622915  0  -0.085613  -0.111012  0  1.371152  0
F  F57  1  0.35802598  0.49430865  0.10319605  1  -0.623033  0  -0.08557  -0.11091  0  1.371114  0
