# generated using pymatgen
data_FeH18Pd(C13N5)2
_symmetry_space_group_name_H-M   'P 1'
_cell_length_a   6.85536869
_cell_length_b   7.24230966
_cell_length_c   12.84651974
_cell_angle_alpha   77.94669069
_cell_angle_beta   78.48791269
_cell_angle_gamma   89.93473048
_symmetry_Int_Tables_number   1
_chemical_formula_structural   FeH18Pd(C13N5)2
_chemical_formula_sum   'Fe1 H18 Pd1 C26 N10'
_cell_volume   610.65631199
_cell_formula_units_Z   1
loop_
 _symmetry_equiv_pos_site_id
 _symmetry_equiv_pos_as_xyz
  1  'x, y, z'
loop_
 _atom_site_type_symbol
 _atom_site_label
 _atom_site_symmetry_multiplicity
 _atom_site_fract_x
 _atom_site_fract_y
 _atom_site_fract_z
 _atom_site_occupancy
 _atom_site_hle17_bader_spin_density
 _atom_site_hle17_ddec_charge
 _atom_site_hle17_ddec_spin_density
 _atom_site_hle17_ddec_sum_bond_order
 _atom_site_hle17_magmom
 _atom_site_hse06_10hf_bader_spin_density
 _atom_site_hse06_10hf_ddec_charge
 _atom_site_hse06_10hf_ddec_spin_density
 _atom_site_hse06_10hf_ddec_sum_bond_order
 _atom_site_hse06_10hf_magmom
 _atom_site_hse06_bader_spin_density
 _atom_site_hse06_ddec_charge
 _atom_site_hse06_ddec_spin_density
 _atom_site_hse06_ddec_sum_bond_order
 _atom_site_hse06_magmom
 _atom_site_pbe_bader_spin_density
 _atom_site_pbe_cm5_charge
 _atom_site_pbe_ddec_charge
 _atom_site_pbe_ddec_spin_density
 _atom_site_pbe_ddec_sum_bond_order
 _atom_site_pbe_magmom
Fe  Fe0  1  0.50000227  0.50000591  0.00000009  1  0  0.587054  0  3.492803  0  0  0.577057  0  3.959387  0  0  0.603908  0  3.916776  0  0  0.904898  0.568143  0  3.978292  0
H  H1  1  0.91195444  0.50464350  0.87591075  1  0  0.091411  0  0.946662  0  0  0.09917  0  1.007066  0  0  0.099834  0  1.006866  0  0  0.123416  0.098631  0  1.007367  0
H  H2  1  0.08805057  0.49536400  0.12408852  1  0  0.091365  0  0.946737  0  0  0.099174  0  1.007067  0  0  0.099837  0  1.00687  0  0  0.123404  0.098635  0  1.007363  0
H  H3  1  0.36233777  0.62426700  0.79443949  1  0  0.100037  0  0.931887  0  0  0.106526  0  0.996832  0  0  0.108344  0  0.994789  0  0  0.127497  0.10521  0  0.998455  0
H  H4  1  0.63766383  0.37573060  0.20555977  1  0  0.100039  0  0.931896  0  0  0.106523  0  0.996842  0  0  0.108343  0  0.9948  0  0  0.127479  0.10521  0  0.998466  0
H  H5  1  0.08108096  0.54950791  0.68104383  1  0  0.105744  0  0.953139  0  0  0.110065  0  1.020835  0  0  0.113541  0  1.018823  0  0  0.106894  0.107394  0  1.022718  0
H  H6  1  0.91891923  0.45049109  0.31895385  1  0  0.105752  0  0.953111  0  0  0.110074  0  1.020802  0  0  0.113551  0  1.01879  0  0  0.106911  0.107406  0  1.022684  0
H  H7  1  0.87388451  0.63595279  0.53658216  1  0  0.104769  0  0.960822  0  0  0.111503  0  1.029498  0  0  0.114377  0  1.026582  0  0  0.110539  0.109419  0  1.031631  0
H  H8  1  0.12611084  0.36403773  0.46341861  1  0  0.104796  0  0.960841  0  0  0.111552  0  1.029482  0  0  0.114426  0  1.026567  0  0  0.110595  0.109468  0  1.031617  0
H  H9  1  0.66928917  0.81606995  0.27757541  1  0  0.098031  0  0.944985  0  0  0.107447  0  1.00945  0  0  0.110697  0  1.007243  0  0  0.102715  0.104971  0  1.011343  0
H  H10  1  0.33070302  0.18391634  0.72242620  1  0  0.098065  0  0.944916  0  0  0.107488  0  1.009373  0  0  0.110738  0  1.007167  0  0  0.102745  0.105008  0  1.011269  0
H  H11  1  0.16330486  0.82195337  0.53513835  1  0  0.091871  0  0.992167  0  0  0.097498  0  1.065878  0  0  0.100507  0  1.063949  0  0  0.10113  0.095363  0  1.067323  0
H  H12  1  0.83668936  0.17804565  0.46486385  1  0  0.091813  0  0.992251  0  0  0.097484  0  1.065925  0  0  0.100494  0  1.063993  0  0  0.101131  0.095349  0  1.067371  0
H  H13  1  0.45893770  0.92509400  0.13966008  1  0  0.102483  0  0.952166  0  0  0.11322  0  1.010267  0  0  0.114277  0  1.011944  0  0  0.101861  0.112338  0  1.009251  0
H  H14  1  0.54105615  0.07489652  0.86034162  1  0  0.102433  0  0.952224  0  0  0.113199  0  1.010285  0  0  0.114252  0  1.011969  0  0  0.101845  0.112312  0  1.009259  0
H  H15  1  0.94999430  0.92609801  0.39832367  1  0  0.086911  0  0.969247  0  0  0.093824  0  1.037228  0  0  0.096935  0  1.035194  0  0  0.097594  0.091401  0  1.039006  0
H  H16  1  0.05000457  0.07390525  0.60167754  1  0  0.086882  0  0.969246  0  0  0.093802  0  1.037213  0  0  0.096916  0  1.035179  0  0  0.097598  0.091382  0  1.038984  0
H  H17  1  0.10132025  0.98124796  0.20045256  1  0  0.071112  0  0.983795  0  0  0.071992  0  1.065982  0  0  0.075998  0  1.061729  0  0  0.079561  0.068777  0  1.069567  0
H  H18  1  0.89867713  0.01875530  0.79954959  1  0  0.071113  0  0.983795  0  0  0.072003  0  1.065976  0  0  0.076013  0  1.061717  0  0  0.079532  0.068787  0  1.069565  0
Pd  Pd19  1  0.00000392  0.00000700  0.99999894  1  0  0.163453  0  3.592141  0  0  0.15029  0  4.160468  0  0  0.154331  0  4.112372  0  0  0.645164  0.14824  0  4.195977  0
C  C20  1  0.21302938  0.81998359  0.97984880  1  0  0.031756  0  3.463498  0  0  0.011324  0  3.816989  0  0  0.02326  0  3.817309  0  0  -0.022007  0.003158  0  3.817469  0
C  C21  1  0.78698182  0.18002957  0.02015071  1  0  0.031878  0  3.463538  0  0  0.011477  0  3.816994  0  0  0.023412  0  3.817317  0  0  -0.021904  0.00331  0  3.817479  0
C  C22  1  0.80346411  0.78984605  0.02053675  1  0  0.032197  0  3.457134  0  0  0.015423  0  3.806084  0  0  0.026277  0  3.80815  0  0  -0.02295  0.008249  0  3.804973  0
C  C23  1  0.19655013  0.21016853  0.97946070  1  0  0.032264  0  3.457347  0  0  0.015517  0  3.806252  0  0  0.026372  0  3.808317  0  0  -0.022882  0.008344  0  3.805142  0
C  C24  1  0.82824145  0.54193548  0.81162615  1  0  0.125578  0  3.634142  0  0  0.095262  0  3.881031  0  0  0.104856  0  3.899183  0  0  0.054228  0.088551  0  3.869186  0
C  C25  1  0.17176202  0.45807059  0.18837113  1  0  0.125591  0  3.63402  0  0  0.095251  0  3.880889  0  0  0.104846  0  3.899036  0  0  0.05421  0.088539  0  3.869043  0
C  C26  1  0.52091319  0.60846378  0.76694716  1  0  0.069964  0  3.604731  0  0  0.030456  0  3.859283  0  0  0.038651  0  3.875952  0  0  0.062567  0.024616  0  3.848953  0
C  C27  1  0.47908842  0.39153381  0.23305210  1  0  0.06994  0  3.60479  0  0  0.03044  0  3.85934  0  0  0.038634  0  3.876006  0  0  0.062554  0.024599  0  3.849013  0
C  C28  1  0.92099143  0.56731709  0.70246287  1  0  -0.114978  0  3.751664  0  0  -0.120864  0  3.997363  0  0  -0.130149  0  4.019339  0  0  -0.081291  -0.114753  0  3.982936  0
C  C29  1  0.07901018  0.43268050  0.29753561  1  0  -0.114965  0  3.751626  0  0  -0.120862  0  3.99735  0  0  -0.130145  0  4.019328  0  0  -0.081332  -0.114755  0  3.982924  0
C  C30  1  0.60491239  0.64207002  0.65585715  1  0  0.113874  0  3.818459  0  0  0.120963  0  4.072367  0  0  0.11584  0  4.096723  0  0  0.092542  0.12423  0  4.055913  0
C  C31  1  0.39508449  0.35792192  0.34414484  1  0  0.113855  0  3.818583  0  0  0.120942  0  4.072485  0  0  0.115822  0  4.096839  0  0  0.092588  0.124209  0  4.056036  0
C  C32  1  0.80889177  0.61616428  0.62281672  1  0  -0.06353  0  3.681178  0  0  -0.090216  0  3.924094  0  0  -0.084876  0  3.942171  0  0  -0.061433  -0.093666  0  3.911759  0
C  C33  1  0.19110371  0.38382905  0.37717980  1  0  -0.063575  0  3.681406  0  0  -0.090278  0  3.924321  0  0  -0.084939  0  3.942397  0  0  -0.061462  -0.093724  0  3.911985  0
C  C34  1  0.42712788  0.81103739  0.41411501  1  0  0.147383  0  3.818663  0  0  0.153277  0  4.069391  0  0  0.152249  0  4.095596  0  0  0.079674  0.154096  0  4.051512  0
C  C35  1  0.57286759  0.18895596  0.58588463  1  0  0.147292  0  3.818609  0  0  0.153174  0  4.069369  0  0  0.15214  0  4.095581  0  0  0.079607  0.154002  0  4.05148  0
C  C36  1  0.51186715  0.84215738  0.30259154  1  0  -0.117314  0  3.698763  0  0  -0.140488  0  3.949376  0  0  -0.144248  0  3.971845  0  0  -0.080186  -0.137904  0  3.934209  0
C  C37  1  0.48812683  0.15783597  0.69740903  1  0  -0.117294  0  3.698595  0  0  -0.140478  0  3.949197  0  0  -0.144233  0  3.971659  0  0  -0.080187  -0.137897  0  3.934033  0
C  C38  1  0.22448796  0.84368457  0.44843009  1  0  -0.127297  0  3.717515  0  0  -0.149003  0  3.961182  0  0  -0.152433  0  3.984666  0  0  -0.089463  -0.146635  0  3.945153  0
C  C39  1  0.77551072  0.15631446  0.55157164  1  0  -0.127228  0  3.717561  0  0  -0.148968  0  3.961221  0  0  -0.152398  0  3.984705  0  0  -0.089442  -0.146605  0  3.945192  0
C  C40  1  0.39408124  0.90237542  0.22609784  1  0  -0.048657  0  3.728834  0  0  -0.061988  0  3.975354  0  0  -0.064084  0  4.001266  0  0  -0.085324  -0.060495  0  3.957758  0
C  C41  1  0.60591435  0.09762077  0.77390378  1  0  -0.048542  0  3.728838  0  0  -0.061876  0  3.975324  0  0  -0.063972  0  4.001237  0  0  -0.085269  -0.060371  0  3.957718  0
C  C42  1  0.10802410  0.90363846  0.37188489  1  0  -0.073988  0  3.775834  0  0  -0.079984  0  4.014149  0  0  -0.083879  0  4.03985  0  0  -0.090901  -0.077018  0  3.996462  0
C  C43  1  0.89197327  0.09636480  0.62811725  1  0  -0.073921  0  3.775799  0  0  -0.079918  0  4.014133  0  0  -0.083817  0  4.039838  0  0  -0.090922  -0.076951  0  3.996446  0
C  C44  1  0.19266784  0.93302378  0.26068961  1  0  -0.045168  0  3.73195  0  0  -0.057019  0  3.977054  0  0  -0.061266  0  4.002479  0  0  -0.084612  -0.053982  0  3.959792  0
C  C45  1  0.80732929  0.06697383  0.73931246  1  0  -0.045274  0  3.731998  0  0  -0.057157  0  3.977124  0  0  -0.061402  0  4.002545  0  0  -0.084615  -0.05412  0  3.959865  0
N  N46  1  0.32916682  0.70142521  0.97879161  1  0  -0.330824  0  3.358871  0  0  -0.301475  0  3.668927  0  0  -0.316486  0  3.68189  0  0  -0.394564  -0.292657  0  3.658623  0
N  N47  1  0.67084438  0.29858796  0.02120789  1  0  -0.330959  0  3.358879  0  0  -0.301626  0  3.668963  0  0  -0.31664  0  3.681928  0  0  -0.394677  -0.29281  0  3.658664  0
N  N48  1  0.68788504  0.66971548  0.02236444  1  0  -0.325364  0  3.334954  0  0  -0.296866  0  3.643417  0  0  -0.312095  0  3.657478  0  0  -0.390439  -0.287769  0  3.632042  0
N  N49  1  0.31212766  0.33029768  0.97763334  1  0  -0.325431  0  3.335187  0  0  -0.296957  0  3.64369  0  0  -0.312186  0  3.657746  0  0  -0.39053  -0.28786  0  3.632318  0
N  N50  1  0.62974121  0.55760145  0.84378723  1  0  -0.198535  0  3.357744  0  0  -0.146463  0  3.622589  0  0  -0.169384  0  3.644515  0  0  -0.319621  -0.131813  0  3.606817  0
N  N51  1  0.37026367  0.44240324  0.15621395  1  0  -0.198517  0  3.357719  0  0  -0.146459  0  3.622585  0  0  -0.16938  0  3.644512  0  0  -0.31959  -0.131809  0  3.606809  0
N  N52  1  0.47199731  0.69905821  0.58538793  1  0  -0.16098  0  3.004386  0  0  -0.137256  0  3.288722  0  0  -0.136493  0  3.297455  0  0  -0.14951  -0.137518  0  3.282979  0
N  N53  1  0.52800102  0.30093231  0.41461175  1  0  -0.160909  0  3.004463  0  0  -0.137188  0  3.288795  0  0  -0.136426  0  3.297526  0  0  -0.149519  -0.137453  0  3.283058  0
N  N54  1  0.55640450  0.74948293  0.48594725  1  0  -0.141725  0  2.99921  0  0  -0.120002  0  3.284701  0  0  -0.119374  0  3.293178  0  0  -0.142935  -0.120387  0  3.279042  0
N  N55  1  0.44358960  0.25051324  0.51405297  1  0  -0.141733  0  2.999207  0  0  -0.120006  0  3.284689  0  0  -0.119374  0  3.293167  0  0  -0.142914  -0.120392  0  3.27903  0
