# generated using pymatgen
data_Al6H73C95N7O32
_symmetry_space_group_name_H-M   'P 1'
_cell_length_a   12.36835443
_cell_length_b   12.61079587
_cell_length_c   27.82336139
_cell_angle_alpha   89.12427567
_cell_angle_beta   90.45605370
_cell_angle_gamma   120.81433356
_symmetry_Int_Tables_number   1
_chemical_formula_structural   Al6H73C95N7O32
_chemical_formula_sum   'Al6 H73 C95 N7 O32'
_cell_volume   3726.67382631
_cell_formula_units_Z   1
loop_
 _symmetry_equiv_pos_site_id
 _symmetry_equiv_pos_as_xyz
  1  'x, y, z'
loop_
 _atom_site_type_symbol
 _atom_site_label
 _atom_site_symmetry_multiplicity
 _atom_site_fract_x
 _atom_site_fract_y
 _atom_site_fract_z
 _atom_site_occupancy
 _atom_site_pbe_bader_charge
 _atom_site_pbe_bader_spin_density
 _atom_site_pbe_cm5_charge
 _atom_site_pbe_ddec_charge
 _atom_site_pbe_ddec_spin_density
 _atom_site_pbe_ddec_sum_bond_order
 _atom_site_pbe_magmom
Al  Al0  1  0.19778301  0.59962708  0.49290704  1  2.493256  0  0.397002  1.688901  0  2.541804  0
Al  Al1  1  0.93425646  0.59135421  0.49811190  1  2.482872  0  0.505504  1.663255  0  2.504913  0
Al  Al2  1  0.92722387  0.35038965  0.49894052  1  2.480004  0  0.501344  1.661548  0  2.516064  0
Al  Al3  1  0.16803322  0.08112741  0.98669923  1  2.4909  0  0.39591  1.685786  0  2.546099  0
Al  Al4  1  0.42868658  0.33748656  0.98499787  1  2.478404  0  0.502262  1.664769  0  2.50316  0
Al  Al5  1  0.43602925  0.10292254  0.98555747  1  2.481452  0  0.500786  1.661119  0  2.517999  0
H  H6  1  0.62405502  0.50663789  0.22100386  1  0.068541  0  0.100388  0.089829  0  1.00322  0
H  H7  1  0.80752788  0.57099485  0.71818354  1  0.080045  0  0.102637  0.105934  0  1.01679  0
H  H8  1  0.56819348  0.44557887  0.86383661  1  0.088154  0  0.111255  0.122221  0  1.012621  0
H  H9  1  0.62961102  0.17590142  0.71258232  1  0.070605  0  0.101944  0.113494  0  1.039426  0
H  H10  1  0.31405964  0.50425402  0.62167390  1  0.098987  0  0.115658  0.120241  0  0.980056  0
H  H11  1  0.29256597  0.53227868  0.77953090  1  0.121985  0  0.099096  0.095933  0  1.022411  0
H  H12  1  0.35075887  0.51644132  0.86420807  1  0.082778  0  0.103162  0.111639  0  1.002814  0
H  H13  1  0.83811064  0.53319454  0.27089728  1  0.098594  0  0.101847  0.09849  0  1.006785  0
H  H14  1  0.33255370  0.48214430  0.70973095  1  0.062222  0  0.096899  0.087893  0  1.069306  0
H  H15  1  0.07147413  0.13072434  0.86624061  1  0.129769  0  0.114447  0.126143  0  1.023205  0
H  H16  1  0.93142779  0.23673823  0.71894186  1  0.036844  0  0.097816  0.093154  0  1.032454  0
H  H17  1  0.23505518  0.54802253  0.20676820  1  0.06425  0  0.101339  0.097555  0  1.023815  0
H  H18  1  0.91620042  0.25124653  0.63034637  1  0.087017  0  0.106714  0.109251  0  1.025555  0
H  H19  1  0.25540408  0.69013511  0.62413672  1  0.104993  0  0.108577  0.113204  0  1.011173  0
H  H20  1  0.23949014  0.04280854  0.74735226  1  0.046953  0  0.097265  0.096863  0  1.010334  0
H  H21  1  0.27165781  0.11276012  0.83170098  1  0.071329  0  0.09988  0.10445  0  1.019697  0
H  H22  1  0.28324095  0.73012950  0.71226667  1  0.069488  0  0.097832  0.103409  0  1.019911  0
H  H23  1  0.83803451  0.35462913  0.21052303  1  0.071609  0  0.103328  0.098824  0  1.023472  0
H  H24  1  0.21407705  0.76009406  0.87776182  1  0.068142  0  0.108442  0.118454  0  0.990695  0
H  H25  1  0.07580923  0.91777338  0.70033529  1  0.053098  0  0.097046  0.102782  0  1.05781  0
H  H26  1  0.46506574  0.14012245  0.22638033  1  0.075013  0  0.098149  0.095312  0  1.037086  0
H  H27  1  0.97043387  0.18966598  0.20183303  1  0.065505  0  0.100677  0.088659  0  1.004796  0
H  H28  1  0.36683458  0.49412576  0.27799374  1  0.078712  0  0.101056  0.089644  0  0.997328  0
H  H29  1  0.10407473  0.13551309  0.27185089  1  0.123778  0  0.103125  0.098793  0  1.001039  0
H  H30  1  0.00548544  0.39067460  0.25780915  1  0.058364  0  0.09941  0.089485  0  1.017421  0
H  H31  1  0.35060705  0.67930109  0.27424387  1  0.034516  0  0.09917  0.096943  0  1.009816  0
H  H32  1  0.45540918  0.84179166  0.28044981  1  0.045882  0  0.09733  0.092329  0  1.002771  0
H  H33  1  0.49903384  0.75425827  0.24336304  1  0.055898  0  0.107632  0.111555  0  0.977744  0
H  H34  1  0.91391522  0.66026236  0.16294254  1  0.398824  0  0.303766  0.246474  0  0.942142  0
H  H35  1  0.06390010  0.60597732  0.12639423  1  0.066772  0  0.093068  0.097907  0  1.013864  0
H  H36  1  0.90420403  0.48246206  0.13261968  1  0.05328  0  0.102969  0.112302  0  0.997297  0
H  H37  1  0.02002211  0.49855848  0.17507509  1  0.017474  0  0.096243  0.101632  0  1.016788  0
H  H38  1  0.93583856  0.79945196  0.29301708  1  0.424791  0  0.297945  0.239926  0  0.971805  0
H  H39  1  0.32967038  0.29073809  0.22250511  1  0.0715  0  0.099025  0.089004  0  1.020636  0
H  H40  1  0.78875807  0.82288732  0.24487132  1  0.036968  0  0.100048  0.104412  0  0.989641  0
H  H41  1  0.79255386  0.69321497  0.22205632  1  0.000931  0  0.085948  0.075877  0  1.052567  0
H  H42  1  0.87821829  0.84024517  0.19286305  1  0.066366  0  0.102754  0.106694  0  1.005008  0
H  H43  1  0.30103142  0.09271877  0.19075179  1  0.401865  0  0.293211  0.229846  0  0.980976  0
H  H44  1  0.16089981  0.12811928  0.15088290  1  0.121662  0  0.101758  0.117741  0  1.027272  0
H  H45  1  0.03529698  0.01987718  0.18796327  1  0.040234  0  0.096659  0.099968  0  1.019713  0
H  H46  1  0.09358601  0.96877119  0.14027629  1  0.072087  0  0.096561  0.105562  0  1.002997  0
H  H47  1  0.86772352  0.19299888  0.83816047  1  0.056263  0  0.094606  0.093488  0  1.026239  0
H  H48  1  0.71109417  0.06546826  0.82766862  1  0.071207  0  0.096852  0.091003  0  0.991375  0
H  H49  1  0.78953854  0.07561715  0.88351552  1  0.067834  0  0.115674  0.123901  0  0.963742  0
H  H50  1  0.34472506  0.96942376  0.27672000  1  0.093866  0  0.106337  0.119376  0  0.986277  0
H  H51  1  0.58114481  0.54438194  0.79555456  1  0.403576  0  0.299429  0.240294  0  0.950968  0
H  H52  1  0.51245817  0.52632624  0.71408486  1  0.030687  0  0.098463  0.106147  0  0.992043  0
H  H53  1  0.42000893  0.38200883  0.74564344  1  0.022547  0  0.085691  0.087333  0  1.014029  0
H  H54  1  0.54342302  0.40615807  0.70596637  1  0.062438  0  0.099783  0.112827  0  1.024559  0
H  H55  1  0.51511591  0.02867200  0.65750864  1  0.054148  0  0.102316  0.104861  0  0.989061  0
H  H56  1  0.66781758  0.04819196  0.66871249  1  0.036977  0  0.095261  0.087741  0  0.997618  0
H  H57  1  0.58888868  0.98619682  0.61269534  1  0.085344  0  0.118822  0.128533  0  0.957929  0
H  H58  1  0.99762529  0.12256361  0.73890238  1  0.402638  0  0.297849  0.233937  0  1.004585  0
H  H59  1  0.87861273  0.92836169  0.77109648  1  0.023565  0  0.104217  0.109304  0  0.983556  0
H  H60  1  0.88875813  0.98811916  0.82935790  1  0.049323  0  0.103818  0.109491  0  0.993675  0
H  H61  1  0.11785748  0.60387244  0.26082141  1  0.076986  0  0.105531  0.117265  0  1.010646  0
H  H62  1  0.01446522  0.97221730  0.80748400  1  0.065132  0  0.096782  0.107633  0  1.018921  0
H  H63  1  0.16705357  0.61648956  0.82504962  1  0.40581  0  0.299321  0.23831  0  0.958547  0
H  H64  1  0.02494124  0.47717176  0.77290017  1  0.027986  0  0.095098  0.104515  0  1.017415  0
H  H65  1  0.04339474  0.59337874  0.73161898  1  0.074634  0  0.092412  0.102727  0  1.038164  0
H  H66  1  0.95942620  0.57065012  0.78642003  1  0.015506  0  0.087281  0.091203  0  1.003501  0
H  H67  1  0.07909859  0.04839608  0.64121789  1  0.051433  0  0.097659  0.09471  0  0.995089  0
H  H68  1  0.92623859  0.91464787  0.65263885  1  0.053292  0  0.094389  0.087073  0  0.995286  0
H  H69  1  0.96084049  0.99205343  0.59522287  1  0.09086  0  0.118694  0.130731  0  0.958521  0
H  H70  1  0.65088047  0.11326163  0.31305008  1  0.430581  0  0.302799  0.248751  0  0.951452  0
H  H71  1  0.71155937  0.00188222  0.26276632  1  0.011847  0  0.102926  0.107655  0  0.989421  0
H  H72  1  0.84581061  0.58366610  0.62993108  1  0.124555  0  0.111257  0.118053  0  0.999956  0
H  H73  1  0.75570506  0.11664402  0.21708175  1  0.03885  0  0.099524  0.103738  0  0.999105  0
H  H74  1  0.59353101  0.01271604  0.22901755  1  0.034133  0  0.08851  0.087711  0  1.018594  0
H  H75  1  0.46643052  0.31880561  0.28768125  1  0.096522  0  0.105892  0.101693  0  0.98971  0
H  H76  1  0.76167053  0.23758431  0.78308778  1  0.054646  0  0.099645  0.107309  0  1.049543  0
H  H77  1  0.40732384  0.74352128  0.51099674  1  0.576145  0  0.285789  0.372748  0  0.939547  0
H  H78  1  0.96028630  0.03123516  0.97369817  1  0.573464  0  0.287182  0.374904  0  0.936504  0
C  C79  1  0.09702074  0.71774413  0.42309482  1  1.655944  0  0.273478  0.706229  0  4.174012  0
C  C80  1  0.68611269  0.35035692  0.34809043  1  -0.52339  0  -0.013755  -0.001672  0  4.068476  0
C  C81  1  0.13212474  0.22724230  0.25755197  1  -0.042476  0  -0.067984  -0.075102  0  3.612719  0
C  C82  1  0.77001473  0.39074090  0.43689269  1  1.617646  0  0.28199  0.721427  0  4.158936  0
C  C83  1  0.05825396  0.25719537  0.21916955  1  -0.033212  0  -0.070869  -0.079762  0  3.632075  0
C  C84  1  0.22380771  0.32974883  0.09913556  1  0.295328  0  -0.044949  -0.207566  0  3.964201  0
C  C85  1  0.11822977  0.34960317  0.38149506  1  -0.008188  0  -0.043508  -0.203969  0  3.971306  0
C  C86  1  0.25833592  0.31407441  0.23086965  1  -0.02295  0  -0.068861  -0.072808  0  3.629546  0
C  C87  1  0.18501249  0.34430583  0.19096356  1  0.096776  0  0.005737  0.111639  0  3.805364  0
C  C88  1  0.27898224  0.42683918  0.26056536  1  -0.038655  0  -0.073978  -0.086698  0  3.638815  0
C  C89  1  0.15227897  0.34007861  0.28877934  1  0.128037  0  0.008182  0.121799  0  3.788503  0
C  C90  1  0.70922642  0.36246441  0.39104301  1  0.266852  0  -0.045684  -0.217162  0  3.966783  0
C  C91  1  0.20518326  0.45675664  0.22206589  1  -0.012136  0  -0.075797  -0.096242  0  3.637972  0
C  C92  1  0.07856385  0.36983510  0.24899410  1  -0.033642  0  -0.071917  -0.084585  0  3.634236  0
C  C93  1  0.20585537  0.34214365  0.14120001  1  -0.58274  0  -0.022339  -0.031267  0  4.074648  0
C  C94  1  0.09986966  0.38037720  0.42907976  1  1.664703  0  0.279503  0.709606  0  4.16964  0
C  C95  1  0.13330153  0.34184678  0.33872096  1  -0.282171  0  -0.022823  -0.029571  0  4.068597  0
C  C96  1  0.26550210  0.89841755  0.25621395  1  -0.093658  0  -0.081409  -0.210825  0  3.631033  0
C  C97  1  0.26516149  0.79727126  0.22347653  1  0.580506  0  0.087221  0.231805  0  3.780734  0
C  C98  1  0.23044932  0.87344733  0.09176182  1  0.293437  0  -0.050102  -0.230069  0  3.969275  0
C  C99  1  0.10946520  0.75953584  0.37388167  1  -0.166985  0  -0.041307  -0.195123  0  3.95805  0
C  C100  1  0.18755916  0.92279153  0.21810014  1  0.469735  0  0.103919  0.160402  0  3.74754  0
C  C101  1  0.54780415  0.22736753  0.23672828  1  -0.080823  0  -0.081014  -0.160436  0  3.609828  0
C  C102  1  0.19015586  0.81976955  0.18341388  1  0.064355  0  -0.020619  -0.085129  0  3.846186  0
C  C103  1  0.05924807  0.81799668  0.24180536  1  0.467126  0  0.100636  0.081512  0  3.716733  0
C  C104  1  0.13967293  0.79502619  0.28037058  1  0.095713  0  0.004922  0.099872  0  3.853468  0
C  C105  1  0.06029263  0.71682318  0.20820954  1  0.411935  0  0.096372  0.148372  0  3.738041  0
C  C106  1  0.12560375  0.73567082  0.56189162  1  1.564982  0  0.269219  0.659077  0  4.088159  0
C  C107  1  0.13836936  0.69392021  0.24713643  1  -0.062112  0  -0.080545  -0.210135  0  3.615003  0
C  C108  1  0.21428354  0.84322568  0.13430182  1  -0.571105  0  -0.023563  0.011601  0  4.128844  0
C  C109  1  0.11920991  0.77788551  0.33050229  1  -0.109532  0  -0.029604  -0.040592  0  4.086101  0
C  C110  1  0.76090139  0.38876242  0.62095882  1  0.019828  0  -0.025791  -0.166546  0  3.950194  0
C  C111  1  0.79815228  0.49451493  0.64855013  1  -0.056855  0  -0.077459  -0.061897  0  3.98232  0
C  C112  1  0.63742702  0.33244024  0.19976252  1  0.122792  0  0.005059  0.124439  0  3.816048  0
C  C113  1  0.77819898  0.48763820  0.69776315  1  -0.053274  0  -0.096987  -0.152768  0  3.99559  0
C  C114  1  0.71745797  0.37198373  0.72125848  1  0.022363  0  0.001807  0.117562  0  3.996791  0
C  C115  1  0.67989816  0.26530580  0.69435907  1  -0.059366  0  -0.114425  -0.291686  0  3.975914  0
C  C116  1  0.70099009  0.27189565  0.64468943  1  0.505018  0  0.096758  0.255341  0  4.039408  0
C  C117  1  0.71816939  0.28227886  0.80118515  1  -0.046191  0  -0.112751  -0.273287  0  4.005806  0
C  C118  1  0.79807681  0.40813494  0.56961339  1  1.54682  0  0.27337  0.662234  0  4.080867  0
C  C119  1  0.69545933  0.26442413  0.85067873  1  0.5216  0  0.092056  0.24666  0  4.039394  0
C  C120  1  0.61487564  0.40353125  0.84587128  1  0.000362  0  -0.089132  -0.179398  0  3.978755  0
C  C121  1  0.63815450  0.42254146  0.79651370  1  0.397651  0  0.081812  0.159238  0  4.053665  0
C  C122  1  0.69081880  0.35974845  0.77353275  1  0.006556  0  -0.003362  0.01768  0  3.951282  0
C  C123  1  0.66854844  0.24253101  0.26429057  1  0.485008  0  0.098937  0.187932  0  3.762716  0
C  C124  1  0.64073244  0.32553099  0.87356691  1  -0.013067  0  -0.024642  -0.143274  0  3.977198  0
C  C125  1  0.11481080  0.37513735  0.62051943  1  -0.036534  0  -0.016075  -0.046598  0  3.985476  0
C  C126  1  0.23155489  0.44336469  0.64337903  1  -0.013279  0  -0.075606  -0.077174  0  3.977454  0
C  C127  1  0.24098563  0.43145385  0.69259731  1  -0.035372  0  -0.092033  -0.13339  0  3.98049  0
C  C128  1  0.13505421  0.35315811  0.72111279  1  -0.030852  0  -0.004737  0.084712  0  3.995701  0
C  C129  1  0.01712677  0.29027710  0.69782989  1  -0.071216  0  -0.098233  -0.156851  0  4.001958  0
C  C130  1  0.10342923  0.39315579  0.56820740  1  1.548011  0  0.268263  0.632042  0  4.108037  0
C  C131  1  0.00744238  0.29964346  0.64820162  1  0.001113  0  -0.082518  -0.087157  0  3.979743  0
C  C132  1  0.24559887  0.44313351  0.79819654  1  -0.094441  0  -0.095078  -0.118389  0  4.046718  0
C  C133  1  0.27730251  0.43582662  0.84570198  1  -0.003329  0  -0.10821  -0.147218  0  4.042883  0
C  C134  1  0.66671491  0.34122405  0.29802040  1  0.101335  0  0.004459  0.06122  0  3.81007  0
C  C135  1  0.11757265  0.21799106  0.84640449  1  -0.061152  0  -0.095686  -0.21263  0  3.94633  0
C  C136  1  0.08744255  0.22369302  0.79787415  1  0.408457  0  0.098531  0.185269  0  4.066394  0
C  C137  1  0.15321031  0.33999605  0.77297778  1  -0.047083  0  -0.019632  -0.050214  0  3.968113  0
C  C138  1  0.21226118  0.32157671  0.86980178  1  -0.063479  0  -0.018205  -0.021699  0  4.02271  0
C  C139  1  0.15010010  0.77941987  0.61230404  1  0.006612  0  -0.027674  -0.161993  0  3.950194  0
C  C140  1  0.21764025  0.74134474  0.64138799  1  -0.06453  0  -0.082794  -0.071879  0  4.006007  0
C  C141  1  0.23321394  0.76373302  0.69042747  1  -0.009445  0  -0.107185  -0.171363  0  4.019341  0
C  C142  1  0.54835597  0.32647342  0.26967838  1  -0.041242  0  -0.069582  -0.070677  0  3.655269  0
C  C143  1  0.18175615  0.82783566  0.71224838  1  -0.018165  0  -0.003125  0.120065  0  4.018292  0
C  C144  1  0.11629367  0.86886661  0.68334972  1  -0.016028  0  -0.117864  -0.294212  0  3.988341  0
C  C145  1  0.75584112  0.34732101  0.22797248  1  -0.019964  0  -0.072282  -0.135383  0  3.626009  0
C  C146  1  0.10038807  0.84650777  0.63391444  1  0.484469  0  0.094504  0.254746  0  4.041291  0
C  C147  1  0.23034331  0.97930679  0.77626167  1  -0.013501  0  -0.095877  -0.120547  0  4.042664  0
C  C148  1  0.25114988  0.02014082  0.82332900  1  -0.059145  0  -0.104099  -0.140718  0  4.037949  0
C  C149  1  0.22014625  0.82244339  0.84882011  1  0.006659  0  -0.097026  -0.217638  0  3.965609  0
C  C150  1  0.19272619  0.77801384  0.80146657  1  0.398985  0  0.094909  0.191121  0  4.031157  0
C  C151  1  0.19994906  0.85925371  0.76389381  1  -0.037197  0  -0.018414  -0.037395  0  3.945789  0
C  C152  1  0.24633332  0.94038189  0.85998619  1  -0.072517  0  -0.009825  -9e-06  0  4.011038  0
C  C153  1  0.24679039  0.29200156  0.05370262  1  1.659981  0  0.272499  0.705751  0  4.171381  0
C  C154  1  0.63702541  0.43151539  0.23381343  1  -0.017865  0  -0.071214  -0.083077  0  3.641193  0
C  C155  1  0.56438197  0.29387242  0.05682417  1  1.648132  0  0.278886  0.720872  0  4.159266  0
C  C156  1  0.75527408  0.44619117  0.26062929  1  -0.035103  0  -0.067346  -0.066621  0  3.639019  0
C  C157  1  0.25816395  0.93814236  0.04688968  1  1.600582  0  0.272659  0.697841  0  4.191417  0
C  C158  1  0.24793365  0.30280310  0.91909715  1  1.563468  0  0.268747  0.637343  0  4.085996  0
C  C159  1  0.58938403  0.29699154  0.92294914  1  1.531139  0  0.278646  0.666856  0  4.062938  0
C  C160  1  0.26258174  0.98270377  0.91081507  1  1.572318  0  0.272017  0.647796  0  4.0843  0
C  C161  1  0.60658760  0.31610894  0.10584373  1  0.188554  0  -0.047242  -0.216245  0  3.968669  0
C  C162  1  0.42059948  0.76421475  0.25539517  1  0.407264  0  -0.13801  -0.171487  0  3.937001  0
C  C163  1  0.98829355  0.54950608  0.15238581  1  0.249497  0  -0.143475  -0.215978  0  3.953724  0
C  C164  1  0.84916073  0.79359333  0.22805826  1  0.285173  0  -0.142415  -0.210977  0  4.007601  0
C  C165  1  0.12016887  0.03775834  0.16867457  1  0.17075  0  -0.146714  -0.215336  0  3.922501  0
C  C166  1  0.77637012  0.12875306  0.85499489  1  0.37269  0  -0.134626  -0.171274  0  3.922686  0
C  C167  1  0.62226091  0.32497115  0.14929369  1  -0.493488  0  -0.018408  -0.019201  0  4.062509  0
C  C168  1  0.51532863  0.45036141  0.73261762  1  0.265163  0  -0.14629  -0.220103  0  3.981307  0
C  C169  1  0.60551366  0.05208677  0.64106676  1  0.391167  0  -0.129276  -0.169708  0  3.913054  0
C  C170  1  0.94332968  0.99614408  0.79706920  1  0.30872  0  -0.136394  -0.213482  0  3.976679  0
C  C171  1  0.04030363  0.57068707  0.76991203  1  0.270235  0  -0.148312  -0.217017  0  3.959861  0
C  C172  1  0.99980702  0.96508723  0.62524134  1  0.371324  0  -0.131574  -0.170825  0  3.927444  0
C  C173  1  0.68733022  0.06628867  0.24595899  1  0.297828  0  -0.141887  -0.20916  0  3.998596  0
N  N174  1  0.95619459  0.62319946  0.18303142  1  -1.085166  0  -0.46191  -0.328213  0  3.471444  0
N  N175  1  0.95896619  0.83028332  0.25842416  1  -1.164598  0  -0.468427  -0.326176  0  3.535219  0
N  N176  1  0.21128359  0.03908224  0.20322923  1  -1.14327  0  -0.465533  -0.334842  0  3.527723  0
N  N177  1  0.60773224  0.50189388  0.77152038  1  -1.119776  0  -0.466176  -0.331882  0  3.503907  0
N  N178  1  0.99768861  0.11820540  0.77529034  1  -1.195429  0  -0.453731  -0.305273  0  3.637362  0
N  N179  1  0.15937819  0.65529812  0.79384192  1  -1.131782  0  -0.457533  -0.320723  0  3.519243  0
N  N180  1  0.69623890  0.15394458  0.28166623  1  -1.16033  0  -0.469882  -0.353774  0  3.522884  0
O  O181  1  0.18406380  0.48387756  0.44473587  1  -1.216724  0  -0.201559  -0.534051  0  2.286423  0
O  O182  1  0.54738776  0.19517961  0.03771817  1  -1.233517  0  -0.226945  -0.584933  0  2.251664  0
O  O183  1  0.36810703  0.97385760  0.02877910  1  -1.255615  0  -0.245151  -0.606325  0  2.233191  0
O  O184  1  0.18079304  0.69768478  0.43906357  1  -1.21392  0  -0.209057  -0.551746  0  2.273976  0
O  O185  1  0.18322500  0.00877487  0.92614222  1  -1.230839  0  -0.217766  -0.563192  0  2.324621  0
O  O186  1  0.16879312  0.20991034  0.94328013  1  -1.255546  0  -0.224943  -0.585003  0  2.353428  0
O  O187  1  0.36160334  0.38038135  0.93292021  1  -1.266943  0  -0.24736  -0.606706  0  2.260478  0
O  O188  1  0.56066948  0.37140078  0.94197958  1  -1.271981  0  -0.238378  -0.607268  0  2.303638  0
O  O189  1  0.56622907  0.19495572  0.94274697  1  -1.259774  0  -0.230507  -0.595802  0  2.326182  0
O  O190  1  0.35697593  0.99242663  0.93440650  1  -1.26906  0  -0.24662  -0.610331  0  2.266975  0
O  O191  1  0.34599400  0.17506786  0.98580862  1  -1.612079  0  -0.391855  -1.272034  0  2.311788  0
O  O192  1  0.82400479  0.51172965  0.55038819  1  -1.271902  0  -0.238862  -0.603767  0  2.302917  0
O  O193  1  0.99838878  0.70001884  0.44589619  1  -1.260231  0  -0.245009  -0.606664  0  2.23331  0
O  O194  1  0.79773713  0.49319380  0.45601139  1  -1.243475  0  -0.226997  -0.587506  0  2.251033  0
O  O195  1  0.79884665  0.31334265  0.45387688  1  -1.24395  0  -0.228438  -0.58854  0  2.252314  0
O  O196  1  0.99712169  0.30258900  0.45093698  1  -1.258637  0  -0.243048  -0.606484  0  2.237774  0
O  O197  1  0.18809017  0.49150521  0.54860864  1  -1.232836  0  -0.216155  -0.562091  0  2.337215  0
O  O198  1  0.20273046  0.71085615  0.54290121  1  -1.255485  0  -0.228192  -0.596144  0  2.358973  0
O  O199  1  0.02352744  0.71730008  0.54153382  1  -1.263193  0  -0.245343  -0.609301  0  2.306408  0
O  O200  1  0.36789041  0.78635981  0.21298961  1  -1.069635  0  -0.211841  -0.208394  0  2.522114  0
O  O201  1  0.72493336  0.19315178  0.87824696  1  -1.064639  0  -0.176365  -0.13481  0  2.583571  0
O  O202  1  0.66438390  0.17032631  0.61763294  1  -1.062942  0  -0.174767  -0.138649  0  2.587079  0
O  O203  1  0.81107799  0.32655274  0.54812530  1  -1.261519  0  -0.234451  -0.602207  0  2.346426  0
O  O204  1  0.04054586  0.88806444  0.60494967  1  -1.070294  0  -0.175706  -0.137762  0  2.577654  0
O  O205  1  0.00346755  0.30832708  0.54702544  1  -1.280454  0  -0.253691  -0.617006  0  2.280845  0
O  O206  1  0.01840544  0.51309178  0.49637701  1  -1.613053  0  -0.390411  -1.26601  0  2.284357  0
O  O207  1  0.17719956  0.96060867  0.02906130  1  -1.222575  0  -0.207767  -0.546176  0  2.269729  0
O  O208  1  0.17809938  0.17869737  0.04396242  1  -1.214455  0  -0.210552  -0.554705  0  2.277206  0
O  O209  1  0.33759447  0.37482478  0.02761788  1  -1.260556  0  -0.246077  -0.612243  0  2.241903  0
O  O210  1  0.54125614  0.37266205  0.03694365  1  -1.248574  0  -0.232834  -0.593971  0  2.240167  0
O  O211  1  0.36238532  0.67595171  0.48903429  1  -1.37016  0  -0.580782  -0.995302  0  1.801764  0
O  O212  1  0.00307219  0.99205910  0.98766675  1  -1.363837  0  -0.579054  -0.993032  0  1.797998  0
