# generated using pymatgen
data_ZnH18C16Br2(NO)4
_symmetry_space_group_name_H-M   'P 1'
_cell_length_a   7.92161347
_cell_length_b   7.92161709
_cell_length_c   15.99391265
_cell_angle_alpha   84.43895702
_cell_angle_beta   84.43881062
_cell_angle_gamma   80.97716538
_symmetry_Int_Tables_number   1
_chemical_formula_structural   ZnH18C16Br2(NO)4
_chemical_formula_sum   'Zn2 H36 C32 Br4 N8 O8'
_cell_volume   983.15090252
_cell_formula_units_Z   2
loop_
 _symmetry_equiv_pos_site_id
 _symmetry_equiv_pos_as_xyz
  1  'x, y, z'
loop_
 _atom_site_type_symbol
 _atom_site_label
 _atom_site_symmetry_multiplicity
 _atom_site_fract_x
 _atom_site_fract_y
 _atom_site_fract_z
 _atom_site_occupancy
 _atom_site_hle17_bader_spin_density
 _atom_site_hle17_ddec_charge
 _atom_site_hle17_ddec_spin_density
 _atom_site_hle17_ddec_sum_bond_order
 _atom_site_hle17_magmom
 _atom_site_hse06_10hf_bader_spin_density
 _atom_site_hse06_10hf_ddec_charge
 _atom_site_hse06_10hf_ddec_spin_density
 _atom_site_hse06_10hf_ddec_sum_bond_order
 _atom_site_hse06_10hf_magmom
 _atom_site_hse06_bader_spin_density
 _atom_site_hse06_ddec_charge
 _atom_site_hse06_ddec_spin_density
 _atom_site_hse06_ddec_sum_bond_order
 _atom_site_hse06_magmom
 _atom_site_pbe_bader_spin_density
 _atom_site_pbe_cm5_charge
 _atom_site_pbe_ddec_charge
 _atom_site_pbe_ddec_spin_density
 _atom_site_pbe_ddec_sum_bond_order
 _atom_site_pbe_magmom
Zn  Zn0  1  0.56568954  0.43431134  0.25000021  1  0  0.754191  0  2.165062  0  0  0.574987  0  2.650098  0  0  0.615214  0  2.607896  0  0  0.52045  0.547542  0  2.678583  0
Zn  Zn1  1  0.43431230  0.56568790  0.75000065  1  0  0.754135  0  2.165069  0  0  0.574933  0  2.650109  0  0  0.615157  0  2.607906  0  0  0.52044  0.547497  0  2.678577  0
H  H2  1  0.13888106  0.47202909  0.60366063  1  0  0.297461  0  0.919775  0  0  0.274942  0  0.995631  0  0  0.283438  0  0.988302  0  0  0.29183  0.268874  0  1.000876  0
H  H3  1  0.52797329  0.86111524  0.89633902  1  0  0.297526  0  0.91971  0  0  0.274964  0  0.995577  0  0  0.28346  0  0.988249  0  0  0.291856  0.268901  0  1.000814  0
H  H4  1  0.86111438  0.52797015  0.39633744  1  0  0.297504  0  0.919696  0  0  0.274947  0  0.995571  0  0  0.283443  0  0.988242  0  0  0.29183  0.268882  0  1.000812  0
H  H5  1  0.47202890  0.13888143  0.10366134  1  0  0.297477  0  0.919763  0  0  0.274939  0  0.995625  0  0  0.283437  0  0.988295  0  0  0.291829  0.268871  0  1.00087  0
H  H6  1  0.33584352  0.31811225  0.39587244  1  0  0.101786  0  0.990558  0  0  0.103175  0  1.062846  0  0  0.107217  0  1.059066  0  0  0.108958  0.100194  0  1.065677  0
H  H7  1  0.68188939  0.66414937  0.10412843  1  0  0.101827  0  0.990539  0  0  0.103227  0  1.062817  0  0  0.107271  0  1.059034  0  0  0.10898  0.100236  0  1.065655  0
H  H8  1  0.66415180  0.68188833  0.60412932  1  0  0.101804  0  0.990552  0  0  0.103179  0  1.062849  0  0  0.107222  0  1.059067  0  0  0.10896  0.100172  0  1.0657  0
H  H9  1  0.31811171  0.33584603  0.89587267  1  0  0.10178  0  0.990589  0  0  0.103172  0  1.062869  0  0  0.107216  0  1.059088  0  0  0.108961  0.100185  0  1.065699  0
H  H10  1  0.22499253  0.73584334  0.55721573  1  0  0.10548  0  0.951725  0  0  0.117288  0  1.013934  0  0  0.120209  0  1.011814  0  0  0.11167  0.115098  0  1.015618  0
H  H11  1  0.26416450  0.77500407  0.94278310  1  0  0.105477  0  0.951726  0  0  0.117271  0  1.013967  0  0  0.120192  0  1.011845  0  0  0.111666  0.115081  0  1.015646  0
H  H12  1  0.77500565  0.26416359  0.44278304  1  0  0.105486  0  0.95172  0  0  0.117279  0  1.013955  0  0  0.1202  0  1.011835  0  0  0.111682  0.115089  0  1.015639  0
H  H13  1  0.73583877  0.22499387  0.05721713  1  0  0.10545  0  0.95175  0  0  0.117266  0  1.013956  0  0  0.120188  0  1.011834  0  0  0.111659  0.115076  0  1.015638  0
H  H14  1  0.38675811  0.91006144  0.44849463  1  0  0.125148  0  0.944994  0  0  0.134664  0  1.00243  0  0  0.138211  0  1.000692  0  0  0.114045  0.132131  0  1.003782  0
H  H15  1  0.08993687  0.61324646  0.05150363  1  0  0.12514  0  0.944946  0  0  0.134673  0  1.002343  0  0  0.138229  0  1.000606  0  0  0.114032  0.132142  0  1.003697  0
H  H16  1  0.61324877  0.08993771  0.55150347  1  0  0.125164  0  0.944991  0  0  0.134687  0  1.002399  0  0  0.138243  0  1.00066  0  0  0.114048  0.132157  0  1.003752  0
H  H17  1  0.91006369  0.38675277  0.94849668  1  0  0.125158  0  0.944955  0  0  0.134675  0  1.002377  0  0  0.138231  0  1.000638  0  0  0.11404  0.132142  0  1.003733  0
H  H18  1  0.52473211  0.77430795  0.31802316  1  0  0.083005  0  0.945537  0  0  0.089185  0  1.01551  0  0  0.092136  0  1.012608  0  0  0.108234  0.086984  0  1.017719  0
H  H19  1  0.22568616  0.47527284  0.18197764  1  0  0.083014  0  0.945524  0  0  0.089182  0  1.015492  0  0  0.092146  0  1.012575  0  0  0.108252  0.086981  0  1.017704  0
H  H20  1  0.47527171  0.22568613  0.68197725  1  0  0.083022  0  0.945561  0  0  0.089198  0  1.015528  0  0  0.092159  0  1.012615  0  0  0.108263  0.086997  0  1.017739  0
H  H21  1  0.77431261  0.52473028  0.81802443  1  0  0.083048  0  0.945543  0  0  0.089185  0  1.015533  0  0  0.092171  0  1.012595  0  0  0.108262  0.086983  0  1.017741  0
H  H22  1  0.17290027  0.95315461  0.63242728  1  0  0.043822  0  0.953002  0  0  0.053886  0  1.02793  0  0  0.053946  0  1.027245  0  0  0.090592  0.053768  0  1.02846  0
H  H23  1  0.04684919  0.82709894  0.86757179  1  0  0.043821  0  0.952965  0  0  0.053878  0  1.027908  0  0  0.053939  0  1.027221  0  0  0.090581  0.053757  0  1.028446  0
H  H24  1  0.82709955  0.04684975  0.36757217  1  0  0.043886  0  0.952936  0  0  0.053953  0  1.027865  0  0  0.054013  0  1.027181  0  0  0.090612  0.053831  0  1.028401  0
H  H25  1  0.95315407  0.17289898  0.13242719  1  0  0.043833  0  0.952957  0  0  0.053904  0  1.0279  0  0  0.053964  0  1.027214  0  0  0.090602  0.053786  0  1.02843  0
H  H26  1  0.98162881  0.98628375  0.57721675  1  0  0.064221  0  0.956421  0  0  0.073651  0  1.028522  0  0  0.074539  0  1.02753  0  0  0.099252  0.072925  0  1.029358  0
H  H27  1  0.01371885  0.01836985  0.92278255  1  0  0.0643  0  0.956361  0  0  0.073751  0  1.028437  0  0  0.074634  0  1.027452  0  0  0.099285  0.07302  0  1.029268  0
H  H28  1  0.01837027  0.01371676  0.42278231  1  0  0.064275  0  0.956362  0  0  0.073693  0  1.028488  0  0  0.074579  0  1.027497  0  0  0.099273  0.072964  0  1.029324  0
H  H29  1  0.98628569  0.98162806  0.07721699  1  0  0.064257  0  0.956432  0  0  0.073719  0  1.028516  0  0  0.0746  0  1.027536  0  0  0.099282  0.072992  0  1.029348  0
H  H30  1  0.94295412  0.85245972  0.72394327  1  0  0.074866  0  0.955294  0  0  0.089764  0  1.021817  0  0  0.090308  0  1.02219  0  0  0.081797  0.089304  0  1.021678  0
H  H31  1  0.14753967  0.05704798  0.77605534  1  0  0.074864  0  0.955304  0  0  0.089765  0  1.02182  0  0  0.09031  0  1.022193  0  0  0.081793  0.089304  0  1.021678  0
H  H32  1  0.05704787  0.14753820  0.27605578  1  0  0.074882  0  0.955306  0  0  0.089777  0  1.021811  0  0  0.090324  0  1.022175  0  0  0.081805  0.089317  0  1.021675  0
H  H33  1  0.85246196  0.94295251  0.22394359  1  0  0.074864  0  0.955308  0  0  0.08976  0  1.021825  0  0  0.090305  0  1.022198  0  0  0.081802  0.0893  0  1.021678  0
H  H34  1  0.80263877  0.04529284  0.70808101  1  0  0.070685  0  0.951619  0  0  0.084953  0  1.016592  0  0  0.085664  0  1.017259  0  0  0.081245  0.084423  0  1.016195  0
H  H35  1  0.95470575  0.19736068  0.79191925  1  0  0.070674  0  0.951636  0  0  0.084943  0  1.016606  0  0  0.085655  0  1.017274  0  0  0.081236  0.084411  0  1.016207  0
H  H36  1  0.19736051  0.95470640  0.29191936  1  0  0.070684  0  0.951622  0  0  0.084947  0  1.016583  0  0  0.085656  0  1.017253  0  0  0.081236  0.084427  0  1.016176  0
H  H37  1  0.04529480  0.80263854  0.20808043  1  0  0.070652  0  0.951644  0  0  0.084919  0  1.016617  0  0  0.08563  0  1.017285  0  0  0.081235  0.084399  0  1.016206  0
C  C38  1  0.34390720  0.44788482  0.41013561  1  0  0.017702  0  3.641906  0  0  -0.020204  0  3.890633  0  0  -0.0161  0  3.9069  0  0  0.034692  -0.022733  0  3.87964  0
C  C39  1  0.55211897  0.65609079  0.08986370  1  0  0.017724  0  3.641782  0  0  -0.0202  0  3.890529  0  0  -0.016098  0  3.906798  0  0  0.034696  -0.022718  0  3.87954  0
C  C40  1  0.65608918  0.55211700  0.58986415  1  0  0.017805  0  3.641706  0  0  -0.020106  0  3.890451  0  0  -0.016002  0  3.906717  0  0  0.034719  -0.022614  0  3.879472  0
C  C41  1  0.44788395  0.34390972  0.91013704  1  0  0.017678  0  3.641794  0  0  -0.020228  0  3.890575  0  0  -0.016122  0  3.906832  0  0  0.034687  -0.022745  0  3.879584  0
C  C42  1  0.26657022  0.51283942  0.48561869  1  0  0.23299  0  3.787837  0  0  0.228835  0  4.037232  0  0  0.233632  0  4.059505  0  0  0.107414  0.225162  0  4.022293  0
C  C43  1  0.48716425  0.73342758  0.01438135  1  0  0.232994  0  3.787895  0  0  0.228777  0  4.037282  0  0  0.233571  0  4.059553  0  0  0.107455  0.225098  0  4.022351  0
C  C44  1  0.73342324  0.48716497  0.51437984  1  0  0.232875  0  3.787988  0  0  0.228705  0  4.03732  0  0  0.233499  0  4.059593  0  0  0.107471  0.225031  0  4.022379  0
C  C45  1  0.51283614  0.26657296  0.98562014  1  0  0.233108  0  3.787767  0  0  0.228896  0  4.037201  0  0  0.233696  0  4.059469  0  0  0.107505  0.225216  0  4.022268  0
C  C46  1  0.28384265  0.68162474  0.49936009  1  0  -0.098291  0  3.657415  0  0  -0.124548  0  3.9094  0  0  -0.124198  0  3.926763  0  0  -0.068509  -0.124516  0  3.897757  0
C  C47  1  0.31837449  0.71615564  0.00064025  1  0  -0.098222  0  3.657334  0  0  -0.12449  0  3.909333  0  0  -0.124138  0  3.926695  0  0  -0.068501  -0.124454  0  3.897682  0
C  C48  1  0.71615663  0.31837450  0.50063965  1  0  -0.098268  0  3.65736  0  0  -0.124536  0  3.909343  0  0  -0.124186  0  3.926708  0  0  -0.068549  -0.124502  0  3.897702  0
C  C49  1  0.68162736  0.28384361  0.99936124  1  0  -0.098272  0  3.657337  0  0  -0.124543  0  3.909333  0  0  -0.124192  0  3.926692  0  0  -0.068527  -0.124511  0  3.897691  0
C  C50  1  0.37520891  0.77814720  0.43927369  1  0  -0.082344  0  3.718777  0  0  -0.097014  0  3.975631  0  0  -0.101406  0  3.995054  0  0  -0.076368  -0.094254  0  3.9626  0
C  C51  1  0.22185680  0.62478977  0.06072888  1  0  -0.082392  0  3.718998  0  0  -0.097048  0  3.975802  0  0  -0.101452  0  3.995238  0  0  -0.076342  -0.094289  0  3.962774  0
C  C52  1  0.62478748  0.22185464  0.56072732  1  0  -0.082392  0  3.718973  0  0  -0.097043  0  3.975792  0  0  -0.10145  0  3.995232  0  0  -0.076372  -0.094289  0  3.962771  0
C  C53  1  0.77814577  0.37521331  0.93927236  1  0  -0.082426  0  3.719045  0  0  -0.097085  0  3.975855  0  0  -0.101489  0  3.995296  0  0  -0.076409  -0.094327  0  3.962827  0
C  C54  1  0.45003309  0.70447478  0.36651181  1  0  0.10495  0  3.693965  0  0  0.066278  0  3.95342  0  0  0.073149  0  3.970082  0  0  0.033011  0.061497  0  3.942749  0
C  C55  1  0.29552220  0.54997071  0.13348702  1  0  0.105005  0  3.694156  0  0  0.06635  0  3.953588  0  0  0.073206  0  3.970256  0  0  0.033002  0.061562  0  3.942932  0
C  C56  1  0.54997034  0.29552185  0.63348660  1  0  0.104935  0  3.694163  0  0  0.066254  0  3.95363  0  0  0.073119  0  3.970288  0  0  0.032978  0.061474  0  3.942966  0
C  C57  1  0.70447529  0.45003241  0.86651449  1  0  0.104897  0  3.694278  0  0  0.066284  0  3.953694  0  0  0.073118  0  3.970359  0  0  0.033026  0.061508  0  3.943033  0
C  C58  1  0.15103745  0.25116985  0.54631940  1  0  0.750597  0  3.873211  0  0  0.679846  0  4.184193  0  0  0.71742  0  4.173983  0  0  0.321312  0.654329  0  4.190408  0
C  C59  1  0.74883058  0.84896153  0.95367819  1  0  0.750563  0  3.873026  0  0  0.679694  0  4.184067  0  0  0.717267  0  4.173858  0  0  0.321264  0.654166  0  4.1903  0
C  C60  1  0.84896068  0.74882806  0.45367672  1  0  0.750513  0  3.873248  0  0  0.679656  0  4.184272  0  0  0.71723  0  4.174067  0  0  0.321261  0.654132  0  4.190494  0
C  C61  1  0.25117305  0.15103383  0.04632153  1  0  0.750435  0  3.873283  0  0  0.679732  0  4.184178  0  0  0.717308  0  4.173967  0  0  0.321248  0.654216  0  4.190391  0
C  C62  1  0.04173455  0.02337211  0.63031153  1  0  0.105853  0  3.592193  0  0  0.039433  0  3.87017  0  0  0.048256  0  3.874895  0  0  -0.072372  0.033602  0  3.866727  0
C  C63  1  0.97663121  0.95826470  0.86968770  1  0  0.105844  0  3.592143  0  0  0.039374  0  3.870123  0  0  0.048201  0  3.874852  0  0  -0.072375  0.033551  0  3.866671  0
C  C64  1  0.95826417  0.97663096  0.36968680  1  0  0.105825  0  3.592152  0  0  0.039338  0  3.870154  0  0  0.048161  0  3.874877  0  0  -0.072378  0.033515  0  3.86671  0
C  C65  1  0.02337206  0.04173323  0.13031191  1  0  0.105799  0  3.59215  0  0  0.039289  0  3.870207  0  0  0.048115  0  3.87494  0  0  -0.072466  0.033457  0  3.866759  0
C  C66  1  0.93822745  0.99243555  0.71304844  1  0  -0.134352  0  3.69357  0  0  -0.171885  0  3.947974  0  0  -0.173454  0  3.961044  0  0  -0.17594  -0.170701  0  3.939009  0
C  C67  1  0.00756474  0.06177333  0.78695153  1  0  -0.134332  0  3.693565  0  0  -0.171868  0  3.947982  0  0  -0.173443  0  3.961058  0  0  -0.175931  -0.170681  0  3.939005  0
C  C68  1  0.06177309  0.00756367  0.28695061  1  0  -0.134423  0  3.693644  0  0  -0.171907  0  3.947986  0  0  -0.173476  0  3.961064  0  0  -0.175951  -0.170739  0  3.939015  0
C  C69  1  0.99243707  0.93822589  0.21304808  1  0  -0.134258  0  3.69355  0  0  -0.171786  0  3.947959  0  0  -0.173358  0  3.961031  0  0  -0.175903  -0.170597  0  3.938965  0
Br  Br70  1  0.52062670  0.14218397  0.25397766  1  0  -0.504731  0  0.975296  0  0  -0.441392  0  1.26582  0  0  -0.457084  0  1.240678  0  0  -0.242939  -0.430179  0  1.28303  0
Br  Br71  1  0.85781552  0.47937401  0.24602456  1  0  -0.50473  0  0.975319  0  0  -0.441401  0  1.265858  0  0  -0.45709  0  1.240716  0  0  -0.242938  -0.430187  0  1.283067  0
Br  Br72  1  0.47937240  0.85781656  0.74602265  1  0  -0.504729  0  0.975313  0  0  -0.441394  0  1.265837  0  0  -0.457084  0  1.240696  0  0  -0.242941  -0.430186  0  1.283033  0
Br  Br73  1  0.14218453  0.52062912  0.75397807  1  0  -0.504718  0  0.975303  0  0  -0.441378  0  1.265818  0  0  -0.457068  0  1.24068  0  0  -0.242942  -0.430171  0  1.283022  0
N  N74  1  0.43384073  0.54267162  0.35317536  1  0  -0.297478  0  3.384994  0  0  -0.206189  0  3.654026  0  0  -0.22473  0  3.672595  0  0  -0.337398  -0.193659  0  3.641227  0
N  N75  1  0.45732413  0.56615719  0.14682625  1  0  -0.297544  0  3.384899  0  0  -0.206256  0  3.653943  0  0  -0.224797  0  3.672512  0  0  -0.337418  -0.193717  0  3.641136  0
N  N76  1  0.56615801  0.45732250  0.64682530  1  0  -0.297439  0  3.384848  0  0  -0.206149  0  3.653885  0  0  -0.224691  0  3.672453  0  0  -0.337374  -0.193613  0  3.64107  0
N  N77  1  0.54267500  0.43384336  0.85317594  1  0  -0.297383  0  3.384943  0  0  -0.206116  0  3.653982  0  0  -0.224655  0  3.672558  0  0  -0.337401  -0.193597  0  3.641192  0
N  N78  1  0.17558408  0.41913074  0.54727907  1  0  -0.497876  0  3.367931  0  0  -0.446221  0  3.613215  0  0  -0.469527  0  3.621025  0  0  -0.406014  -0.430029  0  3.60757  0
N  N79  1  0.58087693  0.82441044  0.95272284  1  0  -0.497994  0  3.368194  0  0  -0.446146  0  3.613347  0  0  -0.469444  0  3.621151  0  0  -0.406081  -0.429959  0  3.607709  0
N  N80  1  0.82440778  0.58087627  0.45272191  1  0  -0.4979  0  3.368334  0  0  -0.446098  0  3.613493  0  0  -0.469398  0  3.621304  0  0  -0.406029  -0.429909  0  3.607851  0
N  N81  1  0.41912635  0.17558751  0.04727801  1  0  -0.497888  0  3.368234  0  0  -0.44617  0  3.613435  0  0  -0.469476  0  3.621248  0  0  -0.406044  -0.429979  0  3.607793  0
O  O82  1  0.20592485  0.15675001  0.48994603  1  0  -0.584161  0  1.943847  0  0  -0.534385  0  2.160148  0  0  -0.556018  0  2.151763  0  0  -0.288943  -0.51945  0  2.165489  0
O  O83  1  0.84325720  0.79406833  0.01005576  1  0  -0.584175  0  1.943423  0  0  -0.534416  0  2.159795  0  0  -0.556048  0  2.151403  0  0  -0.288949  -0.519474  0  2.165139  0
O  O84  1  0.79406592  0.84325572  0.51005507  1  0  -0.584159  0  1.943542  0  0  -0.534378  0  2.159875  0  0  -0.556009  0  2.151482  0  0  -0.288945  -0.519434  0  2.16521  0
O  O85  1  0.15674752  0.20592831  0.98994446  1  0  -0.584153  0  1.943593  0  0  -0.53439  0  2.159848  0  0  -0.556033  0  2.151478  0  0  -0.288942  -0.519452  0  2.165184  0
O  O86  1  0.05634610  0.20568040  0.61721776  1  0  -0.356407  0  2.259997  0  0  -0.281542  0  2.499814  0  0  -0.303201  0  2.499411  0  0  -0.175795  -0.266526  0  2.499623  0
O  O87  1  0.79432208  0.94365242  0.88278227  1  0  -0.356465  0  2.260076  0  0  -0.281503  0  2.499873  0  0  -0.303163  0  2.49947  0  0  -0.175781  -0.266486  0  2.499682  0
O  O88  1  0.94365025  0.79432140  0.38278075  1  0  -0.356493  0  2.260132  0  0  -0.28151  0  2.499915  0  0  -0.303169  0  2.499515  0  0  -0.175823  -0.266494  0  2.499725  0
O  O89  1  0.20567994  0.05634553  0.11721864  1  0  -0.356369  0  2.26011  0  0  -0.281498  0  2.49993  0  0  -0.303155  0  2.499525  0  0  -0.175729  -0.266488  0  2.499747  0
