# generated using pymatgen
data_Zn2H3C12S2NO9
_symmetry_space_group_name_H-M   'P 1'
_cell_length_a   19.62587408
_cell_length_b   19.60896007
_cell_length_c   33.35689875
_cell_angle_alpha   79.18354151
_cell_angle_beta   79.16314546
_cell_angle_gamma   63.84861367
_symmetry_Int_Tables_number   1
_chemical_formula_structural   Zn2H3C12S2NO9
_chemical_formula_sum   'Zn16 H24 C96 S16 N8 O72'
_cell_volume   11237.32315382
_cell_formula_units_Z   8
loop_
 _symmetry_equiv_pos_site_id
 _symmetry_equiv_pos_as_xyz
  1  'x, y, z'
loop_
 _atom_site_type_symbol
 _atom_site_label
 _atom_site_symmetry_multiplicity
 _atom_site_fract_x
 _atom_site_fract_y
 _atom_site_fract_z
 _atom_site_occupancy
 _atom_site_pbe_bader_charge
 _atom_site_pbe_bader_spin_density
 _atom_site_pbe_cm5_charge
 _atom_site_pbe_ddec_charge
 _atom_site_pbe_ddec_spin_density
 _atom_site_pbe_ddec_sum_bond_order
 _atom_site_pbe_magmom
Zn  Zn0  1  0.05380685  0.40034785  0.47812224  1  1.321159  0  0.676616  0.976429  0  2.331336  0
Zn  Zn1  1  0.98845732  0.48258695  0.56028986  1  1.33203  0  0.69492  0.995982  0  2.333619  0
Zn  Zn2  1  0.05659659  0.56432606  0.48170970  1  1.319434  0  0.680534  0.977703  0  2.334648  0
Zn  Zn3  1  0.90126768  0.55542962  0.47904134  1  1.318441  0  0.679467  0.971423  0  2.355117  0
Zn  Zn4  1  0.69250265  0.35072014  0.27136156  1  1.318174  0  0.674554  0.970397  0  2.352775  0
Zn  Zn5  1  0.68685524  0.19201779  0.26535348  1  1.317087  0  0.676029  0.969459  0  2.373949  0
Zn  Zn6  1  0.77133366  0.26424041  0.18991286  1  1.31888  0  0.679812  0.976613  0  2.331104  0
Zn  Zn7  1  0.84655669  0.19703638  0.27303716  1  1.323596  0  0.680582  0.971422  0  2.361704  0
Zn  Zn8  1  0.26956220  0.76531163  0.68894994  1  1.306443  0  0.672952  0.960221  0  2.381186  0
Zn  Zn9  1  0.35161197  0.69483021  0.77050199  1  1.326715  0  0.685056  0.981838  0  2.349785  0
Zn  Zn10  1  0.19471679  0.84648559  0.77121901  1  1.31135  0  0.671578  0.963408  0  2.361157  0
Zn  Zn11  1  0.19233621  0.68629625  0.76486287  1  1.3198  0  0.682904  0.981511  0  2.325282  0
Zn  Zn12  1  0.56160087  0.05956639  0.98208199  1  1.31321  0  0.674062  0.965734  0  2.370064  0
Zn  Zn13  1  0.40158963  0.05443622  0.97809061  1  1.316263  0  0.673264  0.963116  0  2.366324  0
Zn  Zn14  1  0.55577662  0.90016599  0.97746426  1  1.316798  0  0.674138  0.96653  0  2.371722  0
Zn  Zn15  1  0.48625335  0.98273906  0.05989686  1  1.321435  0  0.67302  0.966006  0  2.36516  0
H  H16  1  0.95209784  0.25269158  0.34912924  1  0.105881  0  0.108667  0.120224  0  0.99556  0
H  H17  1  0.73977949  0.45581785  0.35359493  1  0.127525  0  0.117716  0.142924  0  0.977151  0
H  H18  1  0.99934756  0.30212904  0.39714777  1  0.047209  0  0.109612  0.11458  0  0.98818  0
H  H19  1  0.09549031  0.60060757  0.69797023  1  0.072153  0  0.110523  0.122169  0  0.992002  0
H  H20  1  0.21617297  0.69018208  0.59625652  1  0.080316  0  0.115143  0.139638  0  0.981238  0
H  H21  1  0.04528564  0.55816237  0.64812936  1  0.115808  0  0.115092  0.124282  0  0.979047  0
H  H22  1  0.46195575  0.23945180  0.34230858  1  0.128746  0  0.12478  0.151321  0  0.965227  0
H  H23  1  0.48437707  0.70212461  0.60036491  1  0.129536  0  0.123973  0.149883  0  0.966949  0
H  H24  1  0.20487644  0.97859883  0.60183787  1  0.123162  0  0.12418  0.15101  0  0.966778  0
H  H25  1  0.95032371  0.96670221  0.34231781  1  0.137678  0  0.127826  0.155994  0  0.961069  0
H  H26  1  0.55380691  0.04935214  0.15107110  1  0.10939  0  0.10652  0.117237  0  0.999825  0
H  H27  1  0.64796103  0.16031643  0.04644372  1  0.144659  0  0.117701  0.143574  0  0.976281  0
H  H28  1  0.59920671  0.10270559  0.19796069  1  0.112065  0  0.109098  0.114968  0  0.989734  0
H  H29  1  0.54620184  0.76849316  0.14779713  1  0.130069  0  0.124771  0.151079  0  0.966074  0
H  H30  1  0.16308656  0.14088137  0.04215305  1  0.133826  0  0.125515  0.151982  0  0.964682  0
H  H31  1  0.49940630  0.79005273  0.90212126  1  0.123882  0  0.109711  0.12132  0  0.994702  0
H  H32  1  0.29712741  0.00316755  0.89853948  1  0.128757  0  0.115432  0.140019  0  0.98122  0
H  H33  1  0.44954339  0.74422118  0.85367643  1  0.118477  0  0.113987  0.1224  0  0.980831  0
H  H34  1  0.29737576  0.28371159  0.90374125  1  0.103531  0  0.124741  0.150713  0  0.965571  0
H  H35  1  0.78744160  0.00905895  0.90661208  1  0.118781  0  0.125478  0.151984  0  0.963433  0
H  H36  1  0.80046660  0.52598220  0.42372229  1  0.63164  0  0.31027  0.359086  0  0.957227  0
H  H37  1  0.15437084  0.62513968  0.52422918  1  0.651893  0  0.309882  0.361078  0  0.950651  0
H  H38  1  0.71262726  0.23874332  0.11033173  1  0.639636  0  0.311315  0.362183  0  0.949037  0
H  H39  1  0.22464142  0.94267474  0.82943279  1  0.648973  0  0.308636  0.358234  0  0.961693  0
C  C40  1  0.06441408  0.31681364  0.56047846  1  1.607163  0  0.221339  0.618335  0  4.213698  0
C  C41  1  0.07294118  0.57200309  0.56668961  1  1.481261  0  0.229036  0.618196  0  4.146221  0
C  C42  1  0.17836701  0.44100139  0.43751119  1  1.619935  0  0.223167  0.621089  0  4.205801  0
C  C43  1  0.93544193  0.68484193  0.43864361  1  1.619487  0  0.222533  0.618854  0  4.209406  0
C  C44  1  0.92614283  0.43154117  0.43134701  1  1.511286  0  0.228262  0.620762  0  4.145051  0
C  C45  1  0.82208989  0.55907847  0.56178131  1  1.612048  0  0.223923  0.619369  0  4.207074  0
C  C46  1  0.56507638  0.31080615  0.31258507  1  1.59884  0  0.22182  0.614735  0  4.213706  0
C  C47  1  0.67540627  0.18970377  0.17781543  1  1.491073  0  0.227225  0.61843  0  4.150375  0
C  C48  1  0.69330599  0.43077053  0.18832101  1  1.61891  0  0.22126  0.619152  0  4.208969  0
C  C49  1  0.93541524  0.18404902  0.19126330  1  1.601971  0  0.221854  0.618083  0  4.211198  0
C  C50  1  0.81472646  0.32278128  0.31995014  1  1.549317  0  0.233892  0.611441  0  4.149081  0
C  C51  1  0.81121870  0.06492647  0.30740316  1  1.612085  0  0.221628  0.613829  0  4.211492  0
C  C52  1  0.43686616  0.69072712  0.68743457  1  1.567684  0  0.220738  0.612569  0  4.215404  0
C  C53  1  0.31951942  0.81855857  0.81998228  1  1.512071  0  0.22896  0.61768  0  4.150703  0
C  C54  1  0.18853583  0.93344433  0.68867669  1  1.573949  0  0.221208  0.613188  0  4.213382  0
C  C55  1  0.06761730  0.80877833  0.80884216  1  1.619658  0  0.221515  0.617979  0  4.212039  0
C  C56  1  0.18786470  0.67518839  0.67900517  1  1.540482  0  0.232634  0.608739  0  4.148178  0
C  C57  1  0.31067410  0.56930279  0.81199588  1  1.616441  0  0.223339  0.618009  0  4.213266  0
C  C58  1  0.43735898  0.18402079  0.93816754  1  1.598238  0  0.220532  0.612023  0  4.214324  0
C  C59  1  0.42976335  0.92802193  0.93172835  1  1.552983  0  0.231506  0.607155  0  4.151178  0
C  C60  1  0.68463194  0.93785033  0.93707634  1  1.573063  0  0.220669  0.613718  0  4.214367  0
C  C61  1  0.56347740  0.81496053  0.06096828  1  1.580088  0  0.220038  0.610303  0  4.21771  0
C  C62  1  0.57189320  0.07011109  0.06774705  1  1.559884  0  0.231356  0.606261  0  4.153729  0
C  C63  1  0.31776620  0.06215921  0.06189082  1  1.585542  0  0.220437  0.613076  0  4.214896  0
C  C64  1  0.89628154  0.40513404  0.40289526  1  -0.051616  0  -0.035856  -0.19362  0  3.978378  0
C  C65  1  0.84319461  0.35168309  0.34864746  1  -0.063312  0  -0.010843  -0.0051  0  3.997602  0
C  C66  1  0.82180384  0.44912154  0.39072945  1  0.553678  0  0.099145  0.321772  0  4.049265  0
C  C67  1  0.91675258  0.30739563  0.36084166  1  0.026801  0  -0.097347  -0.134661  0  4.001618  0
C  C68  1  0.79649510  0.42178479  0.36317681  1  0.046916  0  -0.089663  -0.209936  0  3.906229  0
C  C69  1  0.94255670  0.33470512  0.38739174  1  0.004186  0  -0.080054  -0.060125  0  4.005796  0
C  C70  1  0.10368566  0.59837868  0.59465395  1  -0.030329  0  -0.035176  -0.191878  0  3.976771  0
C  C71  1  0.15863181  0.64801437  0.64981644  1  -0.078941  0  -0.010569  -0.004726  0  3.994018  0
C  C72  1  0.15306131  0.63551735  0.57963619  1  0.563887  0  0.098681  0.321791  0  4.051556  0
C  C73  1  0.11069769  0.61020535  0.66497598  1  0.008808  0  -0.094005  -0.130522  0  3.994145  0
C  C74  1  0.17918102  0.66086843  0.60774092  1  0.086347  0  -0.091505  -0.211874  0  3.909878  0
C  C75  1  0.08334020  0.58655210  0.63740415  1  -0.007156  0  -0.076326  -0.05765  0  3.986277  0
C  C76  1  0.30410673  0.45447330  0.40342158  1  0.294343  0  0.07974  0.030984  0  3.932679  0
C  C77  1  0.44523096  0.29640659  0.35031368  1  0.111208  0  -0.085387  -0.131426  0  3.956368  0
C  C78  1  0.25679304  0.41627834  0.41564859  1  -0.108629  0  -0.007922  -0.153051  0  3.907393  0
C  C79  1  0.49029733  0.33624667  0.33806733  1  -0.18281  0  -0.020834  -0.116539  0  3.964913  0
C  C80  1  0.37687563  0.34033941  0.37378642  1  -0.192089  0  -0.018021  -0.002815  0  4.064973  0
C  C81  1  0.37191271  0.41228217  0.37883510  1  -0.149971  0  -0.016139  -0.069374  0  4.078043  0
C  C82  1  0.73052401  0.57887137  0.63083900  1  0.369058  0  0.08022  0.033061  0  3.929447  0
C  C83  1  0.52856055  0.67369834  0.62081746  1  0.022808  0  -0.086733  -0.132744  0  3.961817  0
C  C84  1  0.74833094  0.58689365  0.58824246  1  -0.087101  0  -0.007969  -0.155035  0  3.912911  0
C  C85  1  0.51269676  0.66476290  0.66316405  1  -0.167903  0  -0.02097  -0.117887  0  3.970201  0
C  C86  1  0.60832478  0.64130505  0.60916656  1  -0.117946  0  -0.018139  -0.003801  0  4.068905  0
C  C87  1  0.65082825  0.60848863  0.64299960  1  -0.224817  0  -0.014906  -0.069556  0  4.079126  0
C  C88  1  0.07180963  0.22633812  0.62933661  1  0.334422  0  0.080098  0.031718  0  3.935245  0
C  C89  1  0.17460744  0.02365310  0.62171278  1  0.016651  0  -0.086496  -0.132934  0  3.960675  0
C  C90  1  0.08316851  0.24284325  0.58679578  1  -0.160109  0  -0.007776  -0.151388  0  3.913477  0
C  C91  1  0.16292110  0.00909242  0.66405321  1  -0.131458  0  -0.020439  -0.116446  0  3.966778  0
C  C92  1  0.14191032  0.10321806  0.60928809  1  -0.142339  0  -0.017956  -0.003036  0  4.068403  0
C  C93  1  0.10630803  0.14701253  0.64250436  1  -0.121616  0  -0.015303  -0.067167  0  4.074905  0
C  C94  1  0.83735208  0.80507341  0.39843521  1  0.303838  0  0.079024  0.028944  0  3.937356  0
C  C95  1  0.90454525  0.94782552  0.34801736  1  0.069389  0  -0.082904  -0.127566  0  3.947529  0
C  C96  1  0.90649978  0.76133139  0.41462086  1  -0.105712  0  -0.006613  -0.150509  0  3.907549  0
C  C97  1  0.83525727  0.98985485  0.33250679  1  -0.194336  0  -0.020869  -0.116792  0  3.965393  0
C  C98  1  0.90544924  0.87959160  0.37149932  1  -0.175075  0  -0.016758  -0.004257  0  4.063858  0
C  C99  1  0.83686124  0.87175204  0.37317099  1  -0.130498  0  -0.016436  -0.068204  0  4.080929  0
C  C100  1  0.64861102  0.16110321  0.14890276  1  0.002634  0  -0.036676  -0.193156  0  3.978861  0
C  C101  1  0.59862853  0.10167111  0.09603151  1  -0.023379  0  -0.010289  -0.00479  0  3.994189  0
C  C102  1  0.66256848  0.17791004  0.10558604  1  0.524282  0  0.100704  0.323547  0  4.048995  0
C  C103  1  0.58421975  0.08511560  0.13892295  1  -0.039321  0  -0.098321  -0.134466  0  4.007895  0
C  C104  1  0.63715667  0.14751793  0.07959352  1  0.000553  0  -0.089744  -0.209082  0  3.900381  0
C  C105  1  0.60920212  0.11473688  0.16468776  1  -0.049173  0  -0.081703  -0.063397  0  4.008293  0
C  C106  1  0.67454860  0.52130213  0.11877521  1  0.238233  0  0.078357  0.030256  0  3.936119  0
C  C107  1  0.57654421  0.72385087  0.12766977  1  0.013977  0  -0.086765  -0.132377  0  3.959626  0
C  C108  1  0.66483192  0.50413495  0.16138362  1  -0.086674  0  -0.00826  -0.154876  0  3.912603  0
C  C109  1  0.58831401  0.73911395  0.08539899  1  -0.159346  0  -0.019752  -0.115403  0  3.966238  0
C  C110  1  0.60920289  0.64412672  0.13967306  1  -0.167839  0  -0.017739  -0.003567  0  4.068777  0
C  C111  1  0.64455489  0.60099078  0.10618811  1  -0.066679  0  -0.015722  -0.069807  0  4.079433  0
C  C112  1  0.08498577  0.11572325  0.17980904  1  0.343685  0  0.078685  0.029314  0  3.936509  0
C  C113  1  0.17163089  0.12378685  0.07442098  1  0.0025  0  -0.085118  -0.130085  0  3.955409  0
C  C114  1  0.01203450  0.15446350  0.16737168  1  -0.115938  0  -0.007851  -0.153829  0  3.907171  0
C  C115  1  0.24322448  0.08581318  0.08768787  1  -0.146901  0  -0.0202  -0.115626  0  3.963072  0
C  C116  1  0.11406669  0.13582965  0.10831828  1  -0.120475  0  -0.017357  -0.004882  0  4.064155  0
C  C117  1  0.14345031  0.10635713  0.14644193  1  -0.172658  0  -0.016271  -0.067552  0  4.077321  0
C  C118  1  0.34634641  0.84744928  0.84874320  1  0.0426  0  -0.035335  -0.192047  0  3.978626  0
C  C119  1  0.40086374  0.89936629  0.90308983  1  -0.133065  0  -0.011993  -0.006217  0  3.995005  0
C  C120  1  0.30250904  0.92153447  0.86152020  1  0.505513  0  0.097397  0.320194  0  4.053763  0
C  C121  1  0.44466498  0.82590086  0.89061182  1  0.033215  0  -0.095429  -0.132637  0  3.996603  0
C  C122  1  0.33064786  0.94645625  0.88880836  1  0.062819  0  -0.091952  -0.211661  0  3.911582  0
C  C123  1  0.41708652  0.80079013  0.86381313  1  -0.089639  0  -0.076343  -0.057154  0  3.989801  0
C  C124  1  0.40404011  0.45330521  0.85660107  1  0.247737  0  0.079431  0.032117  0  3.935139  0
C  C125  1  0.34259654  0.30317125  0.89914228  1  0.06443  0  -0.085749  -0.130175  0  3.955955  0
C  C126  1  0.33527801  0.49702162  0.84002146  1  -0.052816  0  -0.00762  -0.155611  0  3.909602  0
C  C127  1  0.41214346  0.26036697  0.91429883  1  -0.146796  0  -0.021646  -0.118608  0  3.968883  0
C  C128  1  0.34037858  0.37322239  0.87753282  1  -0.204926  0  -0.017087  -0.004528  0  4.063904  0
C  C129  1  0.40816862  0.38189594  0.87713358  1  -0.108727  0  -0.016638  -0.070274  0  4.08263  0
C  C130  1  0.94869990  0.78989541  0.85008548  1  0.280794  0  0.079062  0.030868  0  3.937823  0
C  C131  1  0.80454452  0.95157631  0.89926974  1  0.035945  0  -0.084752  -0.12846  0  3.95475  0
C  C132  1  0.99458480  0.82921843  0.83612126  1  -0.116027  0  -0.008403  -0.154336  0  3.912337  0
C  C133  1  0.75992256  0.91140449  0.91223322  1  -0.15232  0  -0.020301  -0.118255  0  3.970282  0
C  C134  1  0.87285468  0.90734108  0.87590357  1  -0.147078  0  -0.017466  -0.004309  0  4.069277  0
C  C135  1  0.87844371  0.83460414  0.87195643  1  -0.104872  0  -0.015611  -0.06823  0  4.079242  0
S  S136  1  0.29714255  0.32740255  0.39817983  1  0.331151  0  0.124481  0.181441  0  2.740833  0
S  S137  1  0.45034097  0.42674218  0.35446293  1  0.344693  0  0.114651  0.177116  0  2.790045  0
S  S138  1  0.66708573  0.63307967  0.56327241  1  0.313877  0  0.126692  0.18687  0  2.741624  0
S  S139  1  0.59344834  0.61651870  0.68905694  1  0.360139  0  0.119049  0.18356  0  2.786477  0
S  S140  1  0.13400203  0.16060298  0.56289407  1  0.308904  0  0.119285  0.174251  0  2.7388  0
S  S141  1  0.11343096  0.09099134  0.68900740  1  0.336531  0  0.114803  0.17662  0  2.782355  0
S  S142  1  0.96975797  0.80359030  0.39980978  1  0.337523  0  0.131386  0.191027  0  2.734253  0
S  S143  1  0.77158582  0.94703828  0.34554030  1  0.345746  0  0.109897  0.170371  0  2.796018  0
S  S144  1  0.61612056  0.58597613  0.18575002  1  0.326302  0  0.12625  0.185039  0  2.744851  0
S  S145  1  0.63908319  0.65782566  0.06002969  1  0.348492  0  0.116418  0.179895  0  2.789249  0
S  S146  1  0.01555742  0.17687873  0.11453273  1  0.314431  0  0.131232  0.192248  0  2.736198  0
S  S147  1  0.24146321  0.06521565  0.14093551  1  0.37092  0  0.109405  0.170171  0  2.790647  0
S  S148  1  0.27454796  0.45156762  0.85122888  1  0.332266  0  0.132114  0.194222  0  2.731473  0
S  S149  1  0.47520283  0.30394267  0.90239560  1  0.332409  0  0.111921  0.17463  0  2.792076  0
S  S150  1  0.95247261  0.92014321  0.85123202  1  0.320564  0  0.124687  0.182971  0  2.741689  0
S  S151  1  0.79951983  0.82080380  0.89604441  1  0.334491  0  0.11403  0.176564  0  2.785404  0
N  N152  1  0.29220943  0.52717014  0.41522878  1  0.373303  0  0.059675  0.530448  0  4.215738  0
N  N153  1  0.78353100  0.54959559  0.66178470  1  0.373357  0  0.061725  0.531591  0  4.21232  0
N  N154  1  0.02600383  0.28059844  0.65888327  1  0.380105  0  0.060001  0.528212  0  4.218108  0
N  N155  1  0.76855176  0.79146313  0.40729813  1  0.368626  0  0.059068  0.530726  0  4.216753  0
N  N156  1  0.70656933  0.46739998  0.08831241  1  0.371873  0  0.059141  0.530801  0  4.217701  0
N  N157  1  0.10410967  0.08192582  0.22121694  1  0.361932  0  0.058324  0.530257  0  4.217267  0
N  N158  1  0.46601971  0.47536775  0.85645623  1  0.3529  0  0.059179  0.53085  0  4.215599  0
N  N159  1  0.96831786  0.71017514  0.84659823  1  0.385696  0  0.059954  0.532902  0  4.218702  0
O  O160  1  0.00091423  0.49980372  0.49961023  1  -1.229943  0  -0.573976  -1.042325  0  2.530028  0
O  O161  1  0.06461557  0.31474114  0.52227554  1  -1.148449  0  -0.314949  -0.542086  0  2.303567  0
O  O162  1  0.02509150  0.54389338  0.58214318  1  -1.164458  0  -0.307091  -0.532302  0  2.348264  0
O  O163  1  0.13869907  0.51215951  0.43914002  1  -1.163134  0  -0.312441  -0.534838  0  2.351124  0
O  O164  1  0.05242871  0.37462153  0.57735053  1  -1.149751  0  -0.307611  -0.529237  0  2.34782  0
O  O165  1  0.15719752  0.38700152  0.45166321  1  -1.155378  0  -0.314922  -0.541472  0  2.303709  0
O  O166  1  0.09657234  0.57931942  0.52767131  1  -1.162121  0  -0.310105  -0.559962  0  2.351467  0
O  O167  1  0.99387475  0.66802537  0.45678645  1  -1.153653  0  -0.31358  -0.539307  0  2.30517  0
O  O168  1  0.87949239  0.49407807  0.44699716  1  -1.178634  0  -0.310892  -0.558425  0  2.362937  0
O  O169  1  0.90258682  0.64190451  0.43823530  1  -1.163708  0  -0.309331  -0.529733  0  2.350877  0
O  O170  1  0.99496044  0.39242695  0.43899192  1  -1.179604  0  -0.310823  -0.539273  0  2.33428  0
O  O171  1  0.87998069  0.50675464  0.57742883  1  -1.157346  0  -0.304944  -0.524828  0  2.356965  0
O  O172  1  0.81931294  0.58989645  0.52422817  1  -1.156928  0  -0.314755  -0.540036  0  2.320458  0
O  O173  1  0.74843186  0.25106376  0.24995687  1  -1.225821  0  -0.571812  -1.035299  0  2.528592  0
O  O174  1  0.59690754  0.35710580  0.30561479  1  -1.175247  0  -0.315334  -0.541164  0  2.329576  0
O  O175  1  0.66171081  0.17134169  0.21614351  1  -1.171367  0  -0.311665  -0.539462  0  2.350767  0
O  O176  1  0.74803521  0.37336225  0.17331303  1  -1.16223  0  -0.312188  -0.535699  0  2.347558  0
O  O177  1  0.59090051  0.24542506  0.29989229  1  -1.164188  0  -0.313748  -0.53654  0  2.307864  0
O  O178  1  0.66076352  0.43332120  0.22542830  1  -1.158842  0  -0.313511  -0.538014  0  2.312433  0
O  O179  1  0.71190042  0.23186413  0.16224703  1  -1.167749  0  -0.309587  -0.558081  0  2.352571  0
O  O180  1  0.87942669  0.20303869  0.17067122  1  -1.160187  0  -0.315311  -0.541757  0  2.307805  0
O  O181  1  0.85483072  0.25353750  0.31276720  1  -1.167215  0  -0.312245  -0.541326  0  2.341754  0
O  O182  1  0.93105723  0.19065426  0.22888111  1  -1.148379  0  -0.306348  -0.525648  0  2.349177  0
O  O183  1  0.75282488  0.36916309  0.30505128  1  -1.171004  0  -0.31428  -0.547713  0  2.334484  0
O  O184  1  0.74412734  0.09304279  0.29640945  1  -1.171003  0  -0.3175  -0.545245  0  2.331559  0
O  O185  1  0.85900851  0.09486456  0.29935466  1  -1.173997  0  -0.309661  -0.529417  0  2.316501  0
O  O186  1  0.25179021  0.74847931  0.74918023  1  -1.216766  0  -0.571694  -1.035583  0  2.527273  0
O  O187  1  0.37875459  0.72257883  0.66759050  1  -1.162255  0  -0.313802  -0.535804  0  2.309995  0
O  O188  1  0.36052702  0.75135839  0.81019652  1  -1.177057  0  -0.306102  -0.529944  0  2.341264  0
O  O189  1  0.16943181  0.93337000  0.72758315  1  -1.149463  0  -0.319034  -0.545672  0  2.326462  0
O  O190  1  0.43675935  0.67890112  0.72648444  1  -1.155097  0  -0.314589  -0.540099  0  2.334869  0
O  O191  1  0.22696670  0.87551630  0.66908379  1  -1.175578  0  -0.312718  -0.533374  0  2.313678  0
O  O192  1  0.25488491  0.86434352  0.80621398  1  -1.175561  0  -0.311919  -0.56049  0  2.368002  0
O  O193  1  0.10204698  0.85152681  0.80814517  1  -1.164408  0  -0.316698  -0.542407  0  2.315802  0
O  O194  1  0.17791169  0.65182948  0.71715034  1  -1.154311  0  -0.31169  -0.542143  0  2.328797  0
O  O195  1  0.08851972  0.75376258  0.78784538  1  -1.152261  0  -0.30786  -0.527849  0  2.346333  0
O  O196  1  0.22037414  0.71961097  0.66346726  1  -1.174829  0  -0.314387  -0.546084  0  2.347556  0
O  O197  1  0.36170041  0.59166430  0.79429285  1  -1.157647  0  -0.308959  -0.529709  0  2.359609  0
O  O198  1  0.23956696  0.60116811  0.80713628  1  -1.143815  0  -0.311176  -0.534791  0  2.308555  0
O  O199  1  0.50102955  0.99927277  0.99955221  1  -1.234401  0  -0.570277  -1.030773  0  2.526402  0
O  O200  1  0.50513467  0.15535740  0.94827571  1  -1.173151  0  -0.317343  -0.544072  0  2.334641  0
O  O201  1  0.38696490  0.99469425  0.94229890  1  -1.172348  0  -0.315028  -0.547974  0  2.343577  0
O  O202  1  0.65248286  0.89177700  0.94423886  1  -1.150755  0  -0.315976  -0.542052  0  2.331607  0
O  O203  1  0.38982242  0.15374393  0.94659160  1  -1.168821  0  -0.313714  -0.534407  0  2.308738  0
O  O204  1  0.65873838  0.00371276  0.94914960  1  -1.168556  0  -0.313108  -0.534555  0  2.311114  0
O  O205  1  0.49514084  0.88348015  0.94331561  1  -1.168977  0  -0.311496  -0.540075  0  2.341797  0
O  O206  1  0.58196161  0.81495368  0.02211498  1  -1.147866  0  -0.314865  -0.539385  0  2.333785  0
O  O207  1  0.53673615  0.02853703  0.08454193  1  -1.161652  0  -0.313703  -0.544517  0  2.339418  0
O  O208  1  0.52612431  0.87300374  0.08066548  1  -1.16861  0  -0.313308  -0.534274  0  2.30842  0
O  O209  1  0.58614522  0.08723594  0.02921343  1  -1.173784  0  -0.31271  -0.542894  0  2.342432  0
O  O210  1  0.31640200  0.07738773  0.02309326  1  -1.165126  0  -0.312416  -0.533775  0  2.308226  0
O  O211  1  0.37676806  0.02814374  0.08115785  1  -1.167817  0  -0.316527  -0.543819  0  2.329154  0
O  O212  1  0.77349535  0.51669064  0.40425048  1  -1.132074  0  -0.350888  -0.435584  0  2.244165  0
O  O213  1  0.17635932  0.64827861  0.53941968  1  -1.14705  0  -0.350692  -0.437078  0  2.250365  0
O  O214  1  0.69931572  0.22187946  0.08772382  1  -1.135308  0  -0.347698  -0.432642  0  2.250698  0
O  O215  1  0.23435478  0.96987228  0.84865150  1  -1.149459  0  -0.355322  -0.44181  0  2.243958  0
O  O216  1  0.32405148  0.56336910  0.39048199  1  -0.44818  0  -0.140862  -0.336104  0  1.863764  0
O  O217  1  0.25526259  0.54666461  0.44864696  1  -0.430824  0  -0.126274  -0.313748  0  1.900316  0
O  O218  1  0.76063565  0.52191449  0.69539065  1  -0.429639  0  -0.134442  -0.328325  0  1.86266  0
O  O219  1  0.84407932  0.55702510  0.65372800  1  -0.427589  0  -0.124564  -0.310341  0  1.889335  0
O  O220  1  0.04626936  0.26145779  0.69401994  1  -0.443022  0  -0.137894  -0.331092  0  1.85659  0
O  O221  1  0.97000226  0.33855459  0.64810448  1  -0.418009  0  -0.12125  -0.303973  0  1.894091  0
O  O222  1  0.72450740  0.82016375  0.38020212  1  -0.452366  0  -0.144253  -0.339721  0  1.863384  0
O  O223  1  0.75648817  0.75641853  0.44068786  1  -0.4292  0  -0.130205  -0.315846  0  1.890828  0
O  O224  1  0.73448340  0.49036133  0.05477229  1  -0.445329  0  -0.139  -0.334196  0  1.862412  0
O  O225  1  0.70162298  0.40549750  0.09654288  1  -0.425894  0  -0.128104  -0.315931  0  1.899244  0
O  O226  1  0.16662422  0.07581798  0.22865146  1  -0.444351  0  -0.145721  -0.34142  0  1.859378  0
O  O227  1  0.06040716  0.05896454  0.24522231  1  -0.435936  0  -0.131863  -0.317593  0  1.887086  0
O  O228  1  0.53086263  0.42150391  0.85710645  1  -0.433447  0  -0.139988  -0.335233  0  1.860079  0
O  O229  1  0.45078690  0.54320836  0.85756488  1  -0.413379  0  -0.127137  -0.312683  0  1.885804  0
O  O230  1  0.91323874  0.69534322  0.84545764  1  -0.443965  0  -0.139985  -0.334812  0  1.85907  0
O  O231  1  0.03564846  0.66305519  0.84690810  1  -0.430683  0  -0.128983  -0.316143  0  1.890495  0
