# generated using pymatgen
data_NiH12C14(NO3)2
_symmetry_space_group_name_H-M   'P 1'
_cell_length_a   7.93024175
_cell_length_b   11.25113317
_cell_length_c   18.05378316
_cell_angle_alpha   89.99946276
_cell_angle_beta   93.07001679
_cell_angle_gamma   89.99765728
_symmetry_Int_Tables_number   1
_chemical_formula_structural   NiH12C14(NO3)2
_chemical_formula_sum   'Ni4 H48 C56 N8 O24'
_cell_volume   1608.52265011
_cell_formula_units_Z   4
loop_
 _symmetry_equiv_pos_site_id
 _symmetry_equiv_pos_as_xyz
  1  'x, y, z'
loop_
 _atom_site_type_symbol
 _atom_site_label
 _atom_site_symmetry_multiplicity
 _atom_site_fract_x
 _atom_site_fract_y
 _atom_site_fract_z
 _atom_site_occupancy
 _atom_site_pbe_bader_charge
 _atom_site_pbe_bader_spin_density
 _atom_site_pbe_cm5_charge
 _atom_site_pbe_ddec_charge
 _atom_site_pbe_ddec_spin_density
 _atom_site_pbe_ddec_sum_bond_order
 _atom_site_pbe_magmom
Ni  Ni0  1  0.49999995  0.00000060  0.50000015  1  1.198859  1.574528  0.646061  0.821467  1.827159  2.428985  1.563
Ni  Ni1  1  0.00000117  0.50000006  0.49999972  1  1.199022  -1.574547  0.646108  0.821616  -1.827185  2.428775  -1.563
Ni  Ni2  1  0.00000033  0.49999941  0.00000023  1  1.186341  1.560733  0.639133  0.794344  1.81208  2.449834  1.549
Ni  Ni3  1  0.49999912  0.00000084  0.00000010  1  1.186645  -1.560737  0.638931  0.793887  -1.812071  2.449902  -1.549
H  H4  1  0.29227326  0.83932308  0.43492838  1  0.660156  0.000652  0.286416  0.372887  0.000664  0.976574  0.001
H  H5  1  0.79227388  0.66068859  0.43492959  1  0.660168  -0.000651  0.286407  0.37275  -0.000665  0.976799  -0.001
H  H6  1  0.70772479  0.16067784  0.56507230  1  0.660163  0.000652  0.286412  0.37288  0.000664  0.97659  0.001
H  H7  1  0.20772543  0.33931145  0.56507002  1  0.660171  -0.000651  0.28642  0.372759  -0.000664  0.976785  -0.001
H  H8  1  0.47596161  0.77463987  0.43289633  1  0.63858  0.001557  0.294265  0.386356  0.001209  0.944924  0.002
H  H9  1  0.97596346  0.72535146  0.43289055  1  0.63861  -0.001557  0.294269  0.386323  -0.001209  0.944913  -0.002
H  H10  1  0.52403644  0.22536016  0.56710324  1  0.638575  0.001557  0.294292  0.38637  0.001209  0.944905  0.002
H  H11  1  0.02403711  0.27464946  0.56711020  1  0.638626  -0.001557  0.294287  0.386348  -0.001209  0.944876  -0.002
H  H12  1  0.00078561  0.29026947  0.92930697  1  0.651338  0.000295  0.286373  0.375328  0.000656  0.968423  0.001
H  H13  1  0.50077070  0.20972821  0.92930530  1  0.650904  -0.000296  0.286341  0.375356  -0.000655  0.968375  -0.001
H  H14  1  0.99921622  0.70972967  0.07069381  1  0.65134  0.000296  0.286341  0.375248  0.000656  0.96852  0.001
H  H15  1  0.49923113  0.79027360  0.07069491  1  0.650915  -0.000296  0.286353  0.375371  -0.000656  0.968368  -0.001
H  H16  1  0.18549388  0.34856764  0.92685131  1  0.642078  0.000421  0.283253  0.3709  0.000699  0.976249  0.0
H  H17  1  0.68547612  0.15141857  0.92684548  1  0.642198  -0.00042  0.283175  0.37087  -0.000699  0.976285  0.0
H  H18  1  0.81450796  0.65143239  0.07315002  1  0.642082  0.000422  0.283265  0.370904  0.0007  0.976248  0.0
H  H19  1  0.31452320  0.84858325  0.07315357  1  0.642197  -0.00042  0.283172  0.370873  -0.000699  0.976286  0.0
H  H20  1  0.23148232  0.35090882  0.36077293  1  0.141398  0.000887  0.109286  0.121552  0.000469  1.028469  0.0
H  H21  1  0.73147099  0.14910510  0.36077890  1  0.141817  -0.000887  0.109281  0.121462  -0.000469  1.028586  0.0
H  H22  1  0.76851952  0.64909121  0.63922618  1  0.141388  0.000887  0.109296  0.121553  0.000469  1.0284  0.0
H  H23  1  0.26853211  0.85089404  0.63922190  1  0.141631  -0.000887  0.109263  0.121424  -0.000469  1.028569  0.0
H  H24  1  0.33584505  0.23141455  0.46848305  1  0.111842  0.001641  0.121105  0.094565  0.000564  1.028691  0.001
H  H25  1  0.83581780  0.26859120  0.46848685  1  0.111763  -0.00164  0.121087  0.094577  -0.000563  1.028555  -0.001
H  H26  1  0.66416184  0.76858815  0.53151618  1  0.111835  0.001641  0.121118  0.09463  0.000564  1.02858  0.001
H  H27  1  0.16418530  0.73140883  0.53151340  1  0.111764  -0.00164  0.121113  0.094542  -0.000563  1.028623  -0.001
H  H28  1  0.46142292  0.94850064  0.33583626  1  0.113583  0.001779  0.126162  0.10054  0.000677  0.979225  0.001
H  H29  1  0.96141614  0.55148458  0.33582574  1  0.113505  -0.001778  0.126094  0.100497  -0.000677  0.97941  -0.001
H  H30  1  0.53857640  0.05149851  0.66416334  1  0.113598  0.001779  0.126176  0.100565  0.000677  0.979189  0.001
H  H31  1  0.03858443  0.44851723  0.66417445  1  0.113534  -0.001778  0.126077  0.100547  -0.000677  0.979371  -0.001
H  H32  1  0.35047472  0.05242269  0.22117087  1  0.087932  0.000985  0.113345  0.128582  0.000468  0.99124  0.0
H  H33  1  0.85048614  0.44756329  0.22116347  1  0.087821  -0.000985  0.113312  0.128558  -0.000468  0.991195  0.0
H  H34  1  0.64952206  0.94757468  0.77882923  1  0.088062  0.000985  0.113327  0.12859  0.000468  0.991235  0.0
H  H35  1  0.14951317  0.55243675  0.77883780  1  0.08777  -0.000985  0.113333  0.128645  -0.000468  0.991298  0.0
H  H36  1  0.09292790  0.12841029  0.16051955  1  0.065302  0.000963  0.108706  0.114491  0.000451  1.00966  0.0
H  H37  1  0.59290212  0.37158664  0.16053276  1  0.065538  -0.000963  0.108678  0.114494  -0.000451  1.009541  0.0
H  H38  1  0.90706888  0.87158707  0.83947944  1  0.065246  0.000963  0.108729  0.114528  0.000451  1.009617  0.0
H  H39  1  0.40709593  0.62841339  0.83946903  1  0.065543  -0.000963  0.108674  0.114504  -0.000451  1.009562  0.0
H  H40  1  0.97743174  0.25062613  0.05415744  1  0.112468  0.001631  0.120046  0.088843  0.000547  1.03547  0.001
H  H41  1  0.47740865  0.24940141  0.05416397  1  0.112274  -0.001635  0.120032  0.088766  -0.000549  1.035424  -0.001
H  H42  1  0.02256505  0.74937302  0.94584211  1  0.11241  0.001631  0.120025  0.088846  0.000547  1.035521  0.001
H  H43  1  0.52258939  0.75059951  0.94583727  1  0.112266  -0.001635  0.120067  0.088814  -0.000549  1.035357  -0.001
H  H44  1  0.20399008  0.55569294  0.13868851  1  0.099929  0.001583  0.127373  0.110213  0.000558  0.977334  0.001
H  H45  1  0.70404458  0.94429642  0.13870598  1  0.099788  -0.001588  0.127346  0.110021  -0.00056  0.977198  -0.001
H  H46  1  0.79600924  0.44430531  0.86131109  1  0.099888  0.001583  0.127381  0.110252  0.000558  0.977299  0.001
H  H47  1  0.29595599  0.05570361  0.86129310  1  0.099759  -0.001588  0.127356  0.110034  -0.00056  0.977195  -0.001
H  H48  1  0.32047920  0.44934646  0.25161770  1  0.099282  0.000917  0.115718  0.128839  0.000417  0.97944  0.0
H  H49  1  0.82051917  0.05065768  0.25162381  1  0.099013  -0.000917  0.115722  0.128877  -0.000417  0.979114  0.0
H  H50  1  0.67951885  0.55065179  0.74838187  1  0.099235  0.000917  0.115703  0.128792  0.000417  0.979456  0.0
H  H51  1  0.17948014  0.94934146  0.74837635  1  0.099024  -0.000917  0.11573  0.128889  -0.000417  0.979098  0.0
C  C52  1  0.12413022  0.01399197  0.52138936  1  0.789724  -0.000608  0.092747  0.156526  0.000884  4.135324  -0.002
C  C53  1  0.62413178  0.48600304  0.52138206  1  0.789292  0.00061  0.092584  0.156353  -0.000882  4.135457  0.002
C  C54  1  0.87587035  0.98601429  0.47861083  1  0.789741  -0.000608  0.092736  0.156487  0.000884  4.135302  -0.002
C  C55  1  0.37586879  0.51399699  0.47861868  1  0.789123  0.00061  0.092572  0.156318  -0.000882  4.135484  0.002
C  C56  1  0.04317201  0.93772009  0.46248080  1  0.800096  0.012219  0.096221  0.156866  0.007088  4.126223  0.01
C  C57  1  0.54315321  0.56228585  0.46248322  1  0.800177  -0.012212  0.096272  0.156892  -0.007085  4.125506  -0.01
C  C58  1  0.95682604  0.06228528  0.53751933  1  0.79981  0.012219  0.096214  0.156797  0.007088  4.126  0.01
C  C59  1  0.45684610  0.43771507  0.53751694  1  0.800197  -0.012211  0.096259  0.156895  -0.007085  4.125566  -0.01
C  C60  1  0.37900078  0.53806435  0.99927286  1  0.781573  0.000832  0.091165  0.145404  0.001758  4.167071  0.0
C  C61  1  0.87900628  0.96193449  0.99927300  1  0.781708  -0.000828  0.091247  0.145574  -0.001756  4.167091  0.0
C  C62  1  0.62100232  0.46193569  0.00072683  1  0.781647  0.00083  0.091166  0.145385  0.001757  4.167158  0.0
C  C63  1  0.12099430  0.03806465  0.00072442  1  0.781641  -0.000828  0.091228  0.145548  -0.001756  4.167187  0.0
C  C64  1  0.45114075  0.42700272  0.97039347  1  0.790869  0.012041  0.094009  0.14561  0.006932  4.145705  0.009
C  C65  1  0.95112511  0.07299478  0.97039202  1  0.790872  -0.01204  0.093966  0.145472  -0.006932  4.146353  -0.009
C  C66  1  0.54886235  0.57299731  0.02960623  1  0.790829  0.012041  0.09401  0.14561  0.006932  4.145645  0.009
C  C67  1  0.04887673  0.92700437  0.02960487  1  0.790683  -0.012041  0.093909  0.145398  -0.006932  4.14629  -0.009
C  C68  1  0.28181451  0.21170318  0.28093764  1  -0.028752  -0.006572  0.008357  0.098411  -0.003746  3.994726  -0.004
C  C69  1  0.78181515  0.28829541  0.28093756  1  -0.02826  0.006572  0.008371  0.098422  0.003746  3.99465  0.004
C  C70  1  0.71818101  0.78829508  0.71906188  1  -0.028898  -0.006572  0.008302  0.098349  -0.003746  3.994637  -0.004
C  C71  1  0.21818542  0.71170551  0.71906374  1  -0.028447  0.006571  0.008368  0.098432  0.003746  3.994492  0.004
C  C72  1  0.28136230  0.26214556  0.35189303  1  -0.077169  0.004133  -0.081715  -0.169995  0.00243  3.922082  0.003
C  C73  1  0.78136592  0.23786263  0.35189718  1  -0.077516  -0.004134  -0.081612  -0.169721  -0.002431  3.922159  -0.003
C  C74  1  0.71863575  0.73785358  0.64810599  1  -0.076939  0.004133  -0.081711  -0.169948  0.00243  3.922032  0.003
C  C75  1  0.21863213  0.76213741  0.64810405  1  -0.077236  -0.004134  -0.081643  -0.169744  -0.002431  3.922062  -0.003
C  C76  1  0.34093990  0.19612423  0.41267273  1  0.493669  -0.004745  0.048932  0.10439  -0.002264  3.925625  -0.003
C  C77  1  0.84093708  0.30387866  0.41267635  1  0.493245  0.004743  0.04882  0.104212  0.002263  3.925686  0.003
C  C78  1  0.65906067  0.80387669  0.58732635  1  0.493632  -0.004745  0.048898  0.104301  -0.002263  3.925678  -0.003
C  C79  1  0.15906475  0.69612137  0.58732387  1  0.493205  0.004743  0.048814  0.104249  0.002263  3.925626  0.003
C  C80  1  0.40732131  0.03727673  0.33842976  1  0.47424  -0.004297  0.051257  0.096211  -0.001925  3.949125  -0.003
C  C81  1  0.90731541  0.46271472  0.33842630  1  0.47399  0.004297  0.051323  0.096241  0.001925  3.949388  0.003
C  C82  1  0.59267674  0.96272152  0.66156926  1  0.474132  -0.004297  0.051323  0.096316  -0.001925  3.949111  -0.003
C  C83  1  0.09268390  0.53728620  0.66157441  1  0.473984  0.004296  0.051362  0.096159  0.001924  3.94938  0.003
C  C84  1  0.34499757  0.09582954  0.27494921  1  -0.002985  0.004322  -0.0809  -0.172538  0.002528  3.937299  0.003
C  C85  1  0.84499134  0.40416199  0.27494553  1  -0.002475  -0.004324  -0.080869  -0.172525  -0.00253  3.937264  -0.003
C  C86  1  0.65500048  0.90416960  0.72505036  1  -0.002979  0.004322  -0.080933  -0.17267  0.002528  3.937246  0.003
C  C87  1  0.15500797  0.59583715  0.72505629  1  -0.00247  -0.004324  -0.080883  -0.172621  -0.00253  3.937365  -0.003
C  C88  1  0.21713967  0.27862319  0.21542032  1  0.050181  -0.006758  0.009544  0.098413  -0.003862  4.008367  -0.004
C  C89  1  0.71714049  0.22137113  0.21542062  1  0.050271  0.006749  0.009528  0.098425  0.003856  4.008656  0.004
C  C90  1  0.78285838  0.72137418  0.78457870  1  0.05002  -0.006757  0.009559  0.098487  -0.003861  4.008259  -0.004
C  C91  1  0.28286008  0.77862801  0.78458012  1  0.050119  0.006748  0.009575  0.098552  0.003856  4.00849  0.004
C  C92  1  0.12185466  0.22283683  0.15797683  1  0.028803  0.004034  -0.081884  -0.17133  0.002414  3.947038  0.003
C  C93  1  0.62184963  0.27715931  0.15798166  1  0.028205  -0.004034  -0.08192  -0.171331  -0.002414  3.946844  -0.003
C  C94  1  0.87814213  0.77716053  0.84202271  1  0.028946  0.004034  -0.081865  -0.171316  0.002414  3.947086  0.003
C  C95  1  0.37815094  0.72284072  0.84201963  1  0.028527  -0.004034  -0.081966  -0.171469  -0.002414  3.946842  -0.003
C  C96  1  0.05811943  0.28981812  0.09820424  1  0.469861  -0.004676  0.050944  0.103507  -0.002239  3.933749  -0.003
C  C97  1  0.55812217  0.21016743  0.09820964  1  0.471631  0.004677  0.050988  0.103467  0.002238  3.934207  0.003
C  C98  1  0.94187735  0.71017925  0.90179530  1  0.469866  -0.004675  0.050921  0.103455  -0.002239  3.933979  -0.003
C  C99  1  0.44187714  0.78983349  0.90179162  1  0.471609  0.004676  0.050999  0.103535  0.002238  3.934116  0.003
C  C100  1  0.18253552  0.46107695  0.14626415  1  0.562531  -0.004619  0.04774  0.09242  -0.002102  3.944386  -0.003
C  C101  1  0.68253957  0.03893542  0.14626725  1  0.562785  0.004614  0.047977  0.092843  0.002099  3.944597  0.003
C  C102  1  0.81746253  0.53892042  0.85373598  1  0.562506  -0.004619  0.047746  0.092414  -0.002102  3.944309  -0.003
C  C103  1  0.31746101  0.96106462  0.85373238  1  0.562805  0.004614  0.047915  0.092748  0.002099  3.944651  0.003
C  C104  1  0.24638376  0.40112959  0.20879507  1  -0.117118  0.004316  -0.081175  -0.181587  0.002506  3.962259  0.003
C  C105  1  0.74639309  0.09886844  0.20879906  1  -0.117162  -0.004316  -0.081214  -0.181753  -0.002506  3.962065  -0.003
C  C106  1  0.75361303  0.59886777  0.79120447  1  -0.117142  0.004316  -0.081135  -0.181525  0.002506  3.96214  0.003
C  C107  1  0.25360748  0.90113071  0.79120113  1  -0.117158  -0.004316  -0.081214  -0.181764  -0.002506  3.962033  -0.003
N  N108  1  0.40524702  0.08604822  0.40649005  1  -1.211962  0.063669  -0.327605  -0.235965  0.038961  3.587373  0.057
N  N109  1  0.90525284  0.41395381  0.40649103  1  -1.211927  -0.063674  -0.327623  -0.236071  -0.038963  3.587445  -0.057
N  N110  1  0.59475482  0.91395181  0.59350961  1  -1.211871  0.063669  -0.327622  -0.236008  0.038961  3.587502  0.057
N  N111  1  0.09474900  0.58604711  0.59350919  1  -1.211898  -0.063673  -0.327633  -0.236009  -0.038963  3.587334  -0.057
N  N112  1  0.08919487  0.40660329  0.09155340  1  -1.251455  0.063213  -0.327837  -0.227478  0.038692  3.581022  0.057
N  N113  1  0.58920578  0.09340191  0.09156299  1  -1.252876  -0.063206  -0.327857  -0.227339  -0.038686  3.581969  -0.057
N  N114  1  0.91080192  0.59339496  0.90844615  1  -1.251344  0.063211  -0.327838  -0.227523  0.03869  3.581132  0.057
N  N115  1  0.41079353  0.90659902  0.90843662  1  -1.252874  -0.063207  -0.327831  -0.22732  -0.038686  3.581936  -0.057
O  O116  1  0.27072778  0.03315483  0.54963162  1  -1.144581  0.072764  -0.298024  -0.426249  0.042767  2.404604  0.067
O  O117  1  0.77073047  0.46682666  0.54962335  1  -1.144547  -0.072763  -0.29792  -0.426145  -0.042767  2.404305  -0.067
O  O118  1  0.72927280  0.96684964  0.45036746  1  -1.144542  0.072768  -0.298072  -0.426278  0.042769  2.404502  0.067
O  O119  1  0.22927010  0.53317337  0.45037684  1  -1.144563  -0.072767  -0.297929  -0.426146  -0.042769  2.404265  -0.067
O  O120  1  0.09218992  0.86041907  0.41756128  1  -1.181286  0.003894  -0.304037  -0.431849  0.001936  2.269367  0.003
O  O121  1  0.59216276  0.63960482  0.41755419  1  -1.180976  -0.003886  -0.304029  -0.431828  -0.001932  2.268406  -0.003
O  O122  1  0.90781065  0.13958186  0.58244113  1  -1.180952  0.003894  -0.304064  -0.431852  0.001936  2.269194  0.003
O  O123  1  0.40783781  0.36039611  0.58244545  1  -1.180998  -0.003886  -0.304027  -0.431845  -0.001932  2.268445  -0.003
O  O124  1  0.41116427  0.83705033  0.45749796  1  -1.273944  0.05437  -0.580148  -0.784704  0.032416  2.230192  0.048
O  O125  1  0.91115466  0.66295315  0.45749891  1  -1.273918  -0.054373  -0.580072  -0.784493  -0.032416  2.230382  -0.048
O  O126  1  0.58883504  0.16294971  0.54250165  1  -1.273935  0.05437  -0.580159  -0.784704  0.032417  2.230196  0.048
O  O127  1  0.08884591  0.33704777  0.54250073  1  -1.273928  -0.054372  -0.580092  -0.784497  -0.032416  2.230363  -0.048
O  O128  1  0.23581577  0.58661262  0.99924874  1  -1.137586  0.070213  -0.291832  -0.417842  0.041246  2.434785  0.065
O  O129  1  0.73582667  0.91338055  0.99924984  1  -1.137483  -0.07021  -0.291883  -0.417909  -0.041244  2.434737  -0.065
O  O130  1  0.76418859  0.41338653  0.00075320  1  -1.137507  0.070216  -0.291828  -0.417833  0.041248  2.434845  0.065
O  O131  1  0.26417391  0.08662038  0.00074925  1  -1.137492  -0.070213  -0.291889  -0.41792  -0.041245  2.434759  -0.065
O  O132  1  0.39200787  0.33851142  0.93478519  1  -1.164759  0.004425  -0.286358  -0.405662  0.002252  2.313611  0.003
O  O133  1  0.89198445  0.16147765  0.93478803  1  -1.16503  -0.004426  -0.286336  -0.405581  -0.002253  2.313999  -0.003
O  O134  1  0.60799650  0.66148950  0.06521398  1  -1.164771  0.004425  -0.286395  -0.40571  0.002253  2.31357  0.003
O  O135  1  0.10801613  0.83852150  0.06520994  1  -1.164992  -0.004427  -0.286302  -0.405517  -0.002253  2.313982  -0.003
O  O136  1  0.06170882  0.36736220  0.92492863  1  -1.266511  0.065281  -0.584034  -0.773518  0.038482  2.193164  0.057
O  O137  1  0.56169090  0.13263202  0.92492734  1  -1.266082  -0.065264  -0.583937  -0.773426  -0.038474  2.193325  -0.057
O  O138  1  0.93829176  0.63263694  0.07507045  1  -1.266555  0.065279  -0.584012  -0.773444  0.038481  2.19324  0.057
O  O139  1  0.43830841  0.86736890  0.07507227  1  -1.266083  -0.065264  -0.583942  -0.77346  -0.038474  2.193369  -0.057
