# generated using pymatgen
data_ZnH25C22N3O4
_symmetry_space_group_name_H-M   'P 1'
_cell_length_a   8.03841952
_cell_length_b   9.68670492
_cell_length_c   14.67547298
_cell_angle_alpha   88.05038278
_cell_angle_beta   88.17071255
_cell_angle_gamma   74.53354309
_symmetry_Int_Tables_number   1
_chemical_formula_structural   ZnH25C22N3O4
_chemical_formula_sum   'Zn2 H50 C44 N6 O8'
_cell_volume   1100.38862929
_cell_formula_units_Z   2
loop_
 _symmetry_equiv_pos_site_id
 _symmetry_equiv_pos_as_xyz
  1  'x, y, z'
loop_
 _atom_site_type_symbol
 _atom_site_label
 _atom_site_symmetry_multiplicity
 _atom_site_fract_x
 _atom_site_fract_y
 _atom_site_fract_z
 _atom_site_occupancy
 _atom_site_hle17_bader_spin_density
 _atom_site_hle17_ddec_charge
 _atom_site_hle17_ddec_spin_density
 _atom_site_hle17_ddec_sum_bond_order
 _atom_site_hle17_magmom
 _atom_site_hse06_10hf_bader_spin_density
 _atom_site_hse06_10hf_ddec_charge
 _atom_site_hse06_10hf_ddec_spin_density
 _atom_site_hse06_10hf_ddec_sum_bond_order
 _atom_site_hse06_10hf_magmom
 _atom_site_hse06_bader_spin_density
 _atom_site_hse06_ddec_charge
 _atom_site_hse06_ddec_spin_density
 _atom_site_hse06_ddec_sum_bond_order
 _atom_site_hse06_magmom
 _atom_site_pbe_bader_spin_density
 _atom_site_pbe_cm5_charge
 _atom_site_pbe_ddec_charge
 _atom_site_pbe_ddec_spin_density
 _atom_site_pbe_ddec_sum_bond_order
 _atom_site_pbe_magmom
Zn  Zn0  1  0.22593863  0.62761379  0.17092654  1  0  1.001704  0  1.863377  0  0  0.804937  0  2.34454  0  0  0.851922  0  2.290282  0  0  0.696275  0.772638  0  2.381048  0
Zn  Zn1  1  0.77406234  0.37238669  0.82907351  1  0  1.00173  0  1.863362  0  0  0.804975  0  2.344517  0  0  0.851955  0  2.290264  0  0  0.696292  0.772679  0  2.381029  0
H  H2  1  0.45492955  0.36626480  0.05843784  1  0  0.115755  0  0.958852  0  0  0.120078  0  1.029544  0  0  0.123199  0  1.025183  0  0  0.139924  0.117558  0  1.033127  0
H  H3  1  0.54507108  0.63373675  0.94156083  1  0  0.115762  0  0.958799  0  0  0.120047  0  1.02955  0  0  0.123164  0  1.025185  0  0  0.139919  0.117531  0  1.033123  0
H  H4  1  0.22456740  0.61575972  0.81599745  1  0  0.059113  0  0.970752  0  0  0.072021  0  1.041693  0  0  0.072752  0  1.042578  0  0  0.083071  0.071478  0  1.040995  0
H  H5  1  0.77543392  0.38423969  0.18400330  1  0  0.059127  0  0.97073  0  0  0.072057  0  1.041668  0  0  0.07279  0  1.042554  0  0  0.083078  0.071514  0  1.040971  0
H  H6  1  0.08196570  0.50591348  0.81826788  1  0  0.068192  0  0.938782  0  0  0.089895  0  0.995573  0  0  0.090699  0  0.995734  0  0  0.088221  0.089135  0  0.995652  0
H  H7  1  0.91803562  0.49408593  0.18173287  1  0  0.068172  0  0.938794  0  0  0.089905  0  0.995573  0  0  0.09071  0  0.995732  0  0  0.088226  0.089144  0  0.995652  0
H  H8  1  0.78250629  0.04478399  0.14704598  1  0  0.121815  0  0.91876  0  0  0.137004  0  0.976045  0  0  0.139012  0  0.973939  0  0  0.127182  0.135325  0  0.977691  0
H  H9  1  0.21749060  0.95521755  0.85295548  1  0  0.121813  0  0.918749  0  0  0.136987  0  0.976028  0  0  0.139  0  0.973917  0  0  0.127153  0.135309  0  0.977677  0
H  H10  1  0.67006995  0.12248905  0.04700910  1  0  0.098137  0  0.916295  0  0  0.11379  0  0.975697  0  0  0.113812  0  0.977386  0  0  0.12109  0.113494  0  0.97482  0
H  H11  1  0.32993047  0.87750928  0.95299169  1  0  0.098138  0  0.91623  0  0  0.113756  0  0.975642  0  0  0.113777  0  0.977334  0  0  0.121064  0.113477  0  0.974747  0
H  H12  1  0.60110471  0.61854727  0.11834743  1  0  0.096135  0  0.961969  0  0  0.10001  0  1.032046  0  0  0.102867  0  1.029849  0  0  0.119484  0.098262  0  1.032882  0
H  H13  1  0.39889695  0.38145107  0.88165333  1  0  0.096155  0  0.96196  0  0  0.100031  0  1.03203  0  0  0.102889  0  1.029834  0  0  0.119499  0.098284  0  1.032866  0
H  H14  1  0.30437245  0.12887174  0.14934513  1  0  0.105391  0  0.984227  0  0  0.110875  0  1.055386  0  0  0.113551  0  1.055363  0  0  0.107822  0.108856  0  1.055608  0
H  H15  1  0.69562762  0.87112767  0.85065496  1  0  0.105364  0  0.984253  0  0  0.11085  0  1.05541  0  0  0.113525  0  1.055387  0  0  0.107807  0.108831  0  1.055632  0
H  H16  1  0.77732614  0.79491488  0.10436604  1  0  0.137622  0  0.958792  0  0  0.14349  0  1.021668  0  0  0.148097  0  1.019078  0  0  0.111823  0.140097  0  1.02363  0
H  H17  1  0.22267518  0.20508452  0.89563403  1  0  0.137628  0  0.958768  0  0  0.143496  0  1.021651  0  0  0.148105  0  1.019057  0  0  0.111811  0.140105  0  1.02361  0
H  H18  1  0.04576807  0.54442045  0.64115326  1  0  0.062339  0  0.941676  0  0  0.082648  0  1.000124  0  0  0.083347  0  1.000463  0  0  0.08451  0.081998  0  0.999859  0
H  H19  1  0.95423131  0.45558110  0.35884747  1  0  0.062296  0  0.941692  0  0  0.082598  0  1.000149  0  0  0.083295  0  1.000488  0  0  0.084495  0.081948  0  0.999883  0
H  H20  1  0.19824410  0.64662498  0.64262850  1  0  0.051762  0  0.970473  0  0  0.069252  0  1.036333  0  0  0.068711  0  1.039666  0  0  0.078982  0.06952  0  1.034153  0
H  H21  1  0.80175563  0.35337550  0.35737225  1  0  0.051794  0  0.970432  0  0  0.069252  0  1.036326  0  0  0.068709  0  1.039659  0  0  0.078988  0.06952  0  1.034146  0
H  H22  1  0.70828960  0.02672015  0.31707909  1  0  0.114619  0  0.997463  0  0  0.119839  0  1.066142  0  0  0.123591  0  1.063938  0  0  0.103572  0.117037  0  1.067848  0
H  H23  1  0.29170640  0.97328032  0.68291832  1  0  0.11469  0  0.997401  0  0  0.119894  0  1.066088  0  0  0.123651  0  1.063886  0  0  0.103597  0.117089  0  1.067791  0
H  H24  1  0.14929867  0.93707220  0.16701357  1  0  0.089864  0  0.974689  0  0  0.094835  0  1.043307  0  0  0.098531  0  1.039319  0  0  0.115675  0.092041  0  1.046469  0
H  H25  1  0.85070141  0.06292721  0.83298652  1  0  0.089853  0  0.974716  0  0  0.09482  0  1.043336  0  0  0.098518  0  1.039345  0  0  0.115664  0.092027  0  1.046498  0
H  H26  1  0.99102802  0.79524337  0.91235326  1  0  0.084246  0  0.930019  0  0  0.104407  0  0.987021  0  0  0.106181  0  0.986585  0  0  0.09507  0.103198  0  0.98736  0
H  H27  1  0.00897329  0.20475604  0.08764749  1  0  0.084255  0  0.930022  0  0  0.104415  0  0.987032  0  0  0.10619  0  0.986595  0  0  0.095082  0.103205  0  0.987371  0
H  H28  1  0.88758393  0.65775673  0.92906697  1  0  0.091509  0  0.94367  0  0  0.106989  0  1.008334  0  0  0.108529  0  1.008435  0  0  0.094242  0.105783  0  1.008508  0
H  H29  1  0.11241704  0.34224375  0.07093376  1  0  0.091473  0  0.94372  0  0  0.106987  0  1.008349  0  0  0.108527  0  1.00845  0  0  0.094245  0.105782  0  1.008523  0
H  H30  1  0.99780747  0.81912602  0.74807673  1  0  0.054353  0  0.936701  0  0  0.074929  0  0.997356  0  0  0.075419  0  0.997969  0  0  0.081975  0.07436  0  0.99713  0
H  H31  1  0.00219384  0.18087339  0.25192333  1  0  0.054384  0  0.936623  0  0  0.074952  0  0.997273  0  0  0.075442  0  0.997885  0  0  0.082002  0.074383  0  0.997045  0
H  H32  1  0.85287733  0.71031267  0.74846996  1  0  0.048609  0  0.961958  0  0  0.067256  0  1.026399  0  0  0.067171  0  1.028417  0  0  0.078901  0.067141  0  1.0253  0
H  H33  1  0.14712364  0.28968781  0.25153145  1  0  0.048588  0  0.961967  0  0  0.067229  0  1.026399  0  0  0.067145  0  1.028415  0  0  0.078891  0.067114  0  1.0253  0
H  H34  1  0.32230360  0.51967667  0.38136275  1  0  0.120085  0  0.976532  0  0  0.125204  0  1.043825  0  0  0.129012  0  1.041316  0  0  0.107013  0.122417  0  1.04568  0
H  H35  1  0.67769827  0.48032488  0.61863658  1  0  0.120049  0  0.976531  0  0  0.12516  0  1.043838  0  0  0.128968  0  1.041329  0  0  0.106986  0.122375  0  1.045693  0
H  H36  1  0.44886905  0.35001782  0.50929712  1  0  0.088645  0  0.943293  0  0  0.102855  0  0.996492  0  0  0.105394  0  0.995968  0  0  0.10197  0.101062  0  0.996826  0
H  H37  1  0.55113227  0.64998158  0.49070090  1  0  0.088678  0  0.943215  0  0  0.102875  0  0.996427  0  0  0.105415  0  0.995904  0  0  0.101989  0.101082  0  0.996759  0
H  H38  1  0.03537681  0.59972463  0.46505835  1  0  0.062123  0  0.944157  0  0  0.081477  0  1.005186  0  0  0.082077  0  1.005585  0  0  0.087989  0.080689  0  1.00531  0
H  H39  1  0.96462168  0.40027585  0.53494242  1  0  0.062132  0  0.944161  0  0  0.081482  0  1.005194  0  0  0.082085  0  1.005581  0  0  0.087983  0.080695  0  1.005317  0
H  H40  1  0.17120930  0.71423284  0.47275835  1  0  0.055768  0  0.94444  0  0  0.075584  0  1.005599  0  0  0.075822  0  1.006543  0  0  0.084143  0.075424  0  1.004751  0
H  H41  1  0.82879043  0.28576764  0.52724173  1  0  0.055747  0  0.944445  0  0  0.075583  0  1.005575  0  0  0.075808  0  1.006533  0  0  0.084133  0.075424  0  1.004726  0
H  H42  1  0.79788708  0.80137159  0.40582160  1  0  0.093106  0  0.918947  0  0  0.1129  0  0.971908  0  0  0.114699  0  0.971643  0  0  0.098973  0.111873  0  0.97159  0
H  H43  1  0.20211141  0.19862888  0.59417917  1  0  0.093107  0  0.918933  0  0  0.112894  0  0.971899  0  0  0.114697  0  0.97163  0  0  0.098977  0.111868  0  0.971582  0
H  H44  1  0.92153871  0.92324602  0.42000250  1  0  0.088003  0  0.941892  0  0  0.105408  0  1.002496  0  0  0.106918  0  1.002417  0  0  0.095655  0.104104  0  1.00277  0
H  H45  1  0.07846136  0.07675339  0.57999759  1  0  0.088  0  0.941898  0  0  0.105393  0  1.002516  0  0  0.106898  0  1.002444  0  0  0.095653  0.104096  0  1.002781  0
H  H46  1  0.63369159  0.10628281  0.47828668  1  0  0.087239  0  0.944611  0  0  0.101239  0  0.998824  0  0  0.103881  0  0.998133  0  0  0.101801  0.09936  0  0.999312  0
H  H47  1  0.36630724  0.89371660  0.52171138  1  0  0.087185  0  0.944617  0  0  0.101219  0  0.998789  0  0  0.103851  0  0.99811  0  0  0.101819  0.099342  0  0.999277  0
H  H48  1  0.82587788  0.75492633  0.57766635  1  0  0.052191  0  0.962864  0  0  0.070781  0  1.026575  0  0  0.070685  0  1.029003  0  0  0.079375  0.070815  0  1.024843  0
H  H49  1  0.17412150  0.24507522  0.42233507  1  0  0.052195  0  0.962858  0  0  0.070787  0  1.02656  0  0  0.070703  0  1.028976  0  0  0.079384  0.070819  0  1.024831  0
H  H50  1  0.96953883  0.86322095  0.58547391  1  0  0.049406  0  0.940336  0  0  0.069534  0  1.001088  0  0  0.070078  0  1.001433  0  0  0.080324  0.068832  0  1.001025  0
H  H51  1  0.03046249  0.13677846  0.41452752  1  0  0.049419  0  0.940217  0  0  0.069524  0  1.000996  0  0  0.070063  0  1.001348  0  0  0.080338  0.068822  0  1.00093  0
C  C52  1  0.55298413  0.22889518  0.26250168  1  0  0.097814  0  3.771468  0  0  0.087262  0  4.015184  0  0  0.090342  0  4.038022  0  0  0.092963  0.085116  0  3.999812  0
C  C53  1  0.44701242  0.77110743  0.73749567  1  0  0.097712  0  3.771636  0  0  0.087315  0  4.015128  0  0  0.090396  0  4.037967  0  0  0.092974  0.085162  0  3.999766  0
C  C54  1  0.46841207  0.34293128  0.13111160  1  0  0.213141  0  3.64198  0  0  0.1416  0  3.925725  0  0  0.161327  0  3.931585  0  0  0.166623  0.12919  0  3.921627  0
C  C55  1  0.53158731  0.65707026  0.86888709  1  0  0.213166  0  3.641982  0  0  0.141653  0  3.925739  0  0  0.161389  0  3.931588  0  0  0.166657  0.129245  0  3.921642  0
C  C56  1  0.55393298  0.97805112  0.12510221  1  0  0.133868  0  3.710881  0  0  0.147202  0  3.952236  0  0  0.151815  0  3.974537  0  0  0.015056  0.144354  0  3.936522  0
C  C57  1  0.44606710  0.02194828  0.87489857  1  0  0.13386  0  3.710983  0  0  0.147208  0  3.952292  0  0  0.15179  0  3.974637  0  0  0.015076  0.14436  0  3.936584  0
C  C58  1  0.12823432  0.62380432  0.99504922  1  0  0.685983  0  3.859467  0  0  0.640631  0  4.157981  0  0  0.673595  0  4.151986  0  0  0.198684  0.618224  0  4.161185  0
C  C59  1  0.87176700  0.37619509  0.00495085  1  0  0.686074  0  3.859332  0  0  0.640667  0  4.157929  0  0  0.673626  0  4.151936  0  0  0.198693  0.618261  0  4.161135  0
C  C60  1  0.00014440  0.78802601  0.30671611  1  0  0.691788  0  3.864089  0  0  0.647735  0  4.160832  0  0  0.681145  0  4.153478  0  0  0.204253  0.625185  0  4.164376  0
C  C61  1  0.99985533  0.21197447  0.69328464  1  0  0.691812  0  3.864163  0  0  0.647748  0  4.160917  0  0  0.681159  0  4.153562  0  0  0.204271  0.625197  0  4.164468  0
C  C62  1  0.08731843  0.61794674  0.82182709  1  0  -0.092715  0  3.708897  0  0  -0.133659  0  3.97089  0  0  -0.133899  0  3.984399  0  0  -0.174821  -0.133331  0  3.961543  0
C  C63  1  0.91268289  0.38205267  0.17817366  1  0  -0.09272  0  3.708886  0  0  -0.133748  0  3.970962  0  0  -0.133991  0  3.984474  0  0  -0.174851  -0.133421  0  3.961615  0
C  C64  1  0.65391605  0.09014912  0.11863625  1  0  -0.046253  0  3.616292  0  0  -0.108893  0  3.856383  0  0  -0.105054  0  3.865337  0  0  -0.036144  -0.111083  0  3.849964  0
C  C65  1  0.34608313  0.90984921  0.88136320  1  0  -0.046255  0  3.616256  0  0  -0.10882  0  3.856269  0  0  -0.104977  0  3.865236  0  0  -0.036059  -0.111024  0  3.849852  0
C  C66  1  0.54080763  0.73296762  0.12566469  1  0  0.131738  0  3.672197  0  0  0.101644  0  3.921329  0  0  0.108512  0  3.939692  0  0  0.049685  0.097534  0  3.907782  0
C  C67  1  0.45919369  0.26703179  0.87433470  1  0  0.131666  0  3.672105  0  0  0.101584  0  3.921245  0  0  0.108448  0  3.939601  0  0  0.049624  0.097476  0  3.907697  0
C  C68  1  0.37553090  0.01730284  0.14153659  1  0  -0.176269  0  3.736671  0  0  -0.197292  0  3.987388  0  0  -0.205698  0  4.010352  0  0  -0.089483  -0.191714  0  3.971528  0
C  C69  1  0.62447076  0.98269549  0.85846350  1  0  -0.176217  0  3.736703  0  0  -0.197253  0  3.987406  0  0  -0.205647  0  4.010381  0  0  -0.08946  -0.191675  0  3.971545  0
C  C70  1  0.63773795  0.83250791  0.11613403  1  0  -0.158948  0  3.660574  0  0  -0.17587  0  3.903508  0  0  -0.18438  0  3.924473  0  0  -0.078221  -0.169977  0  3.888981  0
C  C71  1  0.36226337  0.16749150  0.88386603  1  0  -0.158945  0  3.660594  0  0  -0.175889  0  3.903536  0  0  -0.184387  0  3.924505  0  0  -0.07822  -0.169995  0  3.889007  0
C  C72  1  0.05923486  0.65377296  0.64880601  1  0  -0.109553  0  3.705372  0  0  -0.147325  0  3.962733  0  0  -0.148447  0  3.977837  0  0  -0.172074  -0.146402  0  3.952317  0
C  C73  1  0.94076522  0.34622645  0.35119408  1  0  -0.109529  0  3.705375  0  0  -0.147285  0  3.962707  0  0  -0.148401  0  3.977807  0  0  -0.172069  -0.146365  0  3.952294  0
C  C74  1  0.44518753  0.36736693  0.27908412  1  0  0.146042  0  3.812646  0  0  0.144032  0  4.055781  0  0  0.147648  0  4.078585  0  0  0.088358  0.141481  0  4.040456  0
C  C75  1  0.55481061  0.63263461  0.72091391  1  0  0.146223  0  3.812549  0  0  0.144191  0  4.055616  0  0  0.147807  0  4.078418  0  0  0.088441  0.141641  0  4.040294  0
C  C76  1  0.62282869  0.13156864  0.33242788  1  0  -0.144466  0  3.746709  0  0  -0.163608  0  3.999805  0  0  -0.166592  0  4.019961  0  0  -0.093763  -0.161562  0  3.986361  0
C  C77  1  0.37716731  0.86843183  0.66756953  1  0  -0.144549  0  3.746753  0  0  -0.163722  0  3.999794  0  0  -0.166713  0  4.019949  0  0  -0.093805  -0.161672  0  3.986358  0
C  C78  1  0.28765520  0.91218857  0.15092896  1  0  0.119381  0  3.714587  0  0  0.091315  0  3.959264  0  0  0.098204  0  3.976795  0  0  0.042109  0.086946  0  3.947402  0
C  C79  1  0.71234647  0.08780977  0.84907113  1  0  0.119358  0  3.714541  0  0  0.091308  0  3.95921  0  0  0.098191  0  3.976734  0  0  0.042093  0.086939  0  3.947348  0
C  C80  1  0.01440142  0.67741427  0.91378213  1  0  -0.255644  0  3.700866  0  0  -0.294601  0  3.955014  0  0  -0.300404  0  3.964463  0  0  -0.169298  -0.290527  0  3.948301  0
C  C81  1  0.98560079  0.32258621  0.08621858  1  0  -0.255632  0  3.700919  0  0  -0.294594  0  3.955112  0  0  -0.300397  0  3.964566  0  0  -0.169282  -0.29052  0  3.948398  0
C  C82  1  0.99095910  0.70721748  0.74284288  1  0  -0.102051  0  3.700967  0  0  -0.139128  0  3.961184  0  0  -0.140094  0  3.975936  0  0  -0.17082  -0.138349  0  3.951081  0
C  C83  1  0.00904187  0.29278300  0.25715785  1  0  -0.102044  0  3.700864  0  0  -0.139061  0  3.961041  0  0  -0.140027  0  3.975791  0  0  -0.170819  -0.138282  0  3.950939  0
C  C84  1  0.40699212  0.41375554  0.36854265  1  0  -0.137737  0  3.721266  0  0  -0.155396  0  3.969819  0  0  -0.157809  0  3.988557  0  0  -0.088534  -0.153833  0  3.957441  0
C  C85  1  0.59300726  0.58624601  0.63145672  1  0  -0.137747  0  3.721259  0  0  -0.155402  0  3.969808  0  0  -0.157815  0  3.988547  0  0  -0.08854  -0.153839  0  3.957429  0
C  C86  1  0.47690763  0.31723478  0.43877922  1  0  -0.079044  0  3.7931  0  0  -0.096129  0  4.05107  0  0  -0.098236  0  4.07293  0  0  -0.093761  -0.094677  0  4.036527  0
C  C87  1  0.52309210  0.68276570  0.56121949  1  0  -0.07912  0  3.792984  0  0  -0.096214  0  4.050971  0  0  -0.098322  0  4.072826  0  0  -0.093812  -0.094762  0  4.036428  0
C  C88  1  0.03519838  0.71117933  0.47759779  1  0  -0.084399  0  3.718792  0  0  -0.126894  0  3.981939  0  0  -0.126607  0  3.99594  0  0  -0.170992  -0.126707  0  3.972006  0
C  C89  1  0.96479976  0.28882221  0.52240229  1  0  -0.084382  0  3.718737  0  0  -0.126879  0  3.981858  0  0  -0.126579  0  3.995851  0  0  -0.170983  -0.126697  0  3.971927  0
C  C90  1  0.93199024  0.81060414  0.40466845  1  0  -0.259954  0  3.70119  0  0  -0.297117  0  3.951821  0  0  -0.302938  0  3.961022  0  0  -0.165589  -0.292825  0  3.944659  0
C  C91  1  0.06800825  0.18939634  0.59533232  1  0  -0.259963  0  3.701167  0  0  -0.297111  0  3.951797  0  0  -0.302933  0  3.960992  0  0  -0.165595  -0.292823  0  3.944635  0
C  C92  1  0.58202491  0.17847011  0.42117256  1  0  -0.071589  0  3.787804  0  0  -0.089232  0  4.046082  0  0  -0.091279  0  4.068273  0  0  -0.092928  -0.087924  0  4.031353  0
C  C93  1  0.41797269  0.82152929  0.57882553  1  0  -0.071498  0  3.787718  0  0  -0.089165  0  4.046008  0  0  -0.091201  0  4.0682  0  0  -0.09294  -0.08786  0  4.031278  0
C  C94  1  0.96372765  0.75269251  0.57322099  1  0  -0.107491  0  3.713914  0  0  -0.145653  0  3.975718  0  0  -0.146937  0  3.99106  0  0  -0.171549  -0.144585  0  3.965065  0
C  C95  1  0.03627173  0.24730904  0.42678043  1  0  -0.107526  0  3.713802  0  0  -0.145665  0  3.975586  0  0  -0.146958  0  3.990918  0  0  -0.171564  -0.144595  0  3.964933  0
N  N96  1  0.36915283  0.77186338  0.14387058  1  0  -0.340477  0  3.319969  0  0  -0.256602  0  3.59746  0  0  -0.275892  0  3.61197  0  0  -0.333464  -0.243887  0  3.587166  0
N  N97  1  0.63084884  0.22813496  0.85612950  1  0  -0.34042  0  3.319748  0  0  -0.25657  0  3.597262  0  0  -0.275844  0  3.611755  0  0  -0.333424  -0.243856  0  3.586969  0
N  N98  1  0.56637408  0.21814795  0.16786267  1  0  -0.115978  0  3.525771  0  0  -0.026462  0  3.747658  0  0  -0.04308  0  3.770843  0  0  -0.240946  -0.016106  0  3.731806  0
N  N99  1  0.43362316  0.78185252  0.83213540  1  0  -0.115932  0  3.525907  0  0  -0.026477  0  3.747732  0  0  -0.043093  0  3.770912  0  0  -0.240953  -0.016122  0  3.73189  0
N  N100  1  0.39375202  0.43516905  0.19499758  1  0  -0.432232  0  3.230777  0  0  -0.355804  0  3.536068  0  0  -0.377023  0  3.543221  0  0  -0.355022  -0.341731  0  3.530223  0
N  N101  1  0.60624736  0.56483249  0.80500180  1  0  -0.432323  0  3.23074  0  0  -0.355922  0  3.536053  0  0  -0.377142  0  3.543202  0  0  -0.355075  -0.341852  0  3.53021  0
O  O102  1  0.11857012  0.66972685  0.29284506  1  0  -0.658891  0  2.056592  0  0  -0.575764  0  2.327432  0  0  -0.605149  0  2.312106  0  0  -0.333737  -0.555051  0  2.336777  0
O  O103  1  0.88142837  0.33027363  0.70715503  1  0  -0.658929  0  2.056635  0  0  -0.575793  0  2.327466  0  0  -0.605177  0  2.31214  0  0  -0.333778  -0.555081  0  2.336818  0
O  O104  1  0.94092887  0.88133638  0.24632517  1  0  -0.645851  0  1.939894  0  0  -0.605174  0  2.171993  0  0  -0.628031  0  2.162369  0  0  -0.334675  -0.58932  0  2.177936  0
O  O105  1  0.05907120  0.11866302  0.75367424  1  0  -0.64585  0  1.939917  0  0  -0.60518  0  2.172043  0  0  -0.628038  0  2.162422  0  0  -0.334666  -0.589324  0  2.177986  0
O  O106  1  0.05412147  0.65949854  0.07410422  1  0  -0.663955  0  2.034504  0  0  -0.588067  0  2.308892  0  0  -0.616742  0  2.293151  0  0  -0.338095  -0.567798  0  2.318876  0
O  O107  1  0.94588199  0.34050195  0.92589510  1  0  -0.664009  0  2.034427  0  0  -0.588082  0  2.308795  0  0  -0.616773  0  2.293099  0  0  -0.338106  -0.567814  0  2.318782  0
O  O108  1  0.28344634  0.55559061  0.98516548  1  0  -0.633972  0  1.941774  0  0  -0.579988  0  2.172182  0  0  -0.604256  0  2.164401  0  0  -0.318877  -0.563146  0  2.177256  0
O  O109  1  0.71655533  0.44440773  0.01483460  1  0  -0.634033  0  1.941728  0  0  -0.580011  0  2.172146  0  0  -0.604272  0  2.164361  0  0  -0.318904  -0.563162  0  2.177206  0
