# generated using pymatgen
data_HoH14C12N3O10
_symmetry_space_group_name_H-M   'P 1'
_cell_length_a   7.79959326
_cell_length_b   10.62463262
_cell_length_c   12.01437018
_cell_angle_alpha   64.28809943
_cell_angle_beta   69.16119221
_cell_angle_gamma   71.72983531
_symmetry_Int_Tables_number   1
_chemical_formula_structural   HoH14C12N3O10
_chemical_formula_sum   'Ho2 H28 C24 N6 O20'
_cell_volume   823.23544808
_cell_formula_units_Z   2
loop_
 _symmetry_equiv_pos_site_id
 _symmetry_equiv_pos_as_xyz
  1  'x, y, z'
loop_
 _atom_site_type_symbol
 _atom_site_label
 _atom_site_symmetry_multiplicity
 _atom_site_fract_x
 _atom_site_fract_y
 _atom_site_fract_z
 _atom_site_occupancy
 _atom_site_hle17_bader_spin_density
 _atom_site_hle17_ddec_charge
 _atom_site_hle17_ddec_spin_density
 _atom_site_hle17_ddec_sum_bond_order
 _atom_site_hle17_magmom
 _atom_site_hse06_10hf_bader_spin_density
 _atom_site_hse06_10hf_ddec_charge
 _atom_site_hse06_10hf_ddec_spin_density
 _atom_site_hse06_10hf_ddec_sum_bond_order
 _atom_site_hse06_10hf_magmom
 _atom_site_hse06_bader_spin_density
 _atom_site_hse06_ddec_charge
 _atom_site_hse06_ddec_spin_density
 _atom_site_hse06_ddec_sum_bond_order
 _atom_site_hse06_magmom
 _atom_site_pbe_bader_spin_density
 _atom_site_pbe_cm5_charge
 _atom_site_pbe_ddec_charge
 _atom_site_pbe_ddec_spin_density
 _atom_site_pbe_ddec_sum_bond_order
 _atom_site_pbe_magmom
Ho  Ho0  1  0.23548803  0.04795794  0.49673745  1  0  2.266073  0  1.653868  0  0  2.123385  0  2.122506  0  0  2.252559  0  1.934348  0  0  1.535255  2.085325  0  2.154894  0
Ho  Ho1  1  0.76451912  0.95204253  0.50325768  1  0  2.26607  0  1.653904  0  0  2.123388  0  2.122532  0  0  2.252553  0  1.934388  0  0  1.535251  2.085329  0  2.154919  0
H  H2  1  0.99739263  0.38880300  0.71360413  1  0  0.101438  0  0.941345  0  0  0.11056  0  1.01171  0  0  0.113104  0  1.00935  0  0  0.114118  0.108794  0  1.013364  0
H  H3  1  0.00260843  0.61119325  0.28640562  1  0  0.101369  0  0.941487  0  0  0.110548  0  1.011779  0  0  0.113093  0  1.009414  0  0  0.11413  0.108782  0  1.013434  0
H  H4  1  0.85539095  0.56021944  0.67533340  1  0  0.125187  0  0.932362  0  0  0.137225  0  0.99219  0  0  0.140372  0  0.989957  0  0  0.123268  0.135026  0  0.993937  0
H  H5  1  0.14461078  0.43978000  0.32467166  1  0  0.125186  0  0.932403  0  0  0.137231  0  0.992229  0  0  0.140371  0  0.989999  0  0  0.123272  0.135032  0  0.993977  0
H  H6  1  0.80117189  0.47276699  0.30705531  1  0  0.12691  0  0.889685  0  0  0.146306  0  0.936971  0  0  0.147924  0  0.936184  0  0  0.134046  0.145177  0  0.937512  0
H  H7  1  0.19883144  0.52723138  0.69295146  1  0  0.126911  0  0.889682  0  0  0.146357  0  0.936908  0  0  0.147981  0  0.93612  0  0  0.134035  0.145226  0  0.937461  0
H  H8  1  0.62210929  0.45604210  0.45039695  1  0  0.111446  0  0.938922  0  0  0.11987  0  1.006394  0  0  0.123126  0  1.002576  0  0  0.117769  0.117513  0  1.00915  0
H  H9  1  0.37789460  0.54395414  0.54960885  1  0  0.111463  0  0.938818  0  0  0.119905  0  1.006298  0  0  0.123163  0  1.002477  0  0  0.117791  0.117549  0  1.009052  0
H  H10  1  0.27283600  0.49724412  0.91923730  1  0  0.11273  0  0.889097  0  0  0.128141  0  0.942015  0  0  0.130536  0  0.94009  0  0  0.12392  0.126495  0  0.943318  0
H  H11  1  0.72715200  0.50276169  0.08076005  1  0  0.112764  0  0.889174  0  0  0.128198  0  0.942065  0  0  0.130586  0  0.940147  0  0  0.123971  0.126551  0  0.943363  0
H  H12  1  0.49623559  0.50952541  0.80841427  1  0  0.118361  0  0.915773  0  0  0.128061  0  0.981438  0  0  0.130867  0  0.979358  0  0  0.119095  0.126034  0  0.982987  0
H  H13  1  0.50375594  0.49047721  0.19158351  1  0  0.118331  0  0.915851  0  0  0.128059  0  0.981475  0  0  0.130865  0  0.979392  0  0  0.119101  0.126032  0  0.983018  0
H  H14  1  0.77856562  0.23865718  0.18398952  1  0  0.127308  0  0.906852  0  0  0.138372  0  0.965523  0  0  0.140723  0  0.964351  0  0  0.127653  0.136699  0  0.966282  0
H  H15  1  0.22142930  0.76134861  0.81600379  1  0  0.127307  0  0.906893  0  0  0.138374  0  0.96555  0  0  0.140728  0  0.964373  0  0  0.127642  0.136703  0  0.96631  0
H  H16  1  0.69869382  0.15289322  0.11924155  1  0  0.124912  0  0.921776  0  0  0.135788  0  0.983882  0  0  0.138358  0  0.981477  0  0  0.129518  0.133922  0  0.985507  0
H  H17  1  0.30129689  0.84711260  0.88075686  1  0  0.124915  0  0.921773  0  0  0.135834  0  0.983816  0  0  0.138407  0  0.981413  0  0  0.129499  0.133966  0  0.985447  0
H  H18  1  0.35526162  0.93027163  0.12699767  1  0  0.13534  0  0.891491  0  0  0.150068  0  0.943855  0  0  0.152397  0  0.942134  0  0  0.128089  0.148423  0  0.945016  0
H  H19  1  0.64474119  0.06972990  0.87299636  1  0  0.135262  0  0.891527  0  0  0.15004  0  0.943856  0  0  0.152369  0  0.942135  0  0  0.128081  0.148393  0  0.945019  0
H  H20  1  0.29403598  0.11922333  0.06989858  1  0  0.146835  0  0.947174  0  0  0.153128  0  1.014332  0  0  0.157205  0  1.010601  0  0  0.125763  0.150249  0  1.01688  0
H  H21  1  0.70596705  0.88077714  0.93009746  1  0  0.146824  0  0.947187  0  0  0.153124  0  1.014341  0  0  0.157202  0  1.010606  0  0  0.125779  0.150246  0  1.016888  0
H  H22  1  0.18956963  0.79713864  0.10121346  1  0  0.111219  0  0.950187  0  0  0.119671  0  1.01945  0  0  0.121958  0  1.01837  0  0  0.118188  0.117994  0  1.020328  0
H  H23  1  0.81042808  0.20286079  0.89878833  1  0  0.111208  0  0.950201  0  0  0.11966  0  1.01947  0  0  0.121948  0  1.018389  0  0  0.118176  0.117981  0  1.02035  0
H  H24  1  0.98316747  0.85322119  0.20410135  1  0  0.096091  0  0.935232  0  0  0.108893  0  0.99946  0  0  0.111269  0  0.997805  0  0  0.11489  0.107168  0  1.000805  0
H  H25  1  0.01682812  0.14678143  0.79589803  1  0  0.096125  0  0.93519  0  0  0.108927  0  0.999419  0  0  0.111304  0  0.997763  0  0  0.114897  0.107201  0  1.000764  0
H  H26  1  0.31001847  0.16675283  0.64531862  1  0  0.442189  0  0.799231  0  0  0.426848  0  0.848396  0  0  0.435435  0  0.840011  0  0  0.335255  0.420862  0  0.85512  0
H  H27  1  0.68998093  0.83324553  0.35468071  1  0  0.44224  0  0.799136  0  0  0.426903  0  0.848293  0  0  0.435489  0  0.839909  0  0  0.335305  0.420916  0  0.855013  0
H  H28  1  0.41976909  0.24348142  0.50886210  1  0  0.444366  0  0.840188  0  0  0.416031  0  0.900754  0  0  0.427051  0  0.885021  0  0  0.312934  0.408273  0  0.912079  0
H  H29  1  0.58023249  0.75651906  0.49113759  1  0  0.444381  0  0.84017  0  0  0.41605  0  0.900723  0  0  0.42707  0  0.884989  0  0  0.312952  0.408292  0  0.912048  0
C  C30  1  0.83770986  0.43623781  0.58432791  1  0  0.520562  0  3.8108  0  0  0.470981  0  4.116402  0  0  0.499707  0  4.115611  0  0  0.239182  0.451788  0  4.115851  0
C  C31  1  0.16229450  0.56375631  0.41568109  1  0  0.520726  0  3.810855  0  0  0.471028  0  4.116611  0  0  0.499753  0  4.115822  0  0  0.23913  0.451841  0  4.116051  0
C  C32  1  0.95201957  0.48144488  0.63404960  1  0  -0.13643  0  3.660839  0  0  -0.196222  0  3.919634  0  0  -0.195621  0  3.925352  0  0  -0.052496  -0.19667  0  3.915565  0
C  C33  1  0.04798345  0.51854924  0.36595805  1  0  -0.136476  0  3.660933  0  0  -0.196282  0  3.919776  0  0  -0.195674  0  3.925485  0  0  -0.052561  -0.196743  0  3.915711  0
C  C34  1  0.77074213  0.41953585  0.41170743  1  0  -0.149761  0  3.634109  0  0  -0.209109  0  3.881423  0  0  -0.208123  0  3.884596  0  0  -0.047437  -0.209412  0  3.878227  0
C  C35  1  0.22926341  0.58045932  0.58829758  1  0  -0.149744  0  3.634037  0  0  -0.209176  0  3.881392  0  0  -0.208196  0  3.884573  0  0  -0.047422  -0.209478  0  3.878197  0
C  C36  1  0.80556810  0.25986493  0.44378191  1  0  0.766207  0  3.782702  0  0  0.721042  0  4.078287  0  0  0.75653  0  4.071745  0  0  0.244482  0.697172  0  4.085748  0
C  C37  1  0.19443594  0.74013129  0.55621720  1  0  0.766313  0  3.782627  0  0  0.721177  0  4.078203  0  0  0.756663  0  4.07166  0  0  0.244552  0.697308  0  4.085667  0
C  C38  1  0.41700060  0.50472858  0.90643567  1  0  -0.119839  0  3.65367  0  0  -0.179214  0  3.911661  0  0  -0.178253  0  3.917715  0  0  -0.042669  -0.179885  0  3.907477  0
C  C39  1  0.58298601  0.49527724  0.09356281  1  0  -0.119878  0  3.653793  0  0  -0.179229  0  3.911834  0  0  -0.17826  0  3.91788  0  0  -0.042733  -0.179886  0  3.907633  0
C  C40  1  0.65557323  0.23314365  0.16317794  1  0  -0.15446  0  3.65404  0  0  -0.213163  0  3.906898  0  0  -0.212914  0  3.911981  0  0  -0.051295  -0.212859  0  3.902555  0
C  C41  1  0.34442306  0.76686214  0.83681507  1  0  -0.154661  0  3.654232  0  0  -0.213305  0  3.907037  0  0  -0.213063  0  3.912131  0  0  -0.051267  -0.213001  0  3.902695  0
C  C42  1  0.50127792  0.36540466  0.99468248  1  0  0.518153  0  3.806477  0  0  0.46826  0  4.108151  0  0  0.496928  0  4.107223  0  0  0.244513  0.448952  0  4.108212  0
C  C43  1  0.49870755  0.63460011  0.00531833  1  0  0.518245  0  3.806375  0  0  0.468259  0  4.108161  0  0  0.496929  0  4.10723  0  0  0.244614  0.448947  0  4.108221  0
C  C44  1  0.51004667  0.17954148  0.28646356  1  0  0.731673  0  3.81393  0  0  0.68339  0  4.116098  0  0  0.717307  0  4.113342  0  0  0.215971  0.660004  0  4.123154  0
C  C45  1  0.48995170  0.82046645  0.71353482  1  0  0.732091  0  3.813567  0  0  0.683548  0  4.116134  0  0  0.717456  0  4.113392  0  0  0.216017  0.660164  0  4.123195  0
C  C46  1  0.23701353  0.02076010  0.12390033  1  0  -0.17888  0  3.608844  0  0  -0.234657  0  3.847064  0  0  -0.235496  0  3.851361  0  0  -0.056073  -0.23369  0  3.843072  0
C  C47  1  0.76299279  0.97923824  0.87609497  1  0  -0.178797  0  3.608653  0  0  -0.234659  0  3.846953  0  0  -0.235485  0  3.851228  0  0  -0.056183  -0.233697  0  3.842956  0
C  C48  1  0.14163297  0.01404989  0.26047254  1  0  0.775252  0  3.767494  0  0  0.734625  0  4.060201  0  0  0.770375  0  4.052054  0  0  0.243269  0.710743  0  4.067919  0
C  C49  1  0.85837493  0.98594739  0.73952448  1  0  0.775338  0  3.767514  0  0  0.734799  0  4.060066  0  0  0.770549  0  4.051916  0  0  0.243429  0.710942  0  4.067751  0
C  C50  1  0.06237501  0.87966548  0.10304533  1  0  -0.144839  0  3.691871  0  0  -0.207403  0  3.95593  0  0  -0.206955  0  3.962785  0  0  -0.05962  -0.207678  0  3.951183  0
C  C51  1  0.93762548  0.12033394  0.89695418  1  0  -0.144867  0  3.691849  0  0  -0.20743  0  3.955928  0  0  -0.206983  0  3.962789  0  0  -0.059629  -0.207701  0  3.951171  0
C  C52  1  0.05476484  0.13475149  0.96601182  1  0  0.498366  0  3.855025  0  0  0.451078  0  4.159333  0  0  0.47879  0  4.160236  0  0  0.232387  0.432457  0  4.158134  0
C  C53  1  0.94523702  0.86524793  0.03398739  1  0  0.498414  0  3.85491  0  0  0.451111  0  4.159269  0  0  0.47883  0  4.160161  0  0  0.232432  0.432491  0  4.158071  0
N  N54  1  0.88602197  0.45943785  0.45814678  1  0  -0.164046  0  3.449557  0  0  -0.086511  0  3.690829  0  0  -0.105445  0  3.711071  0  0  -0.275892  -0.073572  0  3.676492  0
N  N55  1  0.11398188  0.54055839  0.54186069  1  0  -0.164041  0  3.449718  0  0  -0.086436  0  3.690991  0  0  -0.10537  0  3.711237  0  0  -0.275805  -0.073504  0  3.676653  0
N  N56  1  0.58435987  0.36818412  0.07528400  1  0  -0.173969  0  3.447526  0  0  -0.094384  0  3.687881  0  0  -0.113779  0  3.708762  0  0  -0.277827  -0.081224  0  3.672957  0
N  N57  1  0.41562815  0.63182169  0.92471251  1  0  -0.173964  0  3.447578  0  0  -0.094242  0  3.687788  0  0  -0.113637  0  3.708677  0  0  -0.277807  -0.081075  0  3.672866  0
N  N58  1  0.11660461  0.01602517  0.05811961  1  0  -0.157447  0  3.445727  0  0  -0.075915  0  3.682233  0  0  -0.094578  0  3.703185  0  0  -0.276581  -0.063196  0  3.667359  0
N  N59  1  0.88339751  0.98397318  0.94187995  1  0  -0.157503  0  3.44556  0  0  -0.076013  0  3.682174  0  0  -0.094682  0  3.703122  0  0  -0.276569  -0.063296  0  3.6673  0
O  O60  1  0.70012534  0.38177779  0.66000408  1  0  -0.554015  0  1.860607  0  0  -0.518748  0  2.077071  0  0  -0.538642  0  2.070719  0  0  -0.314413  -0.504645  0  2.080714  0
O  O61  1  0.29988578  0.61821100  0.34000630  1  0  -0.554137  0  1.860644  0  0  -0.518816  0  2.077133  0  0  -0.538711  0  2.070789  0  0  -0.314399  -0.504712  0  2.080769  0
O  O62  1  0.96415906  0.18593605  0.45796501  1  0  -0.791045  0  2.153911  0  0  -0.739373  0  2.421412  0  0  -0.78282  0  2.409472  0  0  -0.411666  -0.720556  0  2.428654  0
O  O63  1  0.03584642  0.81406016  0.54203046  1  0  -0.79107  0  2.153913  0  0  -0.739415  0  2.421419  0  0  -0.782868  0  2.409497  0  0  -0.411681  -0.720598  0  2.428666  0
O  O64  1  0.67502369  0.20635836  0.45084133  1  0  -0.726944  0  2.042771  0  0  -0.670039  0  2.282561  0  0  -0.705518  0  2.270755  0  0  -0.362948  -0.650964  0  2.288806  0
O  O65  1  0.32497844  0.79363999  0.54915823  1  0  -0.727057  0  2.042708  0  0  -0.670167  0  2.282495  0  0  -0.705647  0  2.270688  0  0  -0.363001  -0.65109  0  2.288742  0
O  O66  1  0.49722809  0.25263865  0.98872452  1  0  -0.535731  0  1.948064  0  0  -0.500588  0  2.178233  0  0  -0.520144  0  2.170472  0  0  -0.293602  -0.487104  0  2.183152  0
O  O67  1  0.50275462  0.74736612  0.01127691  1  0  -0.53564  0  1.947954  0  0  -0.500526  0  2.178212  0  0  -0.520089  0  2.170455  0  0  -0.293576  -0.487044  0  2.183131  0
O  O68  1  0.34674007  0.24883450  0.30787260  1  0  -0.639614  0  1.980349  0  0  -0.592103  0  2.212899  0  0  -0.624029  0  2.204435  0  0  -0.34115  -0.575006  0  2.217544  0
O  O69  1  0.65325481  0.75117130  0.69212238  1  0  -0.639785  0  1.980098  0  0  -0.592167  0  2.212754  0  0  -0.624093  0  2.204299  0  0  -0.341169  -0.57507  0  2.217398  0
O  O70  1  0.55685309  0.05499654  0.36885415  1  0  -0.866029  0  2.172037  0  0  -0.808578  0  2.439464  0  0  -0.853531  0  2.426615  0  0  -0.461578  -0.78952  0  2.44681  0
O  O71  1  0.44314684  0.94501034  0.63114762  1  0  -0.86616  0  2.171986  0  0  -0.808633  0  2.439519  0  0  -0.853572  0  2.426656  0  0  -0.461596  -0.789571  0  2.446859  0
O  O72  1  0.24659256  0.01089648  0.32153359  1  0  -0.737763  0  2.082301  0  0  -0.690773  0  2.334102  0  0  -0.727714  0  2.320843  0  0  -0.408074  -0.672511  0  2.3406  0
O  O73  1  0.75342065  0.98910184  0.67845851  1  0  -0.737772  0  2.082388  0  0  -0.690819  0  2.334151  0  0  -0.727762  0  2.320894  0  0  -0.408097  -0.672564  0  2.340636  0
O  O74  1  0.96684863  0.01217633  0.30475292  1  0  -0.762704  0  2.043934  0  0  -0.716921  0  2.305892  0  0  -0.75485  0  2.292183  0  0  -0.412319  -0.698471  0  2.312673  0
O  O75  1  0.03315976  0.98781882  0.69524647  1  0  -0.76274  0  2.043946  0  0  -0.716959  0  2.305802  0  0  -0.754891  0  2.292095  0  0  -0.412345  -0.698521  0  2.312581  0
O  O76  1  0.09184684  0.25351787  0.93310589  1  0  -0.554593  0  1.863997  0  0  -0.525378  0  2.075664  0  0  -0.544116  0  2.06894  0  0  -0.329792  -0.512314  0  2.079726  0
O  O77  1  0.90816079  0.74648047  0.06689161  1  0  -0.554586  0  1.863981  0  0  -0.525362  0  2.075657  0  0  -0.544102  0  2.068929  0  0  -0.329809  -0.5123  0  2.07972  0
O  O78  1  0.29361310  0.22097034  0.55901136  1  0  -0.85252  0  1.822369  0  0  -0.812728  0  2.01079  0  0  -0.840076  0  1.980153  0  0  -0.604231  -0.799879  0  2.029422  0
O  O79  1  0.70638713  0.77903014  0.44098781  1  0  -0.852598  0  1.822272  0  0  -0.812797  0  2.010684  0  0  -0.840143  0  1.980046  0  0  -0.604304  -0.799949  0  2.029314  0
