# generated using pymatgen
data_NiH11C12(NO)3
_symmetry_space_group_name_H-M   'P 1'
_cell_length_a   8.99656857
_cell_length_b   8.38141952
_cell_length_c   8.63459223
_cell_angle_alpha   72.40206674
_cell_angle_beta   77.16896435
_cell_angle_gamma   75.67446010
_symmetry_Int_Tables_number   1
_chemical_formula_structural   NiH11C12(NO)3
_chemical_formula_sum   'Ni2 H22 C24 N6 O6'
_cell_volume   593.62161217
_cell_formula_units_Z   2
loop_
 _symmetry_equiv_pos_site_id
 _symmetry_equiv_pos_as_xyz
  1  'x, y, z'
loop_
 _atom_site_type_symbol
 _atom_site_label
 _atom_site_symmetry_multiplicity
 _atom_site_fract_x
 _atom_site_fract_y
 _atom_site_fract_z
 _atom_site_occupancy
 _atom_site_hle17_bader_spin_density
 _atom_site_hle17_ddec_charge
 _atom_site_hle17_ddec_spin_density
 _atom_site_hle17_ddec_sum_bond_order
 _atom_site_hle17_magmom
 _atom_site_hse06_10hf_bader_spin_density
 _atom_site_hse06_10hf_ddec_charge
 _atom_site_hse06_10hf_ddec_spin_density
 _atom_site_hse06_10hf_ddec_sum_bond_order
 _atom_site_hse06_10hf_magmom
 _atom_site_hse06_bader_spin_density
 _atom_site_hse06_ddec_charge
 _atom_site_hse06_ddec_spin_density
 _atom_site_hse06_ddec_sum_bond_order
 _atom_site_hse06_magmom
 _atom_site_pbe_bader_spin_density
 _atom_site_pbe_cm5_charge
 _atom_site_pbe_ddec_charge
 _atom_site_pbe_ddec_spin_density
 _atom_site_pbe_ddec_sum_bond_order
 _atom_site_pbe_magmom
Ni  Ni0  1  0.01060737  0.16753739  0.89635139  1  0  0.613674  0  2.360825  0  0  0.579247  0  2.843748  0  0  0.64744  0  2.770778  0  0  0.597366  0.545878  0  2.88677  0
Ni  Ni1  1  0.98939146  0.83246261  0.10364767  1  0  0.613699  0  2.360752  0  0  0.579283  0  2.843728  0  0  0.647424  0  2.770739  0  0  0.59736  0.545934  0  2.886499  0
H  H2  1  0.93381091  0.69309036  0.72715953  1  0  0.314673  0  0.842201  0  0  0.31195  0  0.878892  0  0  0.317576  0  0.875747  0  0  0.34234  0.308125  0  0.880839  0
H  H3  1  0.06619107  0.30691090  0.27283605  1  0  0.314667  0  0.842235  0  0  0.311942  0  0.878917  0  0  0.317568  0  0.87577  0  0  0.342356  0.308117  0  0.880871  0
H  H4  1  0.59816692  0.96994458  0.63494063  1  0  0.107028  0  0.950533  0  0  0.116148  0  1.011777  0  0  0.120942  0  1.008361  0  0  0.099713  0.112658  0  1.014555  0
H  H5  1  0.40183134  0.03005924  0.36506208  1  0  0.107017  0  0.950517  0  0  0.116135  0  1.011761  0  0  0.120928  0  1.00835  0  0  0.099702  0.112646  0  1.014536  0
H  H6  1  0.83568286  0.10676399  0.70402831  1  0  0.106535  0  0.941123  0  0  0.117409  0  0.995471  0  0  0.121399  0  0.991163  0  0  0.125746  0.114446  0  0.998665  0
H  H7  1  0.16431786  0.89323216  0.29597605  1  0  0.106483  0  0.941136  0  0  0.117431  0  0.99541  0  0  0.121425  0  0.991094  0  0  0.125702  0.11446  0  0.998601  0
H  H8  1  0.65673374  0.27561991  0.50462009  1  0  0.107585  0  0.967229  0  0  0.116567  0  1.030192  0  0  0.118207  0  1.032303  0  0  0.106059  0.115306  0  1.029556  0
H  H9  1  0.34327145  0.72437623  0.49537851  1  0  0.107589  0  0.967212  0  0  0.116575  0  1.030167  0  0  0.118215  0  1.032277  0  0  0.106054  0.115308  0  1.029528  0
H  H10  1  0.61447741  0.59942963  0.43256688  1  0  0.090053  0  0.952185  0  0  0.102936  0  1.010795  0  0  0.104291  0  1.010452  0  0  0.106022  0.101492  0  1.012318  0
H  H11  1  0.38552817  0.40056395  0.56743006  1  0  0.090048  0  0.952197  0  0  0.102944  0  1.010798  0  0  0.104297  0  1.010456  0  0  0.10603  0.101501  0  1.01232  0
H  H12  1  0.76631098  0.73211155  0.55015893  1  0  0.130575  0  0.973772  0  0  0.136849  0  1.039471  0  0  0.140884  0  1.037694  0  0  0.109194  0.133721  0  1.041186  0
H  H13  1  0.23368933  0.26788589  0.44983588  1  0  0.130521  0  0.973836  0  0  0.136789  0  1.039539  0  0  0.140822  0  1.037765  0  0  0.109187  0.133664  0  1.041259  0
H  H14  1  0.14269936  0.74434559  0.78953241  1  0  0.132721  0  0.956314  0  0  0.136051  0  1.027913  0  0  0.142144  0  1.021741  0  0  0.112701  0.131107  0  1.033114  0
H  H15  1  0.85730384  0.25565439  0.21045629  1  0  0.132756  0  0.956308  0  0  0.136091  0  1.027926  0  0  0.142186  0  1.021746  0  0  0.11271  0.131128  0  1.033159  0
H  H16  1  0.39871452  0.63040625  0.87916094  1  0  0.101241  0  0.977877  0  0  0.112445  0  1.034932  0  0  0.114937  0  1.032979  0  0  0.106897  0.110662  0  1.036262  0
H  H17  1  0.60128664  0.36959373  0.12083986  1  0  0.101218  0  0.977943  0  0  0.112422  0  1.034988  0  0  0.114913  0  1.033039  0  0  0.106895  0.110638  0  1.036311  0
H  H18  1  0.49190852  0.30415448  0.96359054  1  0  0.120517  0  0.97389  0  0  0.128552  0  1.033889  0  0  0.132415  0  1.032637  0  0  0.106296  0.125323  0  1.036698  0
H  H19  1  0.50808616  0.69584425  0.03641922  1  0  0.120503  0  0.973946  0  0  0.128534  0  1.033946  0  0  0.132397  0  1.032693  0  0  0.10629  0.125306  0  1.036751  0
H  H20  1  0.31878827  0.12353320  0.95960560  1  0  0.100899  0  0.979786  0  0  0.111365  0  1.035494  0  0  0.115189  0  1.031696  0  0  0.124189  0.108675  0  1.038212  0
H  H21  1  0.68120888  0.87646425  0.04040275  1  0  0.100862  0  0.979922  0  0  0.111375  0  1.035568  0  0  0.115198  0  1.031774  0  0  0.124202  0.108684  0  1.038283  0
H  H22  1  0.21416710  0.94614884  0.97167490  1  0  0.36818  0  0.942762  0  0  0.337443  0  1.03002  0  0  0.349854  0  1.019205  0  0  0.268909  0.328638  0  1.037242  0
H  H23  1  0.78583012  0.05385371  0.02832265  1  0  0.368195  0  0.942695  0  0  0.337483  0  1.029901  0  0  0.349895  0  1.019123  0  0  0.268942  0.328678  0  1.037124  0
C  C24  1  0.49436322  0.98581944  0.58160033  1  0  -0.184978  0  3.702411  0  0  -0.200597  0  3.952353  0  0  -0.206309  0  3.968396  0  0  -0.09593  -0.196618  0  3.94094  0
C  C25  1  0.50563577  0.01418692  0.41840260  1  0  -0.184886  0  3.702449  0  0  -0.200514  0  3.952397  0  0  -0.206228  0  3.968441  0  0  -0.095875  -0.196534  0  3.940979  0
C  C26  1  0.81333714  0.24534535  0.66824805  1  0  0.139229  0  3.654265  0  0  0.110399  0  3.896789  0  0  0.123816  0  3.909464  0  0  0.042937  0.101537  0  3.890299  0
C  C27  1  0.18666451  0.75465208  0.33175569  1  0  0.139259  0  3.654297  0  0  0.110373  0  3.896814  0  0  0.12379  0  3.909488  0  0  0.04297  0.10151  0  3.890288  0
C  C28  1  0.71279005  0.34114021  0.55967210  1  0  -0.155275  0  3.777406  0  0  -0.170265  0  4.032048  0  0  -0.181085  0  4.05438  0  0  -0.097852  -0.163866  0  4.020786  0
C  C29  1  0.28721199  0.65885466  0.44032999  1  0  -0.155275  0  3.777422  0  0  -0.170273  0  4.032084  0  0  -0.181094  0  4.054419  0  0  -0.097882  -0.16387  0  4.02079  0
C  C30  1  0.69086304  0.51947405  0.52000317  1  0  0.016762  0  3.745421  0  0  -0.002922  0  3.99516  0  0  0.006441  0  4.011391  0  0  -0.073638  -0.009917  0  3.984292  0
C  C31  1  0.30913902  0.48052083  0.48000007  1  0  0.016749  0  3.745472  0  0  -0.00294  0  3.995197  0  0  0.006426  0  4.011423  0  0  -0.073628  -0.009937  0  3.984313  0
C  C32  1  0.77294493  0.59401153  0.58738348  1  0  -0.216993  0  3.677701  0  0  -0.234628  0  3.930214  0  0  -0.246302  0  3.949131  0  0  -0.091904  -0.22642  0  3.917458  0
C  C33  1  0.22705555  0.40598590  0.41261940  1  0  -0.216961  0  3.677733  0  0  -0.234606  0  3.930268  0  0  -0.246276  0  3.949178  0  0  -0.091924  -0.226402  0  3.917489  0
C  C34  1  0.87315419  0.48852197  0.69773940  1  0  0.406423  0  3.780687  0  0  0.37882  0  4.041818  0  0  0.398746  0  4.056856  0  0  0.228156  0.364641  0  4.031942  0
C  C35  1  0.12685034  0.51147799  0.30225823  1  0  0.406476  0  3.780583  0  0  0.37888  0  4.041696  0  0  0.398804  0  4.056734  0  0  0.228191  0.36471  0  4.031767  0
C  C36  1  0.09470032  0.49364430  0.82367417  1  0  0.394783  0  3.791146  0  0  0.365593  0  4.057049  0  0  0.38493  0  4.072643  0  0  0.223142  0.351604  0  4.047001  0
C  C37  1  0.90530144  0.50635823  0.17632109  1  0  0.394696  0  3.791151  0  0  0.365585  0  4.056984  0  0  0.384921  0  4.072579  0  0  0.223142  0.351596  0  4.046896  0
C  C38  1  0.18409338  0.60668352  0.83029328  1  0  -0.226431  0  3.713282  0  0  -0.250153  0  3.988505  0  0  -0.259819  0  4.000718  0  0  -0.092042  -0.242388  0  3.980041  0
C  C39  1  0.81590741  0.39331774  0.16970028  1  0  -0.226328  0  3.713171  0  0  -0.250146  0  3.988465  0  0  -0.259815  0  4.000686  0  0  -0.092023  -0.242395  0  3.980021  0
C  C40  1  0.32849910  0.54181098  0.87898068  1  0  0.015785  0  3.727906  0  0  -0.006409  0  3.980748  0  0  0.003616  0  3.99415  0  0  -0.075352  -0.013286  0  3.971172  0
C  C41  1  0.67149722  0.45819030  0.12101864  1  0  0.01573  0  3.727952  0  0  -0.006438  0  3.980803  0  0  0.003586  0  3.994204  0  0  -0.075389  -0.013309  0  3.971199  0
C  C42  1  0.37988776  0.36490297  0.92408285  1  0  -0.151779  0  3.756441  0  0  -0.165778  0  4.011998  0  0  -0.176771  0  4.0321  0  0  -0.100019  -0.160543  0  4.003078  0
C  C43  1  0.62011111  0.63509702  0.07591852  1  0  -0.151743  0  3.756584  0  0  -0.165731  0  4.012133  0  0  -0.176723  0  4.032238  0  0  -0.099988  -0.160486  0  4.003174  0
C  C44  1  0.28286222  0.26109221  0.92254002  1  0  0.127759  0  3.668757  0  0  0.096436  0  3.916814  0  0  0.109512  0  3.930185  0  0  0.035133  0.086738  0  3.912146  0
C  C45  1  0.71713546  0.73890779  0.07745933  1  0  0.127776  0  3.668842  0  0  0.096417  0  3.9169  0  0  0.109491  0  3.930275  0  0  0.035101  0.086699  0  3.912229  0
C  C46  1  0.34581591  0.96903910  0.69915316  1  0  0.655458  0  3.944029  0  0  0.613834  0  4.238702  0  0  0.645569  0  4.233006  0  0  0.189311  0.592603  0  4.24104  0
C  C47  1  0.65418146  0.03096345  0.30085131  1  0  0.655443  0  3.944152  0  0  0.613816  0  4.238834  0  0  0.645551  0  4.233137  0  0  0.189295  0.592586  0  4.241161  0
N  N48  1  0.88984092  0.31665606  0.74132314  1  0  -0.3315  0  3.339077  0  0  -0.274582  0  3.628927  0  0  -0.302288  0  3.637629  0  0  -0.350778  -0.25911  0  3.623898  0
N  N49  1  0.11016113  0.68334519  0.25867589  1  0  -0.331491  0  3.339081  0  0  -0.274597  0  3.628974  0  0  -0.302286  0  3.637651  0  0  -0.35077  -0.259125  0  3.623823  0
N  N50  1  0.95721534  0.56349441  0.76153767  1  0  -0.446468  0  3.357731  0  0  -0.394593  0  3.595257  0  0  -0.41622  0  3.605575  0  0  -0.389901  -0.377686  0  3.587531  0
N  N51  1  0.04278686  0.43650557  0.23845823  1  0  -0.446449  0  3.357726  0  0  -0.394574  0  3.595222  0  0  -0.416189  0  3.605522  0  0  -0.389922  -0.377664  0  3.587467  0
N  N52  1  0.14062072  0.32189821  0.87400124  1  0  -0.34845  0  3.331949  0  0  -0.294683  0  3.631302  0  0  -0.322013  0  3.639704  0  0  -0.35177  -0.27945  0  3.626567  0
N  N53  1  0.85938014  0.67810305  0.12599578  1  0  -0.34841  0  3.331833  0  0  -0.294684  0  3.631236  0  0  -0.321993  0  3.639588  0  0  -0.351751  -0.279433  0  3.626372  0
O  O54  1  0.21818377  0.01218239  0.64554595  1  0  -0.636037  0  1.868784  0  0  -0.59795  0  2.095377  0  0  -0.619281  0  2.082997  0  0  -0.340655  -0.583108  0  2.103079  0
O  O55  1  0.78181377  0.98781888  0.35445654  1  0  -0.636043  0  1.86874  0  0  -0.59795  0  2.095339  0  0  -0.619284  0  2.082965  0  0  -0.340655  -0.583095  0  2.103015  0
O  O56  1  0.11763813  0.99331857  0.04888862  1  0  -0.702061  0  1.996954  0  0  -0.688912  0  2.323549  0  0  -0.752421  0  2.307681  0  0  -0.529655  -0.648844  0  2.332477  0
O  O57  1  0.88235897  0.00668526  0.95111322  1  0  -0.702033  0  1.996868  0  0  -0.6889  0  2.323481  0  0  -0.752384  0  2.307589  0  0  -0.529685  -0.648836  0  2.332413  0
O  O58  1  0.36325099  0.90751363  0.85190912  1  0  -0.649991  0  1.973024  0  0  -0.590643  0  2.195227  0  0  -0.615481  0  2.185141  0  0  -0.334628  -0.572001  0  2.200919  0
O  O59  1  0.63674820  0.09248508  0.14809718  1  0  -0.649985  0  1.973128  0  0  -0.590649  0  2.195318  0  0  -0.615488  0  2.185239  0  0  -0.334622  -0.571997  0  2.200985  0
