# generated using pymatgen
data_CuH9C14SN6
_symmetry_space_group_name_H-M   'P 1'
_cell_length_a   5.65034771
_cell_length_b   8.34118838
_cell_length_c   14.10691111
_cell_angle_alpha   85.90737900
_cell_angle_beta   82.78443183
_cell_angle_gamma   86.31575858
_symmetry_Int_Tables_number   1
_chemical_formula_structural   CuH9C14SN6
_chemical_formula_sum   'Cu2 H18 C28 S2 N12'
_cell_volume   656.89213522
_cell_formula_units_Z   2
loop_
 _symmetry_equiv_pos_site_id
 _symmetry_equiv_pos_as_xyz
  1  'x, y, z'
loop_
 _atom_site_type_symbol
 _atom_site_label
 _atom_site_symmetry_multiplicity
 _atom_site_fract_x
 _atom_site_fract_y
 _atom_site_fract_z
 _atom_site_occupancy
 _atom_site_hle17_bader_spin_density
 _atom_site_hle17_ddec_charge
 _atom_site_hle17_ddec_spin_density
 _atom_site_hle17_ddec_sum_bond_order
 _atom_site_hle17_magmom
 _atom_site_hse06_10hf_bader_spin_density
 _atom_site_hse06_10hf_ddec_charge
 _atom_site_hse06_10hf_ddec_spin_density
 _atom_site_hse06_10hf_ddec_sum_bond_order
 _atom_site_hse06_10hf_magmom
 _atom_site_hse06_bader_spin_density
 _atom_site_hse06_ddec_charge
 _atom_site_hse06_ddec_spin_density
 _atom_site_hse06_ddec_sum_bond_order
 _atom_site_hse06_magmom
 _atom_site_pbe_bader_spin_density
 _atom_site_pbe_cm5_charge
 _atom_site_pbe_ddec_charge
 _atom_site_pbe_ddec_spin_density
 _atom_site_pbe_ddec_sum_bond_order
 _atom_site_pbe_magmom
Cu  Cu0  1  0.40268103  0.65416537  0.49537323  1  0  0.397493  0  2.149913  0  0  0.307973  0  2.644302  0  0  0.30308  0  2.602864  0  0  0.482372  0.315196  0  2.669171  0
Cu  Cu1  1  0.59728693  0.34583986  0.50462440  1  0  0.397505  0  2.149756  0  0  0.307984  0  2.644129  0  0  0.303  0  2.602679  0  0  0.482293  0.315212  0  2.668905  0
H  H2  1  0.34152441  0.99293480  0.41851272  1  0  0.084059  0  0.923404  0  0  0.095043  0  0.981709  0  0  0.097405  0  0.980131  0  0  0.116042  0.093159  0  0.983137  0
H  H3  1  0.65845874  0.00708006  0.58148153  1  0  0.084185  0  0.923289  0  0  0.095082  0  0.98168  0  0  0.097472  0  0.98007  0  0  0.116076  0.093199  0  0.983105  0
H  H4  1  0.58751018  0.18660587  0.31204715  1  0  0.099993  0  1.011193  0  0  0.10136  0  1.08908  0  0  0.104654  0  1.087643  0  0  0.094862  0.09898  0  1.090247  0
H  H5  1  0.41250440  0.81339612  0.68795199  1  0  0.100051  0  1.011109  0  0  0.101393  0  1.089068  0  0  0.104685  0  1.087636  0  0  0.09491  0.099011  0  1.090238  0
H  H6  1  0.14544684  0.80997594  0.27855735  1  0  0.110621  0  0.955179  0  0  0.115071  0  1.027184  0  0  0.118565  0  1.025612  0  0  0.108396  0.112576  0  1.028446  0
H  H7  1  0.85453730  0.19000790  0.72144635  1  0  0.110663  0  0.955032  0  0  0.115124  0  1.027055  0  0  0.118616  0  1.02548  0  0  0.108411  0.112628  0  1.028316  0
H  H8  1  0.87651648  0.62980290  0.38417820  1  0  0.075013  0  0.979436  0  0  0.083089  0  1.045287  0  0  0.085225  0  1.043605  0  0  0.108247  0.081253  0  1.046903  0
H  H9  1  0.12345080  0.37019033  0.61582153  1  0  0.075097  0  0.97928  0  0  0.083107  0  1.045153  0  0  0.085246  0  1.043469  0  0  0.108253  0.081268  0  1.046778  0
H  H10  1  0.55885746  0.13586247  0.09803543  1  0  0.062722  0  0.936451  0  0  0.066722  0  1.008353  0  0  0.069751  0  1.003636  0  0  0.125356  0.06446  0  1.011745  0
H  H11  1  0.44115007  0.86413628  0.90197557  1  0  0.062797  0  0.936328  0  0  0.066723  0  1.008304  0  0  0.069743  0  1.003598  0  0  0.125391  0.064469  0  1.01167  0
H  H12  1  0.31506209  0.61595404  0.03996289  1  0  0.11184  0  0.968959  0  0  0.113603  0  1.0446  0  0  0.117829  0  1.041783  0  0  0.106189  0.110601  0  1.046687  0
H  H13  1  0.68496387  0.38405999  0.96003364  1  0  0.111868  0  0.968952  0  0  0.113634  0  1.044601  0  0  0.117883  0  1.041716  0  0  0.106206  0.110627  0  1.046687  0
H  H14  1  0.14441407  0.89790713  0.00978101  1  0  0.066037  0  0.987675  0  0  0.067882  0  1.065327  0  0  0.071018  0  1.062505  0  0  0.104667  0.065568  0  1.067391  0
H  H15  1  0.85558772  0.10209835  0.99021714  1  0  0.065968  0  0.98769  0  0  0.067835  0  1.065328  0  0  0.070984  0  1.062495  0  0  0.104647  0.065518  0  1.067395  0
H  H16  1  0.49445325  0.79329356  0.16265177  1  0  0.068414  0  0.961292  0  0  0.072458  0  1.033836  0  0  0.075465  0  1.03156  0  0  0.104703  0.070221  0  1.035569  0
H  H17  1  0.50556391  0.20670001  0.83734771  1  0  0.068352  0  0.961396  0  0  0.072403  0  1.033926  0  0  0.075397  0  1.03167  0  0  0.104645  0.070166  0  1.035652  0
H  H18  1  0.63663995  0.50665025  0.20024252  1  0  0.106004  0  0.981447  0  0  0.108654  0  1.056341  0  0  0.112133  0  1.055065  0  0  0.096712  0.106115  0  1.057357  0
H  H19  1  0.36339800  0.49334950  0.79975706  1  0  0.105981  0  0.981519  0  0  0.108645  0  1.056389  0  0  0.112123  0  1.055122  0  0  0.096702  0.106108  0  1.057401  0
C  C20  1  0.88803513  0.62466523  0.58229879  1  0  0.281756  0  3.934818  0  0  0.271117  0  4.225925  0  0  0.286884  0  4.241503  0  0  0.142  0.260733  0  4.214567  0
C  C21  1  0.11195194  0.37532680  0.41769723  1  0  0.282071  0  3.934699  0  0  0.271409  0  4.225827  0  0  0.287171  0  4.2414  0  0  0.142154  0.261021  0  4.214432  0
C  C22  1  0.52072069  0.95692217  0.38619199  1  0  0.11729  0  3.688197  0  0  0.088068  0  3.947513  0  0  0.09418  0  3.961682  0  0  0.040635  0.084019  0  3.938546  0
C  C23  1  0.47926374  0.04307837  0.61380653  1  0  0.117218  0  3.688257  0  0  0.088071  0  3.947541  0  0  0.094148  0  3.961692  0  0  0.040582  0.084023  0  3.938564  0
C  C24  1  0.65766222  0.06425806  0.32683784  1  0  -0.116803  0  3.710467  0  0  -0.141874  0  3.966663  0  0  -0.146332  0  3.984777  0  0  -0.078324  -0.139331  0  3.955017  0
C  C25  1  0.34234189  0.93574147  0.67316194  1  0  -0.116715  0  3.71071  0  0  -0.141773  0  3.966802  0  0  -0.146228  0  3.984918  0  0  -0.078315  -0.139237  0  3.955163  0
C  C26  1  0.88671679  0.01386578  0.28624150  1  0  0.033682  0  3.725744  0  0  0.046361  0  3.95259  0  0  0.047225  0  3.973011  0  0  0.011826  0.045892  0  3.938936  0
C  C27  1  0.11328265  0.98612649  0.71375889  1  0  0.033509  0  3.725962  0  0  0.046212  0  3.952784  0  0  0.047076  0  3.973192  0  0  0.011859  0.045721  0  3.939108  0
C  C28  1  0.96908788  0.85543053  0.30848075  1  0  -0.120617  0  3.696351  0  0  -0.142902  0  3.946648  0  0  -0.148504  0  3.967276  0  0  -0.073981  -0.139422  0  3.933128  0
C  C29  1  0.03089540  0.14456286  0.69152035  1  0  -0.120657  0  3.696505  0  0  -0.143032  0  3.946843  0  0  -0.148629  0  3.967467  0  0  -0.074096  -0.139551  0  3.933309  0
C  C30  1  0.81995092  0.75464854  0.36751147  1  0  0.11847  0  3.690839  0  0  0.092904  0  3.93527  0  0  0.098238  0  3.953055  0  0  0.036933  0.089192  0  3.924038  0
C  C31  1  0.18002363  0.24534245  0.63249159  1  0  0.118401  0  3.691207  0  0  0.093007  0  3.935599  0  0  0.098322  0  3.95337  0  0  0.036906  0.08929  0  3.924349  0
C  C32  1  0.03361104  0.12486441  0.22083653  1  0  0.402661  0  3.739902  0  0  0.384603  0  3.995409  0  0  0.40176  0  4.00593  0  0  0.262904  0.372924  0  3.988704  0
C  C33  1  0.96639271  0.87513875  0.77916378  1  0  0.402672  0  3.739883  0  0  0.384617  0  3.995359  0  0  0.401776  0  4.005874  0  0  0.262881  0.373005  0  3.988558  0
C  C34  1  0.08372605  0.37326009  0.14567586  1  0  0.398402  0  3.744226  0  0  0.380354  0  4.000122  0  0  0.397118  0  4.012054  0  0  0.260694  0.369284  0  3.991999  0
C  C35  1  0.91629050  0.62673955  0.85432474  1  0  0.39851  0  3.743996  0  0  0.380368  0  3.999938  0  0  0.397133  0  4.011867  0  0  0.260645  0.369303  0  3.991817  0
C  C36  1  0.37968336  0.17776844  0.12804555  1  0  0.346307  0  3.693661  0  0  0.299101  0  3.976989  0  0  0.315701  0  3.98443  0  0  0.19509  0.288293  0  3.971948  0
C  C37  1  0.62032231  0.82223247  0.87195904  1  0  0.346299  0  3.69341  0  0  0.299134  0  3.976716  0  0  0.31574  0  3.984148  0  0  0.195094  0.288328  0  3.97168  0
C  C38  1  0.98920928  0.53986325  0.12415573  1  0  0.019428  0  3.74313  0  0  0.035529  0  3.966687  0  0  0.034866  0  3.988809  0  0  0.006557  0.036102  0  3.951628  0
C  C39  1  0.01080725  0.46013644  0.87584629  1  0  0.019447  0  3.743179  0  0  0.035705  0  3.966599  0  0  0.035039  0  3.988724  0  0  0.006614  0.036272  0  3.951539  0
C  C40  1  0.13303982  0.65146658  0.06916634  1  0  -0.133766  0  3.692898  0  0  -0.152427  0  3.936578  0  0  -0.15797  0  3.957984  0  0  -0.080401  -0.148708  0  3.921984  0
C  C41  1  0.86697114  0.34853546  0.93083510  1  0  -0.133723  0  3.692805  0  0  -0.152456  0  3.936473  0  0  -0.157995  0  3.957894  0  0  -0.0804  -0.148732  0  3.921874  0
C  C42  1  0.03723963  0.80742615  0.05201132  1  0  0.106594  0  3.728349  0  0  0.082034  0  3.990008  0  0  0.085773  0  4.009081  0  0  0.032705  0.07979  0  3.97687  0
C  C43  1  0.96276432  0.19257567  0.94798550  1  0  0.10669  0  3.728447  0  0  0.082106  0  3.990122  0  0  0.08583  0  4.009195  0  0  0.032709  0.079867  0  3.976988  0
C  C44  1  0.67520267  0.74877174  0.13650090  1  0  0.113327  0  3.732919  0  0  0.092029  0  3.9901  0  0  0.096195  0  4.008353  0  0  0.039295  0.08943  0  3.977636  0
C  C45  1  0.32481228  0.25122658  0.86349702  1  0  0.113448  0  3.732659  0  0  0.092169  0  3.989819  0  0  0.096342  0  4.008079  0  0  0.039349  0.089569  0  3.977351  0
C  C46  1  0.75428974  0.59014960  0.15794121  1  0  -0.122378  0  3.684025  0  0  -0.143496  0  3.930131  0  0  -0.148289  0  3.949981  0  0  -0.079279  -0.14045  0  3.916988  0
C  C47  1  0.24572999  0.40985374  0.84206116  1  0  -0.12244  0  3.684177  0  0  -0.143623  0  3.930276  0  0  -0.148415  0  3.950125  0  0  -0.079285  -0.140583  0  3.917149  0
S  S48  1  0.62475439  0.55585984  0.62007317  1  0  -0.292481  0  2.553728  0  0  -0.261298  0  2.963831  0  0  -0.266995  0  2.942956  0  0  -0.15225  -0.256955  0  2.976304  0
S  S49  1  0.37524549  0.44413071  0.37991311  1  0  -0.292583  0  2.553316  0  0  -0.261388  0  2.963381  0  0  -0.267064  0  2.942466  0  0  -0.15223  -0.257038  0  2.975824  0
N  N50  1  0.07898472  0.67074824  0.55309840  1  0  -0.486034  0  3.119853  0  0  -0.438896  0  3.444984  0  0  -0.449437  0  3.44535  0  0  -0.429011  -0.432304  0  3.443867  0
N  N51  1  0.92101764  0.32926941  0.44690260  1  0  -0.486165  0  3.119872  0  0  -0.439017  0  3.445002  0  0  -0.449536  0  3.445341  0  0  -0.429089  -0.432419  0  3.443802  0
N  N52  1  0.59816039  0.80308316  0.40661480  1  0  -0.286765  0  3.375283  0  0  -0.215815  0  3.667269  0  0  -0.225602  0  3.676157  0  0  -0.362354  -0.210226  0  3.661439  0
N  N53  1  0.40180963  0.19691856  0.59338575  1  0  -0.286796  0  3.375423  0  0  -0.21592  0  3.667399  0  0  -0.225642  0  3.676217  0  0  -0.362276  -0.210331  0  3.661526  0
N  N54  1  0.94060243  0.27457978  0.20266190  1  0  -0.425567  0  2.959135  0  0  -0.388896  0  3.215297  0  0  -0.406229  0  3.2273  0  0  -0.294176  -0.377858  0  3.207713  0
N  N55  1  0.05940336  0.72542093  0.79733703  1  0  -0.425642  0  2.959058  0  0  -0.38895  0  3.215248  0  0  -0.40628  0  3.227245  0  0  -0.29419  -0.377937  0  3.207644  0
N  N56  1  0.30816131  0.33076017  0.10734509  1  0  -0.408752  0  2.965144  0  0  -0.370885  0  3.231475  0  0  -0.387418  0  3.243264  0  0  -0.303382  -0.360363  0  3.223728  0
N  N57  1  0.69185869  0.66923970  0.89266101  1  0  -0.408838  0  2.964863  0  0  -0.37095  0  3.231215  0  0  -0.387481  0  3.242995  0  0  -0.303394  -0.360429  0  3.223467  0
N  N58  1  0.25230131  0.06936254  0.18364486  1  0  -0.4141  0  2.981228  0  0  -0.372936  0  3.245063  0  0  -0.39025  0  3.257275  0  0  -0.302873  -0.361771  0  3.237152  0
N  N59  1  0.74769518  0.93064181  0.81635643  1  0  -0.414057  0  2.981078  0  0  -0.372867  0  3.24486  0  0  -0.390178  0  3.257064  0  0  -0.302849  -0.361726  0  3.236925  0
N  N60  1  0.81238475  0.85707020  0.08471136  1  0  -0.31293  0  3.078468  0  0  -0.274583  0  3.347998  0  0  -0.286101  0  3.365295  0  0  -0.320172  -0.266457  0  3.335825  0
N  N61  1  0.18760900  0.14292668  0.91528409  1  0  -0.313035  0  3.078386  0  0  -0.274699  0  3.347958  0  0  -0.286217  0  3.365255  0  0  -0.320183  -0.266565  0  3.335754  0
