# generated using pymatgen
data_Zn4H15C24N3O13
_symmetry_space_group_name_H-M   'P 1'
_cell_length_a   15.50770769
_cell_length_b   16.23161620
_cell_length_c   17.97369862
_cell_angle_alpha   120.98874071
_cell_angle_beta   90.70330112
_cell_angle_gamma   117.60228442
_symmetry_Int_Tables_number   1
_chemical_formula_structural   Zn4H15C24N3O13
_chemical_formula_sum   'Zn8 H30 C48 N6 O26'
_cell_volume   3244.32214207
_cell_formula_units_Z   2
loop_
 _symmetry_equiv_pos_site_id
 _symmetry_equiv_pos_as_xyz
  1  'x, y, z'
loop_
 _atom_site_type_symbol
 _atom_site_label
 _atom_site_symmetry_multiplicity
 _atom_site_fract_x
 _atom_site_fract_y
 _atom_site_fract_z
 _atom_site_occupancy
 _atom_site_pbe_bader_charge
 _atom_site_pbe_bader_spin_density
 _atom_site_pbe_cm5_charge
 _atom_site_pbe_ddec_charge
 _atom_site_pbe_ddec_spin_density
 _atom_site_pbe_ddec_sum_bond_order
 _atom_site_pbe_magmom
Zn  Zn0  1  0.03698206  0.15115914  0.05012064  1  1.302732  0  0.668243  0.950285  0  2.389157  0
Zn  Zn1  1  0.03003104  0.96526028  0.05976014  1  1.326969  0  0.682554  0.98383  0  2.343901  0
Zn  Zn2  1  0.23145890  0.13156467  0.04059319  1  1.298451  0  0.672547  0.967053  0  2.348903  0
Zn  Zn3  1  0.01995826  0.93995645  0.86670643  1  1.324735  0  0.68425  0.996524  0  2.299561  0
Zn  Zn4  1  0.63146048  0.93459928  0.44059624  1  1.311772  0  0.673018  0.971457  0  2.335268  0
Zn  Zn5  1  0.61072913  0.13585195  0.46051446  1  1.328584  0  0.685205  1.00157  0  2.267667  0
Zn  Zn6  1  0.60330378  0.10007507  0.62654638  1  1.32507  0  0.684324  0.985918  0  2.347324  0
Zn  Zn7  1  0.42566408  0.92708177  0.45020227  1  1.296736  0  0.666078  0.935751  0  2.419621  0
H  H8  1  0.44952981  0.75988568  0.98827228  1  0.466847  0  0.277529  0.271111  0  1.037934  0
H  H9  1  0.52675004  0.78863654  0.92827994  1  0.42375  0  0.305112  0.293944  0  0.939893  0
H  H10  1  0.52404498  0.85406087  0.15383080  1  0.052417  0  0.09636  0.104035  0  1.038934  0
H  H11  1  0.85587900  0.07524863  0.27467846  1  0.040139  0  0.106534  0.117289  0  0.993166  0
H  H12  1  0.71197179  0.90043073  0.98651950  1  0.070394  0  0.105507  0.11652  0  1.001427  0
H  H13  1  0.31502060  0.57491472  0.59369908  1  0.420662  0  0.303762  0.293591  0  0.953611  0
H  H14  1  0.24271355  0.43005043  0.51793297  1  0.412969  0  0.304207  0.294547  0  0.953193  0
H  H15  1  0.40376796  0.70096593  0.54814694  1  0.081513  0  0.105351  0.118395  0  0.991798  0
H  H16  1  0.37048270  0.54067803  0.26060774  1  0.085259  0  0.106657  0.116771  0  0.993195  0
H  H17  1  0.22097403  0.33103955  0.35554388  1  0.044803  0  0.105169  0.116911  0  0.99232  0
H  H18  1  0.11038284  0.40611544  0.76461620  1  0.40853  0  0.306417  0.291998  0  0.942006  0
H  H19  1  0.17084277  0.43775758  0.86219540  1  0.418587  0  0.300477  0.280704  0  0.967448  0
H  H20  1  0.94302692  0.23536734  0.66326829  1  0.051027  0  0.106831  0.116411  0  0.99278  0
H  H21  1  0.80816903  0.99374939  0.73116890  1  0.095019  0  0.114541  0.127133  0  0.979589  0
H  H22  1  0.11507967  0.29506025  0.89552913  1  0.057692  0  0.105492  0.115969  0  1.005481  0
H  H23  1  0.28449206  0.62973354  0.99857399  1  0.411313  0  0.307198  0.292642  0  0.940992  0
H  H24  1  0.23461508  0.64319628  0.92495207  1  0.426878  0  0.302022  0.285324  0  0.956932  0
H  H25  1  0.35921374  0.77489015  0.16243186  1  0.067422  0  0.10804  0.119566  0  0.999869  0
H  H26  1  0.33752106  0.06779879  0.26857319  1  0.101438  0  0.11359  0.125575  0  0.98064  0
H  H27  1  0.23019897  0.81127604  0.97526814  1  0.052934  0  0.106266  0.115968  0  0.991471  0
H  H28  1  0.44946909  0.45895692  0.81647563  1  0.452686  0  0.279194  0.27599  0  1.033924  0
H  H29  1  0.52641129  0.60713242  0.89427961  1  0.460369  0  0.283921  0.280294  0  1.013269  0
H  H30  1  0.52447190  0.34825346  0.72692263  1  0.047226  0  0.096511  0.106691  0  1.036547  0
H  H31  1  0.82843995  0.53994921  0.72094734  1  0.064124  0  0.100369  0.110823  0  1.009328  0
H  H32  1  0.71123993  0.71691898  0.91822127  1  0.073058  0  0.098984  0.112445  0  1.023929  0
H  H33  1  0.28805828  0.29815255  0.67634168  1  0.413627  0  0.305595  0.292461  0  0.936471  0
H  H34  1  0.23035794  0.32004034  0.75671190  1  0.468634  0  0.277065  0.268622  0  1.043967  0
H  H35  1  0.35483237  0.18147773  0.62586421  1  0.081594  0  0.106472  0.116947  0  1.001205  0
H  H36  1  0.32818196  0.00591100  0.74848573  1  0.075286  0  0.108334  0.118873  0  0.989885  0
H  H37  1  0.22119752  0.23414654  0.84268584  1  0.054675  0  0.097794  0.106172  0  1.031218  0
C  C38  1  0.60646177  0.86339467  0.05926483  1  0.358882  0  0.092418  0.306679  0  4.101569  0
C  C39  1  0.59949681  0.89214969  0.14630820  1  -0.001187  0  -0.10152  -0.222597  0  3.913176  0
C  C40  1  0.68839261  0.97029942  0.22358267  1  -0.050697  0  -0.009721  0.009687  0  3.997442  0
C  C41  1  0.78619396  0.01794226  0.21547836  1  0.056612  0  -0.095561  -0.163071  0  3.959834  0
C  C42  1  0.79277581  0.99169247  0.12921905  1  -0.014191  0  -0.013307  0.003775  0  4.016269  0
C  C43  1  0.70424411  0.91781770  0.05252492  1  -0.016946  0  -0.100094  -0.231096  0  3.942253  0
C  C44  1  0.89399291  0.03706104  0.11411844  1  1.550706  0  0.229389  0.613688  0  4.134098  0
C  C45  1  0.67613675  0.00144909  0.31575936  1  1.585064  0  0.23486  0.626328  0  4.127623  0
C  C46  1  0.31618529  0.51465799  0.46194757  1  0.388277  0  0.093317  0.313041  0  4.123219  0
C  C47  1  0.37403680  0.62296661  0.47867794  1  0.023366  0  -0.103043  -0.236448  0  3.935661  0
C  C48  1  0.39334421  0.63114619  0.40641461  1  -0.042759  0  -0.013213  0.008119  0  4.030292  0
C  C49  1  0.35521745  0.53313286  0.31650753  1  -0.016722  0  -0.098073  -0.170178  0  3.968246  0
C  C50  1  0.29069704  0.42598853  0.29931371  1  0.030045  0  -0.012781  0.009188  0  4.029469  0
C  C51  1  0.27142784  0.41585180  0.37066321  1  -0.037966  0  -0.102103  -0.235507  0  3.93188  0
C  C52  1  0.23541565  0.32207857  0.20159398  1  1.584721  0  0.236269  0.627278  0  4.145753  0
C  C53  1  0.44648705  0.74501910  0.42184861  1  1.56647  0  0.233664  0.620512  0  4.141171  0
C  C54  1  0.04092320  0.27638796  0.77993787  1  0.311532  0  0.084679  0.284429  0  4.113784  0
C  C55  1  0.94984025  0.20910205  0.70689142  1  -0.021096  0  -0.096508  -0.224748  0  3.939721  0
C  C56  1  0.86545059  0.11051406  0.69188468  1  0.012616  0  -0.00627  0.011811  0  3.998456  0
C  C57  1  0.87291041  0.07225900  0.74430013  1  0.007299  0  -0.083399  -0.142044  0  3.933268  0
C  C58  1  0.96463817  0.13872743  0.81611054  1  0.000252  0  -0.008962  0.005305  0  3.999983  0
C  C59  1  0.04657102  0.24222443  0.83609342  1  0.014288  0  -0.097578  -0.224514  0  3.951174  0
C  C60  1  0.97846225  0.10234788  0.87432090  1  1.569267  0  0.228925  0.609378  0  4.147294  0
C  C61  1  0.76460904  0.05535597  0.62469763  1  1.579789  0  0.235683  0.621151  0  4.143817  0
C  C62  1  0.29652603  0.78242755  0.05923315  1  0.345841  0  0.085115  0.286382  0  4.119832  0
C  C63  1  0.33886030  0.82315604  0.14914923  1  -0.012279  0  -0.097625  -0.227424  0  3.953046  0
C  C64  1  0.35633772  0.92710450  0.22369825  1  -0.023095  0  -0.008677  0.006368  0  4.003972  0
C  C65  1  0.32576259  0.98822132  0.21004576  1  0.038075  0  -0.084124  -0.143145  0  3.932718  0
C  C66  1  0.27710862  0.94292520  0.12013425  1  -0.042853  0  -0.005949  0.011328  0  3.996496  0
C  C67  1  0.26550685  0.84307453  0.04502890  1  0.007706  0  -0.096482  -0.223377  0  3.936826  0
C  C68  1  0.22934107  0.99473190  0.10068952  1  1.570272  0  0.236598  0.623639  0  4.140767  0
C  C69  1  0.40731091  0.96850825  0.31760975  1  1.578542  0  0.227727  0.606785  0  4.14625  0
C  C70  1  0.60218871  0.53320365  0.82011355  1  0.400739  0  0.098451  0.323112  0  4.114166  0
C  C71  1  0.59410760  0.43068881  0.75183946  1  -0.003264  0  -0.103923  -0.224521  0  3.906833  0
C  C72  1  0.67480089  0.43325085  0.71715653  1  -0.011935  0  -0.018724  -0.005366  0  4.022183  0
C  C73  1  0.76628284  0.53756163  0.74912233  1  0.005676  0  -0.106048  -0.177294  0  3.978821  0
C  C74  1  0.77859533  0.63874631  0.82381448  1  -0.017197  0  -0.02095  -0.008392  0  4.027667  0
C  C75  1  0.69858423  0.63694793  0.85919798  1  0.006317  0  -0.103405  -0.226186  0  3.911177  0
C  C76  1  0.87956661  0.75183445  0.87169174  1  1.5191  0  0.231688  0.621579  0  4.130409  0
C  C77  1  0.66290570  0.32014845  0.65014223  1  1.553051  0  0.234002  0.628618  0  4.116656  0
C  C78  1  0.28988048  0.22146502  0.73610783  1  0.369299  0  0.091685  0.30295  0  4.098777  0
C  C79  1  0.33219900  0.16565428  0.67674519  1  -0.047402  0  -0.09955  -0.232415  0  3.94864  0
C  C80  1  0.34783759  0.09117080  0.68312386  1  -0.031112  0  -0.011958  0.006064  0  4.024175  0
C  C81  1  0.31623171  0.06485456  0.74466500  1  0.054766  0  -0.092874  -0.157875  0  3.957711  0
C  C82  1  0.26728399  0.11419209  0.79921982  1  -0.049482  0  -0.009514  0.008571  0  4.002544  0
C  C83  1  0.25659634  0.19402111  0.79719593  1  0.017959  0  -0.099101  -0.22033  0  3.91478  0
C  C84  1  0.22278213  0.07993108  0.85980001  1  1.597039  0  0.235528  0.626756  0  4.13206  0
C  C85  1  0.40179419  0.04395700  0.62321647  1  1.547698  0  0.22918  0.610274  0  4.138094  0
N  N86  1  0.51983358  0.77900431  0.97988551  1  -1.22498  0  -0.596989  -0.621592  0  3.319784  0
N  N87  1  0.30429267  0.50506446  0.53427620  1  -1.201034  0  -0.602601  -0.633134  0  3.305194  0
N  N88  1  0.12767127  0.37462128  0.79472202  1  -1.186691  0  -0.589043  -0.611995  0  3.304202  0
N  N89  1  0.29016901  0.68488068  0.98440295  1  -1.19258  0  -0.589401  -0.617383  0  3.305892  0
N  N90  1  0.52152126  0.53200931  0.85109206  1  -1.2766  0  -0.602533  -0.623858  0  3.37404  0
N  N91  1  0.28640489  0.30603067  0.73612117  1  -1.231898  0  -0.594237  -0.614051  0  3.324709  0
O  O92  1  0.08088942  0.04258652  0.00041993  1  -1.213717  0  -0.581744  -1.049527  0  2.564745  0
O  O93  1  0.96167560  0.02804423  0.14494631  1  -1.167285  0  -0.32418  -0.559149  0  2.262167  0
O  O94  1  0.90424530  0.07799779  0.06779847  1  -1.154093  0  -0.313009  -0.538617  0  2.286562  0
O  O95  1  0.68127448  0.09554786  0.36793135  1  -1.169712  0  -0.316318  -0.557544  0  2.278073  0
O  O96  1  0.66041612  0.92931098  0.33265485  1  -1.158347  0  -0.309988  -0.535757  0  2.288449  0
O  O97  1  0.28639874  0.28160521  0.15892245  1  -1.166769  0  -0.312416  -0.541856  0  2.294183  0
O  O98  1  0.14154621  0.28552264  0.17018972  1  -1.166449  0  -0.313464  -0.54432  0  2.318955  0
O  O99  1  0.40111665  0.79840613  0.45168954  1  -1.17105  0  -0.315731  -0.545259  0  2.32182  0
O  O100  1  0.52899839  0.77742185  0.40177224  1  -1.17109  0  -0.313502  -0.54525  0  2.288656  0
O  O101  1  0.94411264  0.99655531  0.83490342  1  -1.167688  0  -0.315325  -0.553555  0  2.268993  0
O  O102  1  0.02638722  0.18314391  0.96024741  1  -1.169323  0  -0.316897  -0.541244  0  2.298181  0
O  O103  1  0.69691860  0.06673515  0.66113300  1  -1.165793  0  -0.317283  -0.550584  0  2.291808  0
O  O104  1  0.75622293  0.00715761  0.54012875  1  -1.152998  0  -0.306145  -0.53169  0  2.279274  0
O  O105  1  0.27297448  0.04645318  0.06494590  1  -1.153334  0  -0.307335  -0.533796  0  2.282415  0
O  O106  1  0.14624593  0.97778015  0.11986513  1  -1.16426  0  -0.314165  -0.547217  0  2.289953  0
O  O107  1  0.37806969  0.88958554  0.32965072  1  -1.161621  0  -0.316217  -0.537389  0  2.305354  0
O  O108  1  0.47546930  0.07508594  0.37655683  1  -1.18253  0  -0.315628  -0.553608  0  2.259941  0
O  O109  1  0.92592156  0.78025398  0.82227714  1  -1.16648  0  -0.321158  -0.552764  0  2.276775  0
O  O110  1  0.91074219  0.81138309  0.95932110  1  -1.1472  0  -0.314874  -0.555589  0  2.329488  0
O  O111  1  0.64772375  0.26035408  0.68035087  1  -1.167394  0  -0.315817  -0.556587  0  2.321017  0
O  O112  1  0.66821934  0.29293448  0.57031791  1  -1.162562  0  -0.317022  -0.549534  0  2.264555  0
O  O113  1  0.27434063  0.15076970  0.94544923  1  -1.166643  0  -0.309777  -0.533981  0  2.286925  0
O  O114  1  0.13711319  0.98326845  0.82016268  1  -1.173998  0  -0.317367  -0.558735  0  2.282645  0
O  O115  1  0.37144483  0.00674977  0.53944506  1  -1.160471  0  -0.314446  -0.538021  0  2.295455  0
O  O116  1  0.47645220  0.04795515  0.65948169  1  -1.16239  0  -0.319694  -0.550583  0  2.262797  0
O  O117  1  0.57709944  0.03179500  0.49543480  1  -1.230022  0  -0.581354  -1.04821  0  2.557424  0
