# generated using pymatgen
data_AgH21C28SN3(O3F)3
_symmetry_space_group_name_H-M   'P 1'
_cell_length_a   14.10693758
_cell_length_b   15.78034970
_cell_length_c   17.57812895
_cell_angle_alpha   65.24908942
_cell_angle_beta   67.43584046
_cell_angle_gamma   74.24655771
_symmetry_Int_Tables_number   1
_chemical_formula_structural   AgH21C28SN3(O3F)3
_chemical_formula_sum   'Ag4 H84 C112 S4 N12 O36 F12'
_cell_volume   3252.81619648
_cell_formula_units_Z   4
loop_
 _symmetry_equiv_pos_site_id
 _symmetry_equiv_pos_as_xyz
  1  'x, y, z'
loop_
 _atom_site_type_symbol
 _atom_site_label
 _atom_site_symmetry_multiplicity
 _atom_site_fract_x
 _atom_site_fract_y
 _atom_site_fract_z
 _atom_site_occupancy
 _atom_site_pbe_bader_charge
 _atom_site_pbe_bader_spin_density
 _atom_site_pbe_cm5_charge
 _atom_site_pbe_ddec_charge
 _atom_site_pbe_ddec_spin_density
 _atom_site_pbe_ddec_sum_bond_order
 _atom_site_pbe_magmom
Ag  Ag0  1  0.37947392  0.79202986  0.19368371  1  0.586567  0  0.461403  0.303818  0  1.928575  0
Ag  Ag1  1  0.62052450  0.20797016  0.80631583  1  0.586557  0  0.461401  0.303823  0  1.928586  0
Ag  Ag2  1  0.04941416  0.24750017  0.32510654  1  0.591584  0  0.470185  0.30049  0  1.980592  0
Ag  Ag3  1  0.95058723  0.75250055  0.67489183  1  0.591601  0  0.470165  0.300464  0  1.9806  0
H  H4  1  0.50544358  0.61725737  0.29187878  1  0.150468  0  0.121207  0.110884  0  0.993728  0
H  H5  1  0.49455648  0.38274195  0.70812109  1  0.150463  0  0.121209  0.110878  0  0.993723  0
H  H6  1  0.48475820  0.47693958  0.43238601  1  0.100068  0  0.113979  0.123101  0  1.00204  0
H  H7  1  0.51524166  0.52306114  0.56761339  1  0.100059  0  0.113985  0.123102  0  1.002007  0
H  H8  1  0.17397845  0.60586567  0.52944572  1  0.123316  0  0.11273  0.119646  0  1.006739  0
H  H9  1  0.82602151  0.39413434  0.47055392  1  0.123301  0  0.112721  0.119635  0  1.006771  0
H  H10  1  0.20372386  0.73661742  0.38162424  1  0.12256  0  0.113411  0.09113  0  1.033176  0
H  H11  1  0.79627696  0.26338189  0.61837540  1  0.122549  0  0.113394  0.0911  0  1.033159  0
H  H12  1  0.29250044  0.29076197  0.68961605  1  0.145026  0  0.113751  0.104769  0  1.000738  0
H  H13  1  0.70750028  0.70923804  0.31038278  1  0.145003  0  0.113784  0.104808  0  1.000783  0
H  H14  1  0.42848363  0.26293934  0.67137750  1  0.078946  0  0.110266  0.097144  0  0.992106  0
H  H15  1  0.57151710  0.73706067  0.32862133  1  0.078944  0  0.110272  0.097138  0  0.992107  0
H  H16  1  0.35714361  0.02332601  0.09827420  1  0.135427  0  0.114507  0.095135  0  1.034898  0
H  H17  1  0.64285579  0.97667260  0.90172786  1  0.135624  0  0.114535  0.095209  0  1.034879  0
H  H18  1  0.33668145  0.16641887  0.13115762  1  0.129269  0  0.114669  0.127386  0  0.98663  0
H  H19  1  0.66331861  0.83358045  0.86884396  1  0.1292  0  0.11468  0.127423  0  0.986675  0
H  H20  1  0.36502109  0.98423129  0.38787546  1  0.126032  0  0.108401  0.117869  0  1.030433  0
H  H21  1  0.63498060  0.01576732  0.61212701  1  0.126083  0  0.108384  0.117871  0  1.030492  0
H  H22  1  0.38150940  0.84768371  0.34591362  1  0.10634  0  0.111415  0.080893  0  1.012191  0
H  H23  1  0.61849066  0.15231560  0.65408740  1  0.106359  0  0.111414  0.080877  0  1.0122  0
H  H24  1  0.28046150  0.27354910  0.38300380  1  0.083692  0  0.106849  0.082554  0  0.991402  0
H  H25  1  0.71953846  0.72645091  0.61699584  1  0.083698  0  0.106846  0.082558  0  0.991415  0
H  H26  1  0.41777967  0.26551152  0.33644099  1  0.128564  0  0.11455  0.104072  0  0.967527  0
H  H27  1  0.58222039  0.73448779  0.66355945  1  0.128558  0  0.114547  0.104076  0  0.967526  0
H  H28  1  0.40809013  0.66321838  0.08633742  1  0.093964  0  0.119828  0.087518  0  0.975008  0
H  H29  1  0.59190926  0.33678023  0.91366350  1  0.093985  0  0.119787  0.087452  0  0.975063  0
H  H30  1  0.42071930  0.68038175  0.93405067  1  0.107916  0  0.117348  0.12812  0  0.977674  0
H  H31  1  0.57928055  0.31961897  0.06594930  1  0.107964  0  0.11734  0.12811  0  0.977677  0
H  H32  1  0.38341342  0.98172764  0.86664389  1  0.158434  0  0.11403  0.132783  0  1.036932  0
H  H33  1  0.61658741  0.01827167  0.13335632  1  0.158421  0  0.114019  0.132755  0  1.036938  0
H  H34  1  0.37560944  0.95332966  0.01679350  1  0.112386  0  0.115489  0.091823  0  1.025378  0
H  H35  1  0.62439138  0.04666965  0.98320671  1  0.112409  0  0.115478  0.091791  0  1.025396  0
H  H36  1  0.32522376  0.92348848  0.66640819  1  0.100135  0  0.108495  0.095382  0  1.009151  0
H  H37  1  0.67477717  0.07651013  0.33359283  1  0.100111  0  0.108493  0.095384  0  1.009146  0
H  H38  1  0.46206850  0.91597462  0.62541974  1  0.093403  0  0.105875  0.083654  0  1.020711  0
H  H39  1  0.53793145  0.08402539  0.37457933  1  0.093406  0  0.105859  0.08363  0  1.020725  0
H  H40  1  0.35626335  0.32563847  0.47455628  1  0.066433  0  0.097777  0.104334  0  1.022214  0
H  H41  1  0.64373584  0.67436155  0.52544360  1  0.066425  0  0.09776  0.104312  0  1.022262  0
H  H42  1  0.37191590  0.03996511  0.49793322  1  0.079416  0  0.100254  0.111512  0  1.031067  0
H  H43  1  0.62808406  0.96003490  0.50206642  1  0.079432  0  0.100246  0.111526  0  1.031095  0
H  H44  1  0.39137531  0.09745501  0.70991595  1  0.114455  0  0.102935  0.120971  0  1.053339  0
H  H45  1  0.60862541  0.90254500  0.29008345  1  0.114445  0  0.102941  0.120994  0  1.053319  0
H  H46  1  0.21144590  0.34627033  0.15131310  1  0.127521  0  0.115296  0.09789  0  1.017173  0
H  H47  1  0.78855682  0.65373179  0.84868319  1  0.127517  0  0.115295  0.09789  0  1.017175  0
H  H48  1  0.22428691  0.48768590  0.01263702  1  0.106969  0  0.116179  0.125705  0  0.984966  0
H  H49  1  0.77571187  0.51231693  0.98736079  1  0.106956  0  0.116199  0.125743  0  0.984943  0
H  H50  1  0.89313072  0.55784743  0.10958798  1  0.157043  0  0.111026  0.126104  0  1.011729  0
H  H51  1  0.10686924  0.44215259  0.89041223  1  0.15704  0  0.111025  0.126101  0  1.011728  0
H  H52  1  0.89283730  0.41175251  0.24404542  1  0.135509  0  0.123392  0.110409  0  0.976647  0
H  H53  1  0.10716440  0.58824609  0.75595478  1  0.135448  0  0.123388  0.110409  0  0.97669  0
H  H54  1  0.11330961  0.75282609  0.81965473  1  0.105786  0  0.110957  0.092413  0  1.007846  0
H  H55  1  0.88668861  0.24717534  0.18034719  1  0.10576  0  0.110948  0.092394  0  1.007824  0
H  H56  1  0.24697138  0.72895615  0.81162083  1  0.125332  0  0.113828  0.11047  0  0.976  0
H  H57  1  0.75302760  0.27104527  0.18837745  1  0.125312  0  0.113822  0.110452  0  0.976106  0
H  H58  1  0.02938440  0.36594104  0.43508763  1  0.079984  0  0.11949  0.088318  0  0.982632  0
H  H59  1  0.97061546  0.63405968  0.56491065  1  0.079932  0  0.119502  0.088327  0  0.982587  0
H  H60  1  0.05427216  0.34558786  0.57666982  1  0.127276  0  0.120465  0.132856  0  0.972847  0
H  H61  1  0.94572856  0.65441215  0.42332902  1  0.127215  0  0.120483  0.132864  0  0.972778  0
H  H62  1  0.14701382  0.04921623  0.61746135  1  0.170899  0  0.115403  0.135174  0  1.020474  0
H  H63  1  0.85298767  0.95078378  0.38253725  1  0.170924  0  0.115415  0.135168  0  1.020489  0
H  H64  1  0.12188899  0.08080185  0.47679130  1  0.119053  0  0.116907  0.088138  0  1.012241  0
H  H65  1  0.87811020  0.91919817  0.52320801  1  0.119069  0  0.116905  0.088128  0  1.012216  0
H  H66  1  0.08256638  0.11579364  0.85996358  1  0.086003  0  0.109176  0.084825  0  1.004007  0
H  H67  1  0.91743164  0.88420920  0.14003617  1  0.086102  0  0.10915  0.084789  0  1.004064  0
H  H68  1  0.21771034  0.09322350  0.81263500  1  0.134814  0  0.113146  0.105657  0  1.002967  0
H  H69  1  0.78228865  0.90677793  0.18736498  1  0.134843  0  0.11315  0.105648  0  1.002981  0
H  H70  1  0.06496748  0.19926031  0.16166066  1  0.139859  0  0.115016  0.091496  0  1.024026  0
H  H71  1  0.93503345  0.80073830  0.83833978  1  0.139878  0  0.115025  0.091492  0  1.023969  0
H  H72  1  0.08345301  0.06271005  0.11884790  1  0.122396  0  0.110568  0.122864  0  1.020019  0
H  H73  1  0.91654791  0.93728855  0.88115312  1  0.122362  0  0.11056  0.122825  0  1.020056  0
H  H74  1  0.12301401  0.88038426  0.37193721  1  0.116115  0  0.113473  0.124247  0  1.00347  0
H  H75  1  0.87698519  0.11961576  0.62806438  1  0.115748  0  0.113466  0.124232  0  1.003486  0
H  H76  1  0.09871161  0.02204166  0.40652496  1  0.095395  0  0.113354  0.088497  0  1.026621  0
H  H77  1  0.90128835  0.97795836  0.59347582  1  0.095427  0  0.113346  0.088506  0  1.026611  0
H  H78  1  0.05903405  0.77474397  0.16086732  1  0.094558  0  0.113503  0.099925  0  0.981628  0
H  H79  1  0.94096725  0.22525746  0.83913365  1  0.094545  0  0.113505  0.099877  0  0.981624  0
H  H80  1  0.19561275  0.76607968  0.13022546  1  0.101715  0  0.106372  0.078691  0  1.010923  0
H  H81  1  0.80438838  0.23391752  0.86977431  1  0.101754  0  0.106357  0.078692  0  1.010908  0
H  H82  1  0.15624986  0.92228086  0.77559833  1  0.089461  0  0.104191  0.124976  0  1.03015  0
H  H83  1  0.84374979  0.07772127  0.22440174  1  0.08945  0  0.104215  0.124978  0  1.030171  0
H  H84  1  0.12232582  0.99500988  0.99596235  1  0.087017  0  0.102201  0.113679  0  1.025177  0
H  H85  1  0.87767414  0.00499014  0.00403900  1  0.087008  0  0.10222  0.113711  0  1.025173  0
H  H86  1  0.14752756  0.70532775  0.02801992  1  0.051154  0  0.099607  0.105364  0  1.019635  0
H  H87  1  0.85247077  0.29467297  0.97198053  1  0.051153  0  0.099605  0.10533  0  1.01964  0
C  C88  1  0.43261109  0.61073438  0.34559004  1  0.463689  0  0.042812  0.079075  0  3.926976  0
C  C89  1  0.56738897  0.38926493  0.65441040  1  0.463694  0  0.042799  0.079073  0  3.926992  0
C  C90  1  0.42116538  0.53376959  0.42401378  1  -0.039259  0  -0.076831  -0.1401  0  3.954924  0
C  C91  1  0.57883458  0.46623043  0.57598643  1  -0.039238  0  -0.076824  -0.140072  0  3.954851  0
C  C92  1  0.32630333  0.53040604  0.49111226  1  -0.013819  0  -0.000328  -0.003515  0  3.994201  0
C  C93  1  0.67369673  0.46959327  0.50888761  1  -0.013786  0  -0.000309  -0.00351  0  3.994163  0
C  C94  1  0.24758833  0.60569278  0.47743683  1  -0.018568  0  -0.07201  -0.127546  0  3.939613  0
C  C95  1  0.75241240  0.39430723  0.52256201  1  -0.018604  0  -0.072001  -0.127543  0  3.939649  0
C  C96  1  0.26460344  0.67885314  0.39640724  1  0.481132  0  0.044795  0.089594  0  3.928177  0
C  C97  1  0.73539728  0.32114688  0.60359216  1  0.48115  0  0.044792  0.089631  0  3.928142  0
C  C98  1  0.30364261  0.44749247  0.57483953  1  1.5362  0  0.234122  0.500768  0  4.119677  0
C  C99  1  0.69635812  0.55250754  0.42515931  1  1.536109  0  0.234115  0.500773  0  4.119682  0
C  C100  1  0.36797404  0.28550205  0.63959371  1  0.368674  0  -0.061044  -0.021477  0  3.840118  0
C  C101  1  0.63202745  0.71449796  0.36040489  1  0.368725  0  -0.061103  -0.021505  0  3.840149  0
C  C102  1  0.35704682  0.01641554  0.16254633  1  0.50299  0  0.04528  0.090151  0  3.929364  0
C  C103  1  0.64295257  0.98358307  0.83745572  1  0.502678  0  0.045264  0.090039  0  3.929369  0
C  C104  1  0.34622784  0.09697448  0.18057937  1  -0.021326  0  -0.070313  -0.122736  0  3.924155  0
C  C105  1  0.65377079  0.90302414  0.81942292  1  -0.021159  0  -0.0703  -0.122737  0  3.924284  0
C  C106  1  0.34885485  0.08677389  0.26266271  1  -0.058439  0  -0.003779  -0.015131  0  3.993811  0
C  C107  1  0.65114597  0.91322542  0.73733750  1  -0.05851  0  -0.00379  -0.015122  0  3.993911  0
C  C108  1  0.36270831  0.99589532  0.32320116  1  0.018801  0  -0.074941  -0.125732  0  3.92822  0
C  C109  1  0.63729329  0.00410399  0.67679995  1  0.01881  0  -0.074925  -0.125746  0  3.928197  0
C  C110  1  0.37209633  0.91940422  0.29974967  1  0.484008  0  0.046959  0.097999  0  3.936122  0
C  C111  1  0.62790363  0.08059580  0.70025168  1  0.483967  0  0.046915  0.097973  0  3.936041  0
C  C112  1  0.33838763  0.17251456  0.28260437  1  1.502888  0  0.233937  0.499404  0  4.131182  0
C  C113  1  0.66161396  0.82748475  0.71739560  1  1.502896  0  0.233939  0.499429  0  4.131271  0
C  C114  1  0.35336078  0.22593437  0.38535965  1  0.35849  0  -0.056181  -0.012823  0  3.863574  0
C  C115  1  0.64663918  0.77406564  0.61464000  1  0.358462  0  -0.056193  -0.012829  0  3.863617  0
C  C116  1  0.40310937  0.73246179  0.03532273  1  0.432131  0  0.042489  0.071417  0  3.961474  0
C  C117  1  0.59688992  0.26753753  0.96467852  1  0.432143  0  0.042577  0.071586  0  3.961501  0
C  C118  1  0.41023511  0.74192340  0.95110598  1  -0.005674  0  -0.072323  -0.128817  0  3.938712  0
C  C119  1  0.58976572  0.25807591  0.04889423  1  -0.005747  0  -0.072316  -0.128859  0  3.938767  0
C  C120  1  0.40201485  0.83241595  0.88819569  1  -0.009926  0  0.003392  -0.00036  0  3.980762  0
C  C121  1  0.59798664  0.16758407  0.11180405  1  -0.009814  0  0.00339  -0.000306  0  3.98069  0
C  C122  1  0.38962238  0.90950070  0.91221715  1  0.03492  0  -0.070335  -0.124358  0  3.906049  0
C  C123  1  0.61037922  0.09049861  0.08778282  1  0.034895  0  -0.070337  -0.124363  0  3.90599  0
C  C124  1  0.38388787  0.89365529  0.99788045  1  0.459132  0  0.053462  0.105266  0  3.887731  0
C  C125  1  0.61611285  0.10634473  0.00211953  1  0.459107  0  0.053462  0.105304  0  3.887693  0
C  C126  1  0.40499006  0.84308247  0.79875533  1  1.510851  0  0.236834  0.495621  0  4.121293  0
C  C127  1  0.59501123  0.15691895  0.20124394  1  1.510864  0  0.236866  0.495618  0  4.121406  0
C  C128  1  0.39166986  0.95294440  0.65955957  1  0.373755  0  -0.06181  -0.022956  0  3.849254  0
C  C129  1  0.60833087  0.04705561  0.34044041  1  0.373768  0  -0.061771  -0.022904  0  3.849284  0
C  C130  1  0.37259698  0.21866093  0.59679818  1  0.002412  0  -0.014204  0.106942  0  3.988744  0
C  C131  1  0.62740385  0.78133837  0.40320089  1  0.002238  0  -0.014155  0.107019  0  3.988645  0
C  C132  1  0.36347657  0.25042059  0.51271442  1  -0.035292  0  -0.107312  -0.214809  0  3.98186  0
C  C133  1  0.63652195  0.74957873  0.48728650  1  -0.035365  0  -0.107282  -0.214776  0  3.981918  0
C  C134  1  0.36427984  0.18640174  0.47624015  1  -0.005542  0  -0.018523  0.090745  0  4.022548  0
C  C135  1  0.63571935  0.81359828  0.52376030  1  -0.005463  0  -0.018533  0.090735  0  4.022601  0
C  C136  1  0.37345315  0.09015845  0.52491994  1  -0.105192  0  -0.103744  -0.207915  0  3.957407  0
C  C137  1  0.62654680  0.90984156  0.47507970  1  -0.10522  0  -0.10374  -0.207926  0  3.957468  0
C  C138  1  0.38301172  0.05739510  0.60956642  1  0.009256  0  -0.01406  0.108517  0  3.979214  0
C  C139  1  0.61698834  0.94260422  0.39043403  1  0.009283  0  -0.014061  0.108494  0  3.979269  0
C  C140  1  0.38353908  0.12164472  0.64465919  1  -0.076226  0  -0.101939  -0.204836  0  3.933194  0
C  C141  1  0.61646088  0.87835530  0.35534046  1  -0.076095  0  -0.101975  -0.204939  0  3.933217  0
C  C142  1  0.76143280  0.76617849  0.06892888  1  1.651925  0  0.287674  0.512565  0  4.06503  0
C  C143  1  0.23856389  0.23382295  0.93107181  1  1.652013  0  0.287672  0.512556  0  4.064958  0
C  C144  1  0.14266502  0.39466033  0.13912052  1  0.505452  0  0.046094  0.086936  0  3.927268  0
C  C145  1  0.85733647  0.60533968  0.86087808  1  0.505467  0  0.046106  0.086959  0  3.92725  0
C  C146  1  0.14957113  0.47351651  0.06250346  1  -0.006472  0  -0.074405  -0.133651  0  3.941223  0
C  C147  1  0.85042950  0.52648421  0.93749571  1  -0.006411  0  -0.074428  -0.133713  0  3.941283  0
C  C148  1  0.05911966  0.53409727  0.05105882  1  -0.063469  0  -0.000292  -0.005523  0  3.992071  0
C  C149  1  0.94088019  0.46590345  0.94894002  1  -0.063297  0  -0.000289  -0.005528  0  3.992083  0
C  C150  1  0.96476062  0.51200695  0.11658889  1  -0.028273  0  -0.072346  -0.127773  0  3.918338  0
C  C151  1  0.03524000  0.48799377  0.88341085  1  -0.028323  0  -0.072333  -0.127741  0  3.918392  0
C  C152  1  0.96450493  0.43174515  0.19129588  1  0.459007  0  0.051807  0.094569  0  3.900624  0
C  C153  1  0.03549743  0.56825416  0.80870272  1  0.458932  0  0.051769  0.094488  0  3.900717  0
C  C154  1  0.06018315  0.62275282  0.97301019  1  1.503951  0  0.233625  0.495964  0  4.134634  0
C  C155  1  0.93981430  0.37724861  0.02698913  1  1.503859  0  0.23374  0.496149  0  4.134422  0
C  C156  1  0.16791243  0.73427750  0.85661130  1  0.361019  0  -0.05769  -0.016401  0  3.843172  0
C  C157  1  0.83208512  0.26572323  0.14338939  1  0.360733  0  -0.05769  -0.016412  0  3.84333  0
C  C158  1  0.05593203  0.29721730  0.47755304  1  0.4848  0  0.040301  0.063385  0  3.967296  0
C  C159  1  0.94406792  0.70278271  0.52244547  1  0.484881  0  0.040328  0.063402  0  3.96722  0
C  C160  1  0.06975766  0.28614799  0.55541579  1  -0.003373  0  -0.066549  -0.115391  0  3.925186  0
C  C161  1  0.93024306  0.71385202  0.44458248  1  -0.003333  0  -0.066601  -0.115393  0  3.925063  0
C  C162  1  0.10269565  0.19615706  0.60789801  1  -0.047667  0  0.006883  0.009092  0  3.972589  0
C  C163  1  0.89730574  0.80384365  0.39209923  1  -0.047599  0  0.006862  0.008996  0  3.972789  0
C  C164  1  0.12174248  0.12094540  0.57954490  1  -0.006937  0  -0.069524  -0.127887  0  3.916232  0
C  C165  1  0.87825748  0.87905461  0.42045360  1  -0.006988  0  -0.069507  -0.127812  0  3.91631  0
C  C166  1  0.10698365  0.13857172  0.50014128  1  0.452823  0  0.04879  0.095225  0  3.91122  0
C  C167  1  0.89301543  0.86142900  0.49985723  1  0.452789  0  0.04875  0.095166  0  3.911222  0
C  C168  1  0.11410286  0.18384863  0.69297090  1  1.521401  0  0.234995  0.494297  0  4.1233  0
C  C169  1  0.88589593  0.81615420  0.30702748  1  1.521283  0  0.23501  0.494323  0  4.123703  0
C  C170  1  0.14317916  0.07210048  0.82545853  1  0.357135  0  -0.060176  -0.019774  0  3.860728  0
C  C171  1  0.85681665  0.92790166  0.17454159  1  0.35707  0  -0.06017  -0.019714  0  3.860834  0
C  C172  1  0.07709402  0.12747074  0.20701168  1  0.485122  0  0.047375  0.092641  0  3.917893  0
C  C173  1  0.92290758  0.87252857  0.79299000  1  0.484983  0  0.047388  0.092663  0  3.917771  0
C  C174  1  0.08805434  0.05103340  0.18279943  1  -0.020222  0  -0.072161  -0.126034  0  3.922164  0
C  C175  1  0.91194659  0.94896521  0.81720215  1  -0.020159  0  -0.072144  -0.125956  0  3.92206  0
C  C176  1  0.10516450  0.96012535  0.24201948  1  -0.018905  0  -0.001187  -0.009215  0  3.996087  0
C  C177  1  0.89483479  0.03987397  0.75798177  1  -0.01889  0  -0.001181  -0.009203  0  3.995969  0
C  C178  1  0.10939186  0.94950033  0.32368692  1  -0.01973  0  -0.073025  -0.122564  0  3.932463  0
C  C179  1  0.89060820  0.05049899  0.67631466  1  -0.019323  0  -0.073039  -0.122614  0  3.932538  0
C  C180  1  0.09623414  0.02956783  0.34285950  1  0.505145  0  0.045924  0.088453  0  3.939619  0
C  C181  1  0.90376515  0.97043148  0.65714232  1  0.505172  0  0.045935  0.088505  0  3.939676  0
C  C182  1  0.11851400  0.87399639  0.22216212  1  1.510494  0  0.232955  0.491087  0  4.143648  0
C  C183  1  0.88148529  0.12600293  0.77783913  1  1.510127  0  0.232979  0.491157  0  4.143502  0
C  C184  1  0.12580616  0.81348261  0.11740240  1  0.361535  0  -0.058893  -0.017303  0  3.865553  0
C  C185  1  0.87419543  0.18651670  0.88259870  1  0.361564  0  -0.058901  -0.017246  0  3.865621  0
C  C186  1  0.15264735  0.80603015  0.89772675  1  -0.019156  0  -0.014244  0.099268  0  3.986485  0
C  C187  1  0.84735184  0.19396986  0.10227369  1  -0.019191  0  -0.014145  0.099531  0  3.986416  0
C  C188  1  0.15017179  0.90171356  0.84449260  1  0.001768  0  -0.097926  -0.199317  0  3.92724  0
C  C189  1  0.84982873  0.09828786  0.15550804  1  0.001736  0  -0.097995  -0.199415  0  3.927267  0
C  C190  1  0.14007347  0.96942997  0.87962683  1  -0.003144  0  -0.01315  0.102842  0  3.994847  0
C  C191  1  0.85992705  0.03057145  0.12037381  1  -0.003178  0  -0.013123  0.102805  0  3.994834  0
C  C192  1  0.13049916  0.94189442  0.96878045  1  -0.055697  0  -0.099565  -0.203193  0  3.9654  0
C  C193  1  0.86950070  0.05810630  0.03121952  1  -0.055658  0  -0.099587  -0.203228  0  3.965438  0
C  C194  1  0.13292033  0.84710514  0.02209759  1  -0.024639  0  -0.018594  0.095513  0  4.017486  0
C  C195  1  0.86708039  0.15289488  0.97790295  1  -0.024668  0  -0.018595  0.095539  0  4.017531  0
C  C196  1  0.14431865  0.77947366  0.98609875  1  -0.08357  0  -0.104056  -0.208376  0  3.973071  0
C  C197  1  0.85567977  0.22052636  0.01390193  1  -0.083571  0  -0.104081  -0.20843  0  3.97303  0
C  C198  1  0.66645599  0.21275178  0.43574677  1  1.626139  0  0.283342  0.501298  0  4.047902  0
C  C199  1  0.33354513  0.78724541  0.56425300  1  1.62614  0  0.283301  0.501142  0  4.048063  0
S  S200  1  0.63098994  0.82194547  0.11866652  1  3.291057  0  0.476806  0.98265  0  6.414065  0
S  S201  1  0.36900772  0.17805455  0.88133440  1  3.291244  0  0.47676  0.982613  0  6.414177  0
S  S202  1  0.80786437  0.16772073  0.40588455  1  3.290156  0  0.474211  0.986697  0  6.416254  0
S  S203  1  0.19213799  0.83227858  0.59411518  1  3.289764  0  0.474176  0.986751  0  6.416285  0
N  N204  1  0.35502639  0.68132129  0.33084484  1  -1.190291  0  -0.331021  -0.195817  0  3.547529  0
N  N205  1  0.64497366  0.31867802  0.66915503  1  -1.190291  0  -0.331015  -0.195839  0  3.547585  0
N  N206  1  0.36907498  0.92880146  0.22102882  1  -1.216761  0  -0.325678  -0.215373  0  3.524899  0
N  N207  1  0.63092508  0.07119786  0.77897276  1  -1.216695  0  -0.325655  -0.215309  0  3.524847  0
N  N208  1  0.38882025  0.80700775  0.05942338  1  -1.180227  0  -0.333805  -0.190279  0  3.582568  0
N  N209  1  0.61117961  0.19299297  0.94057660  1  -1.1803  0  -0.333824  -0.190371  0  3.582582  0
N  N210  1  0.05201715  0.37431783  0.20298242  1  -1.181443  0  -0.334406  -0.193181  0  3.573925  0
N  N211  1  0.94798435  0.62568218  0.79701618  1  -1.181427  0  -0.33438  -0.193114  0  3.573867  0
N  N212  1  0.07416473  0.22470855  0.44963241  1  -1.199806  0  -0.339578  -0.199487  0  3.606234  0
N  N213  1  0.92583523  0.77529146  0.55036666  1  -1.199719  0  -0.339586  -0.199484  0  3.60617  0
N  N214  1  0.08086213  0.11725276  0.28581613  1  -1.197797  0  -0.329281  -0.209032  0  3.549285  0
N  N215  1  0.91913793  0.88274656  0.71418488  1  -1.197827  0  -0.329258  -0.20906  0  3.549285  0
O  O216  1  0.22157180  0.44307823  0.63422112  1  -1.124191  0  -0.272339  -0.440562  0  2.101222  0
O  O217  1  0.77842826  0.55692109  0.36577990  1  -1.124217  0  -0.272342  -0.440562  0  2.101253  0
O  O218  1  0.38501873  0.37805396  0.57349988  1  -1.06817  0  -0.163455  -0.233024  0  2.555485  0
O  O219  1  0.61498199  0.62194606  0.42649896  1  -1.068039  0  -0.163442  -0.233046  0  2.555499  0
O  O220  1  0.31874438  0.25340601  0.23489265  1  -1.139938  0  -0.274622  -0.471364  0  2.160796  0
O  O221  1  0.68125578  0.74659260  0.76510803  1  -1.139984  0  -0.27465  -0.471395  0  2.16081  0
O  O222  1  0.35477178  0.14926669  0.36021791  1  -1.069404  0  -0.156593  -0.225367  0  2.582915  0
O  O223  1  0.64522818  0.85073333  0.63978287  1  -1.069335  0  -0.156556  -0.225383  0  2.582961  0
O  O224  1  0.41557086  0.77676708  0.77581625  1  -1.129627  0  -0.275279  -0.462064  0  2.149057  0
O  O225  1  0.58443073  0.22323223  0.22418315  1  -1.129649  0  -0.27531  -0.462093  0  2.149251  0
O  O226  1  0.39503152  0.93442725  0.74652770  1  -1.058773  0  -0.153383  -0.21513  0  2.563571  0
O  O227  1  0.60496921  0.06557277  0.25347284  1  -1.058753  0  -0.153388  -0.215077  0  2.563537  0
O  O228  1  0.65089387  0.86682207  0.16771300  1  -1.332917  0  -0.330474  -0.555939  0  2.29255  0
O  O229  1  0.34910379  0.13317795  0.83228735  1  -1.332925  0  -0.330501  -0.555964  0  2.292518  0
O  O230  1  0.57480124  0.74030976  0.17360439  1  -1.326443  0  -0.350931  -0.572599  0  2.3306  0
O  O231  1  0.42519575  0.25968956  0.82639814  1  -1.326536  0  -0.350874  -0.572544  0  2.330669  0
O  O232  1  0.59672440  0.88633825  0.04315702  1  -1.332478  0  -0.337571  -0.56061  0  2.253021  0
O  O233  1  0.40327105  0.11366107  0.95684428  1  -1.332557  0  -0.33755  -0.560605  0  2.253049  0
O  O234  1  0.98230308  0.67415040  0.95806987  1  -1.130975  0  -0.266411  -0.458237  0  2.21304  0
O  O235  1  0.01769457  0.32584962  0.04192935  1  -1.130864  0  -0.266519  -0.458388  0  2.213068  0
O  O236  1  0.15818797  0.64058129  0.92257766  1  -1.0528  0  -0.166523  -0.235725  0  2.515249  0
O  O237  1  0.84180958  0.35941943  0.07742302  1  -1.052514  0  -0.166552  -0.23578  0  2.515178  0
O  O238  1  0.10702104  0.24872993  0.71643520  1  -1.115525  0  -0.266157  -0.444199  0  2.138192  0
O  O239  1  0.89297862  0.75127220  0.28356317  1  -1.11547  0  -0.266175  -0.444225  0  2.138284  0
O  O240  1  0.12961389  0.09165074  0.74193505  1  -1.060878  0  -0.155818  -0.220251  0  2.557028  0
O  O241  1  0.87038347  0.90835139  0.25806517  1  -1.060916  0  -0.155774  -0.220186  0  2.557108  0
O  O242  1  0.13034784  0.79356260  0.27407667  1  -1.144447  0  -0.269996  -0.475226  0  2.228254  0
O  O243  1  0.86964838  0.20643672  0.72592553  1  -1.144403  0  -0.270006  -0.475229  0  2.228198  0
O  O244  1  0.11513524  0.89412277  0.14073215  1  -1.060944  0  -0.152954  -0.216483  0  2.564926  0
O  O245  1  0.88487020  0.10587653  0.85926834  1  -1.060654  0  -0.152984  -0.216601  0  2.564915  0
O  O246  1  0.85411683  0.25545720  0.35598059  1  -1.323869  0  -0.350794  -0.569385  0  2.323086  0
O  O247  1  0.14588379  0.74454352  0.64401858  1  -1.323947  0  -0.35078  -0.569408  0  2.3231  0
O  O248  1  0.81767497  0.11229347  0.35372139  1  -1.326184  0  -0.337813  -0.558851  0  2.241245  0
O  O249  1  0.18232892  0.88770583  0.64627787  1  -1.325981  0  -0.337775  -0.558807  0  2.241302  0
O  O250  1  0.82626678  0.11348277  0.49065150  1  -1.334415  0  -0.350494  -0.574111  0  2.2154  0
O  O251  1  0.17373548  0.88651724  0.50934857  1  -1.334133  0  -0.350513  -0.574155  0  2.215328  0
F  F252  1  0.75654805  0.72672036  0.01527713  1  -0.617311  0  -0.102018  -0.187706  0  1.349654  0
F  F253  1  0.24345084  0.27328177  0.98472205  1  -0.617328  0  -0.102009  -0.187697  0  1.349578  0
F  F254  1  0.80024062  0.69819574  0.13229047  1  -0.617244  0  -0.088506  -0.172736  0  1.365585  0
F  F255  1  0.19975636  0.30180358  0.86770978  1  -0.617285  0  -0.088498  -0.172729  0  1.365536  0
F  F256  1  0.82898588  0.83099922  0.02028327  1  -0.629465  0  -0.094849  -0.184803  0  1.367763  0
F  F257  1  0.17101157  0.16900221  0.97971888  1  -0.629495  0  -0.094871  -0.184804  0  1.367773  0
F  F258  1  0.64083864  0.26348256  0.48893505  1  -0.622059  0  -0.098392  -0.185767  0  1.361707  0
F  F259  1  0.35916275  0.73651815  0.51106218  1  -0.622126  0  -0.09841  -0.185757  0  1.361801  0
F  F260  1  0.63731852  0.26880601  0.36318367  1  -0.616154  0  -0.097592  -0.177538  0  1.344505  0
F  F261  1  0.36268147  0.73118837  0.63681638  1  -0.616202  0  -0.097601  -0.177478  0  1.3445  0
F  F262  1  0.60896959  0.13972662  0.47988958  1  -0.625482  0  -0.08758  -0.184317  0  1.409628  0
F  F263  1  0.39103251  0.86026918  0.52011441  1  -0.625413  0  -0.08751  -0.184249  0  1.409596  0
