# generated using pymatgen
data_ZnH13C15NO7
_symmetry_space_group_name_H-M   'P 1'
_cell_length_a   4.92531862
_cell_length_b   16.26280894
_cell_length_c   19.37786867
_cell_angle_alpha   90.00041347
_cell_angle_beta   89.99952051
_cell_angle_gamma   88.69640954
_symmetry_Int_Tables_number   1
_chemical_formula_structural   ZnH13C15NO7
_chemical_formula_sum   'Zn4 H52 C60 N4 O28'
_cell_volume   1551.75617403
_cell_formula_units_Z   4
loop_
 _symmetry_equiv_pos_site_id
 _symmetry_equiv_pos_as_xyz
  1  'x, y, z'
loop_
 _atom_site_type_symbol
 _atom_site_label
 _atom_site_symmetry_multiplicity
 _atom_site_fract_x
 _atom_site_fract_y
 _atom_site_fract_z
 _atom_site_occupancy
 _atom_site_pbe_bader_charge
 _atom_site_pbe_bader_spin_density
 _atom_site_pbe_cm5_charge
 _atom_site_pbe_ddec_charge
 _atom_site_pbe_ddec_spin_density
 _atom_site_pbe_ddec_sum_bond_order
 _atom_site_pbe_magmom
Zn  Zn0  1  0.89870020  0.35592806  0.89651859  1  1.323765  0  0.691945  0.990017  0  2.202151  0
Zn  Zn1  1  0.10131320  0.14407137  0.39651759  1  1.323804  0  0.691978  0.990057  0  2.202163  0
Zn  Zn2  1  0.10132176  0.64407132  0.10348328  1  1.323652  0  0.691976  0.990037  0  2.202149  0
Zn  Zn3  1  0.89868848  0.85593003  0.60348015  1  1.323697  0  0.691968  0.990064  0  2.202128  0
H  H4  1  0.25362366  0.11822976  0.85532040  1  0.077749  0  0.10896  0.116115  0  0.9936  0
H  H5  1  0.74637473  0.38176434  0.35532178  1  0.07774  0  0.108955  0.1161  0  0.99361  0
H  H6  1  0.74638212  0.88177345  0.14467837  1  0.077666  0  0.108988  0.116162  0  0.993599  0
H  H7  1  0.25364496  0.61822153  0.64467596  1  0.077563  0  0.10897  0.116103  0  0.993687  0
H  H8  1  0.04381423  0.02106577  0.77135533  1  0.081776  0  0.106396  0.113664  0  1.003084  0
H  H9  1  0.95615870  0.47893904  0.27135920  1  0.081809  0  0.106383  0.11368  0  1.003109  0
H  H10  1  0.95616118  0.97894262  0.22864344  1  0.081767  0  0.106399  0.113701  0  1.003058  0
H  H11  1  0.04386717  0.52105170  0.72864215  1  0.082106  0  0.106416  0.113684  0  1.003114  0
H  H12  1  0.57756813  0.10807653  0.61312946  1  0.163799  0  0.110365  0.131124  0  1.044715  0
H  H13  1  0.42241772  0.39192894  0.11313335  1  0.16389  0  0.110389  0.13114  0  1.044681  0
H  H14  1  0.42240919  0.89192508  0.38686932  1  0.163803  0  0.110363  0.131093  0  1.044785  0
H  H15  1  0.57758404  0.60807677  0.88686749  1  0.163831  0  0.110381  0.131146  0  1.0447  0
H  H16  1  0.17363155  0.32730293  0.73580984  1  0.06655  0  0.102613  0.101811  0  1.033347  0
H  H17  1  0.82636641  0.17269046  0.23581328  1  0.066399  0  0.102601  0.101871  0  1.033301  0
H  H18  1  0.82636202  0.67269915  0.26418997  1  0.066516  0  0.102626  0.101849  0  1.033333  0
H  H19  1  0.17362719  0.82731347  0.76419013  1  0.0665  0  0.102612  0.101879  0  1.033227  0
H  H20  1  0.53581448  0.42550555  0.72220486  1  0.074567  0  0.100308  0.104211  0  1.00661  0
H  H21  1  0.46418059  0.07449057  0.22220732  1  0.080359  0  0.100296  0.104175  0  1.006594  0
H  H22  1  0.46417907  0.57449530  0.27779288  1  0.08016  0  0.100303  0.104197  0  1.006631  0
H  H23  1  0.53580898  0.92551463  0.77779971  1  0.080618  0  0.100297  0.104184  0  1.006601  0
H  H24  1  0.73218064  0.45399130  0.60630978  1  0.065254  0  0.10391  0.10337  0  0.986159  0
H  H25  1  0.26781774  0.04600249  0.10631272  1  0.065164  0  0.103904  0.103331  0  0.986062  0
H  H26  1  0.26780285  0.54601456  0.39369054  1  0.065229  0  0.103908  0.103377  0  0.986201  0
H  H27  1  0.73218789  0.95399273  0.89369637  1  0.065179  0  0.1039  0.103316  0  0.986138  0
H  H28  1  0.55502753  0.38013492  0.50287617  1  0.058619  0  0.103102  0.107014  0  1.002682  0
H  H29  1  0.44497323  0.11986055  0.00287631  1  0.058618  0  0.103084  0.106999  0  1.002655  0
H  H30  1  0.44495401  0.61987588  0.49712363  1  0.058622  0  0.103123  0.107058  0  1.002688  0
H  H31  1  0.55504034  0.88012354  0.99712555  1  0.058568  0  0.103118  0.107066  0  1.002704  0
H  H32  1  0.20257193  0.27738637  0.51619070  1  0.141132  0  0.103229  0.107047  0  1.058781  0
H  H33  1  0.79742369  0.22260950  0.01619423  1  0.141316  0  0.10323  0.10703  0  1.058777  0
H  H34  1  0.79741767  0.72262067  0.48380601  1  0.141031  0  0.103253  0.107152  0  1.05868  0
H  H35  1  0.20258188  0.77738203  0.98380454  1  0.141061  0  0.103242  0.107169  0  1.058693  0
H  H36  1  0.86801781  0.26084014  0.73236772  1  0.512036  0  0.305246  0.270628  0  1.026765  0
H  H37  1  0.13198255  0.23915790  0.23237074  1  0.511991  0  0.305273  0.270696  0  1.026694  0
H  H38  1  0.13197784  0.73916438  0.26762950  1  0.512285  0  0.305255  0.27065  0  1.026721  0
H  H39  1  0.86802721  0.76084097  0.76762442  1  0.512125  0  0.305277  0.270752  0  1.026835  0
H  H40  1  0.14483483  0.29614411  0.00270969  1  0.69631  0  0.299623  0.403552  0  0.93735  0
H  H41  1  0.85516193  0.20385383  0.50270891  1  0.696331  0  0.29964  0.403626  0  0.937238  0
H  H42  1  0.85517081  0.70385111  0.99729063  1  0.696388  0  0.299667  0.403656  0  0.937183  0
H  H43  1  0.14484381  0.79614692  0.49729193  1  0.696358  0  0.299633  0.40359  0  0.937294  0
H  H44  1  0.48715218  0.43273024  0.95289004  1  0.649898  0  0.297034  0.391828  0  0.947183  0
H  H45  1  0.51285251  0.06726600  0.45288867  1  0.649837  0  0.297044  0.391898  0  0.947094  0
H  H46  1  0.51286570  0.56726795  0.04711338  1  0.649809  0  0.297027  0.391882  0  0.947132  0
H  H47  1  0.48713699  0.93273551  0.54711526  1  0.649788  0  0.297065  0.391908  0  0.94707  0
H  H48  1  0.31912251  0.26115105  0.93465193  1  0.659682  0  0.298616  0.406719  0  0.930845  0
H  H49  1  0.68087755  0.23884390  0.43465012  1  0.659588  0  0.298672  0.406807  0  0.930724  0
H  H50  1  0.68088517  0.73884477  0.06534942  1  0.659634  0  0.298618  0.406813  0  0.930721  0
H  H51  1  0.31913017  0.76115376  0.56534917  1  0.659579  0  0.298649  0.406807  0  0.93072  0
H  H52  1  0.71795569  0.42818534  0.01010023  1  0.666586  0  0.304128  0.412999  0  0.909038  0
H  H53  1  0.28204248  0.07181190  0.51009863  1  0.666965  0  0.304134  0.413056  0  0.90897  0
H  H54  1  0.28205608  0.57181167  0.98990370  1  0.666965  0  0.304149  0.413099  0  0.908909  0
H  H55  1  0.71794906  0.92819020  0.48990376  1  0.666922  0  0.304123  0.413043  0  0.908988  0
C  C56  1  0.62985473  0.22535652  0.83615169  1  1.537229  0  0.213965  0.583103  0  4.181282  0
C  C57  1  0.37015334  0.27463734  0.33614829  1  1.538023  0  0.213776  0.582781  0  4.181668  0
C  C58  1  0.37014284  0.77464184  0.16384966  1  1.537593  0  0.213826  0.582959  0  4.181416  0
C  C59  1  0.62985234  0.72536034  0.66384687  1  1.537665  0  0.213893  0.582896  0  4.181302  0
C  C60  1  0.52739952  0.16865268  0.78172987  1  -0.049771  0  -0.019011  -0.137098  0  3.920254  0
C  C61  1  0.47260283  0.33134094  0.28173256  1  -0.050355  0  -0.018959  -0.137009  0  3.920345  0
C  C62  1  0.47259807  0.83134691  0.21826839  1  -0.049776  0  -0.019035  -0.13709  0  3.920256  0
C  C63  1  0.52741296  0.66865419  0.71826570  1  -0.050455  0  -0.019035  -0.137038  0  3.920312  0
C  C64  1  0.32064739  0.11562794  0.80177072  1  0.022971  0  -0.082297  -0.079606  0  3.992028  0
C  C65  1  0.67933922  0.38437159  0.30177351  1  0.023033  0  -0.082286  -0.079534  0  3.991905  0
C  C66  1  0.67934821  0.88437351  0.19822702  1  0.023068  0  -0.082363  -0.079744  0  3.991974  0
C  C67  1  0.32067250  0.61562296  0.69822526  1  0.023798  0  -0.082315  -0.079622  0  3.991897  0
C  C68  1  0.20504798  0.06163566  0.75555821  1  -0.050299  0  -0.089396  -0.108718  0  4.003016  0
C  C69  1  0.79492418  0.43836800  0.25556100  1  -0.050241  0  -0.089364  -0.108811  0  4.003057  0
C  C70  1  0.79493348  0.93837083  0.24444108  1  -0.05029  0  -0.089326  -0.108668  0  4.002893  0
C  C71  1  0.20508149  0.56162906  0.74444138  1  -0.050581  0  -0.089359  -0.108714  0  4.002933  0
C  C72  1  0.30027735  0.05896322  0.68737586  1  -0.029865  0  -0.015021  -0.017803  0  3.984524  0
C  C73  1  0.69971251  0.44103779  0.18737747  1  -0.029951  0  -0.015105  -0.017828  0  3.984669  0
C  C74  1  0.69970812  0.94104017  0.31262291  1  -0.02987  0  -0.015117  -0.017889  0  3.984598  0
C  C75  1  0.30030335  0.55896165  0.81262492  1  -0.029822  0  -0.015071  -0.01783  0  3.98445  0
C  C76  1  0.50606224  0.11070731  0.66596388  1  0.063027  0  -0.087046  -0.188574  0  3.902667  0
C  C77  1  0.49393142  0.38929456  0.16596740  1  0.063098  0  -0.08696  -0.188499  0  3.902662  0
C  C78  1  0.49392931  0.88929541  0.33403540  1  0.0631  0  -0.08693  -0.188385  0  3.902577  0
C  C79  1  0.50608451  0.61070795  0.83403085  1  0.063104  0  -0.086989  -0.188529  0  3.90279  0
C  C80  1  0.62119675  0.16665035  0.71220010  1  0.337665  0  0.111963  0.241257  0  3.97222  0
C  C81  1  0.37879916  0.33334749  0.21220162  1  0.337595  0  0.111824  0.241187  0  3.972299  0
C  C82  1  0.37880285  0.83334799  0.28779970  1  0.337705  0  0.111975  0.24122  0  3.972139  0
C  C83  1  0.62121060  0.66665077  0.78779508  1  0.337467  0  0.111811  0.241149  0  3.972454  0
C  C84  1  0.18873335  0.99777919  0.63783027  1  1.554137  0  0.222055  0.594111  0  4.164435  0
C  C85  1  0.81124775  0.50222552  0.13783422  1  1.554061  0  0.221966  0.59396  0  4.164636  0
C  C86  1  0.81126028  0.00222597  0.36216541  1  1.55402  0  0.221907  0.593972  0  4.164246  0
C  C87  1  0.18876202  0.49777335  0.86216869  1  1.554128  0  0.221903  0.593821  0  4.164782  0
C  C88  1  0.94973883  0.22918415  0.63107704  1  1.394671  0  0.253167  0.489627  0  4.076821  0
C  C89  1  0.05025753  0.27080963  0.13108032  1  1.394657  0  0.25317  0.489596  0  4.076521  0
C  C90  1  0.05026079  0.77081543  0.36891760  1  1.394417  0  0.253308  0.489786  0  4.076541  0
C  C91  1  0.94973179  0.72918204  0.86892310  1  1.394813  0  0.253085  0.489559  0  4.076946  0
C  C92  1  0.15866692  0.29404433  0.62654202  1  -0.055367  0  -0.020203  -0.052211  0  4.003488  0
C  C93  1  0.84132176  0.20595348  0.12654417  1  -0.05528  0  -0.020153  -0.052105  0  4.003787  0
C  C94  1  0.84132064  0.70596211  0.37345572  1  -0.05522  0  -0.020205  -0.052112  0  4.003332  0
C  C95  1  0.15867175  0.79404492  0.87345460  1  -0.055342  0  -0.020154  -0.052092  0  4.003285  0
C  C96  1  0.25341504  0.33748091  0.68416053  1  -0.091648  0  -0.087883  -0.106496  0  3.964308  0
C  C97  1  0.74657502  0.16251617  0.18416433  1  -0.091665  0  -0.087995  -0.106745  0  3.964504  0
C  C98  1  0.74656637  0.66252251  0.31583721  1  -0.091745  0  -0.088013  -0.106676  0  3.964456  0
C  C99  1  0.25342667  0.83748523  0.81583960  1  -0.091549  0  -0.088006  -0.106645  0  3.96432  0
C  C100  1  0.45939844  0.39412710  0.67679644  1  -0.029072  0  -0.093353  -0.081369  0  4.011097  0
C  C101  1  0.54059626  0.10586879  0.17679822  1  -0.034505  0  -0.093282  -0.081249  0  4.011076  0
C  C102  1  0.54059914  0.60587188  0.32320285  1  -0.034577  0  -0.093287  -0.081344  0  4.011237  0
C  C103  1  0.45939125  0.89413519  0.82320674  1  -0.035398  0  -0.093303  -0.081436  0  4.010889  0
C  C104  1  0.56950982  0.41003345  0.61181326  1  -0.074491  0  -0.085198  -0.075773  0  4.000842  0
C  C105  1  0.43048617  0.08996507  0.11181406  1  -0.074656  0  -0.085267  -0.075811  0  4.000917  0
C  C106  1  0.43047363  0.58996995  0.38818654  1  -0.074546  0  -0.085152  -0.075649  0  4.000748  0
C  C107  1  0.56952154  0.91003259  0.88819194  1  -0.074265  0  -0.085235  -0.075623  0  4.000477  0
C  C108  1  0.47282873  0.36845807  0.55406880  1  0.014964  0  -0.091795  -0.081309  0  3.989831  0
C  C109  1  0.52715976  0.13153938  0.05407059  1  0.014781  0  -0.091734  -0.081279  0  3.989816  0
C  C110  1  0.52716083  0.63154712  0.44593049  1  0.015219  0  -0.091878  -0.081451  0  3.989942  0
C  C111  1  0.47283571  0.86845470  0.94593179  1  0.015132  0  -0.091792  -0.081385  0  3.989858  0
C  C112  1  0.27137024  0.31030491  0.56149072  1  -0.035365  0  -0.083009  -0.085785  0  3.930186  0
C  C113  1  0.72861362  0.18969435  0.06149602  1  -0.035367  0  -0.082967  -0.085717  0  3.930295  0
C  C114  1  0.72861127  0.68970404  0.43850599  1  -0.035462  0  -0.082967  -0.085911  0  3.9302  0
C  C115  1  0.27139195  0.81029656  0.93850585  1  -0.035425  0  -0.082987  -0.085932  0  3.930161  0
N  N116  1  0.82448673  0.22052678  0.69316037  1  -1.296285  0  -0.394811  -0.374855  0  3.623142  0
N  N117  1  0.17550264  0.27947281  0.19316131  1  -1.296217  0  -0.394807  -0.37493  0  3.623196  0
N  N118  1  0.17551091  0.77947589  0.30683943  1  -1.296469  0  -0.394837  -0.37485  0  3.623472  0
N  N119  1  0.82449914  0.72053351  0.80683488  1  -1.29618  0  -0.394724  -0.374939  0  3.62322  0
O  O120  1  0.77706794  0.28690782  0.81707155  1  -1.168908  0  -0.317858  -0.560848  0  2.333798  0
O  O121  1  0.22294164  0.21308341  0.31706687  1  -1.169152  0  -0.31785  -0.560732  0  2.333709  0
O  O122  1  0.22292556  0.71308997  0.18292981  1  -1.168869  0  -0.317819  -0.560744  0  2.333705  0
O  O123  1  0.77705797  0.78691555  0.68293190  1  -1.169054  0  -0.317874  -0.560797  0  2.333515  0
O  O124  1  0.56771379  0.21361548  0.89819433  1  -1.182045  0  -0.306015  -0.547993  0  2.24275  0
O  O125  1  0.43229124  0.28637738  0.39819154  1  -1.182236  0  -0.305914  -0.54791  0  2.242888  0
O  O126  1  0.43229186  0.78638035  0.10180702  1  -1.182338  0  -0.305929  -0.54798  0  2.242786  0
O  O127  1  0.56771646  0.71361966  0.60180620  1  -1.182469  0  -0.30596  -0.547934  0  2.242851  0
O  O128  1  0.03760296  0.94267567  0.66431255  1  -1.157586  0  -0.315427  -0.55679  0  2.328988  0
O  O129  1  0.96237800  0.55732852  0.16431390  1  -1.157577  0  -0.315324  -0.556639  0  2.32914  0
O  O130  1  0.96238460  0.05733077  0.33568467  1  -1.157708  0  -0.315361  -0.556696  0  2.32896  0
O  O131  1  0.03762971  0.44266914  0.83568745  1  -1.157523  0  -0.315341  -0.556673  0  2.328947  0
O  O132  1  0.25035595  0.99935092  0.57415659  1  -1.20957  0  -0.314  -0.582343  0  2.253384  0
O  O133  1  0.74962012  0.50064981  0.07416004  1  -1.209451  0  -0.313982  -0.582295  0  2.253314  0
O  O134  1  0.74963157  0.00065306  0.42584064  1  -1.209379  0  -0.313936  -0.582293  0  2.253099  0
O  O135  1  0.25041201  0.49935010  0.92583976  1  -1.209584  0  -0.313972  -0.582184  0  2.25358  0
O  O136  1  0.89501681  0.18397762  0.58081697  1  -1.165146  0  -0.283389  -0.480531  0  2.231191  0
O  O137  1  0.10498573  0.31601858  0.08081592  1  -1.16518  0  -0.283368  -0.480495  0  2.230801  0
O  O138  1  0.10499509  0.81602676  0.41918593  1  -1.165084  0  -0.283503  -0.480706  0  2.230737  0
O  O139  1  0.89501587  0.68397790  0.91917563  1  -1.165331  0  -0.283304  -0.480432  0  2.231357  0
O  O140  1  0.14380849  0.28620007  0.95135808  1  -1.30458  0  -0.582772  -0.79508  0  2.203991  0
O  O141  1  0.85618820  0.21379613  0.45135631  1  -1.304536  0  -0.582829  -0.795238  0  2.203869  0
O  O142  1  0.85619512  0.71379517  0.04864328  1  -1.304561  0  -0.5828  -0.795259  0  2.203807  0
O  O143  1  0.14381344  0.78620281  0.54864246  1  -1.304497  0  -0.582818  -0.795197  0  2.203839  0
O  O144  1  0.64591829  0.39839508  0.96913558  1  -1.262406  0  -0.568125  -0.755035  0  2.155521  0
O  O145  1  0.35407689  0.10159812  0.46913226  1  -1.262721  0  -0.568163  -0.755156  0  2.15536  0
O  O146  1  0.35409345  0.60160070  0.03086887  1  -1.262687  0  -0.568156  -0.755182  0  2.155403  0
O  O147  1  0.64590649  0.89840159  0.53086858  1  -1.262551  0  -0.568186  -0.75516  0  2.155423  0
