# generated using pymatgen
data_CdH6(C3N2)2
_symmetry_space_group_name_H-M   'P 1'
_cell_length_a   8.27151257
_cell_length_b   8.61907244
_cell_length_c   13.82483667
_cell_angle_alpha   88.95269500
_cell_angle_beta   77.81400162
_cell_angle_gamma   63.56288189
_symmetry_Int_Tables_number   1
_chemical_formula_structural   CdH6(C3N2)2
_chemical_formula_sum   'Cd4 H24 C24 N16'
_cell_volume   859.42066916
_cell_formula_units_Z   4
loop_
 _symmetry_equiv_pos_site_id
 _symmetry_equiv_pos_as_xyz
  1  'x, y, z'
loop_
 _atom_site_type_symbol
 _atom_site_label
 _atom_site_symmetry_multiplicity
 _atom_site_fract_x
 _atom_site_fract_y
 _atom_site_fract_z
 _atom_site_occupancy
 _atom_site_hle17_bader_spin_density
 _atom_site_hle17_ddec_charge
 _atom_site_hle17_ddec_spin_density
 _atom_site_hle17_ddec_sum_bond_order
 _atom_site_hle17_magmom
 _atom_site_hse06_10hf_bader_spin_density
 _atom_site_hse06_10hf_ddec_charge
 _atom_site_hse06_10hf_ddec_spin_density
 _atom_site_hse06_10hf_ddec_sum_bond_order
 _atom_site_hse06_10hf_magmom
 _atom_site_hse06_bader_spin_density
 _atom_site_hse06_ddec_charge
 _atom_site_hse06_ddec_spin_density
 _atom_site_hse06_ddec_sum_bond_order
 _atom_site_hse06_magmom
 _atom_site_pbe_bader_spin_density
 _atom_site_pbe_cm5_charge
 _atom_site_pbe_ddec_charge
 _atom_site_pbe_ddec_spin_density
 _atom_site_pbe_ddec_sum_bond_order
 _atom_site_pbe_magmom
Cd  Cd0  1  0.25652340  0.11942061  0.30063058  1  0  0.631965  0  2.448806  0  0  0.451574  0  2.948868  0  0  0.480678  0  2.912341  0  0  0.524559  0.431822  0  2.973497  0
Cd  Cd1  1  0.74348003  0.88057224  0.69936497  1  0  0.63191  0  2.448879  0  0  0.45151  0  2.94895  0  0  0.480612  0  2.912427  0  0  0.524581  0.431759  0  2.973576  0
Cd  Cd2  1  0.49999979  0.49999901  0.50000052  1  0  1.161618  0  1.932433  0  0  0.975459  0  2.416045  0  0  1.024787  0  2.3653  0  0  0.838384  0.940906  0  2.450436  0
Cd  Cd3  1  0.99999904  0.00000138  0.99999961  1  0  1.01894  0  1.916812  0  0  0.817718  0  2.371075  0  0  0.864608  0  2.333493  0  0  0.806268  0.785176  0  2.396296  0
H  H4  1  0.91756816  0.05217496  0.26559395  1  0  0.090598  0  0.952198  0  0  0.098136  0  1.022576  0  0  0.100048  0  1.020193  0  0  0.128527  0.096737  0  1.024193  0
H  H5  1  0.08243331  0.94782439  0.73440323  1  0  0.090591  0  0.952135  0  0  0.098132  0  1.022511  0  0  0.100047  0  1.020121  0  0  0.12852  0.096736  0  1.024123  0
H  H6  1  0.81589633  0.72829252  0.08796532  1  0  0.095282  0  0.972747  0  0  0.103975  0  1.036084  0  0  0.106319  0  1.035231  0  0  0.110933  0.102328  0  1.036692  0
H  H7  1  0.18410013  0.27170939  0.91203461  1  0  0.095185  0  0.972851  0  0  0.103899  0  1.036167  0  0  0.106239  0  1.035322  0  0  0.110917  0.102253  0  1.03677  0
H  H8  1  0.75803382  0.64791463  0.28616259  1  0  0.124257  0  0.970697  0  0  0.13108  0  1.033401  0  0  0.133416  0  1.033564  0  0  0.120507  0.129432  0  1.03328  0
H  H9  1  0.24196759  0.35208471  0.71383821  1  0  0.124227  0  0.970752  0  0  0.131053  0  1.033459  0  0  0.133385  0  1.033621  0  0  0.120496  0.12941  0  1.033328  0
H  H10  1  0.84859438  0.96193516  0.43454333  1  0  0.112626  0  0.935207  0  0  0.133246  0  0.996504  0  0  0.13357  0  0.997496  0  0  0.111418  0.132926  0  0.995862  0
H  H11  1  0.15140825  0.03806681  0.56545513  1  0  0.112674  0  0.935185  0  0  0.133268  0  0.996507  0  0  0.133591  0  0.9975  0  0  0.111435  0.132948  0  0.995864  0
H  H12  1  0.91743060  0.73325314  0.43315755  1  0  0.113395  0  0.924426  0  0  0.134335  0  0.983003  0  0  0.134918  0  0.983329  0  0  0.108571  0.133839  0  0.982843  0
H  H13  1  0.08257451  0.26674884  0.56683989  1  0  0.113378  0  0.924399  0  0  0.134337  0  0.982959  0  0  0.134918  0  0.983285  0  0  0.108561  0.13384  0  0.982799  0
H  H14  1  0.67782162  0.88466379  0.45089067  1  0  0.108745  0  0.935575  0  0  0.127608  0  1.000769  0  0  0.127789  0  1.001876  0  0  0.106473  0.127383  0  1.000089  0
H  H15  1  0.32218473  0.11533558  0.54910881  1  0  0.10872  0  0.935558  0  0  0.127587  0  1.000753  0  0  0.127766  0  1.001862  0  0  0.106456  0.127361  0  1.000074  0
H  H16  1  0.53171909  0.21773613  0.05921737  1  0  0.095612  0  0.945491  0  0  0.10266  0  1.015183  0  0  0.10483  0  1.012488  0  0  0.131317  0.101093  0  1.017025  0
H  H17  1  0.46827726  0.78227100  0.94078543  1  0  0.095607  0  0.945544  0  0  0.102677  0  1.015206  0  0  0.104842  0  1.012533  0  0  0.131287  0.101114  0  1.017047  0
H  H18  1  0.89530481  0.42328841  0.09268876  1  0  0.095286  0  0.963433  0  0  0.106658  0  1.022698  0  0  0.108574  0  1.022557  0  0  0.112176  0.105232  0  1.022939  0
H  H19  1  0.10469278  0.57671611  0.90731535  1  0  0.095298  0  0.963417  0  0  0.106662  0  1.022694  0  0  0.108579  0  1.022552  0  0  0.112159  0.105238  0  1.022936  0
H  H20  1  0.53248891  0.66034551  0.18552832  1  0  0.111352  0  0.973754  0  0  0.120894  0  1.036894  0  0  0.122644  0  1.037093  0  0  0.11884  0.119604  0  1.036854  0
H  H21  1  0.46751117  0.33965641  0.81447623  1  0  0.111341  0  0.973685  0  0  0.12084  0  1.036877  0  0  0.122591  0  1.037076  0  0  0.118793  0.119551  0  1.036835  0
H  H22  1  0.22727582  0.44594886  0.14982653  1  0  0.096962  0  0.947909  0  0  0.117341  0  1.015209  0  0  0.117494  0  1.015701  0  0  0.10502  0.117098  0  1.014998  0
H  H23  1  0.77272433  0.55405308  0.85017367  1  0  0.096926  0  0.947896  0  0  0.117356  0  1.015145  0  0  0.11751  0  1.015634  0  0  0.105016  0.11711  0  1.014936  0
H  H24  1  0.20749425  0.65950697  0.13746930  1  0  0.106184  0  0.971418  0  0  0.120818  0  1.042109  0  0  0.121287  0  1.043407  0  0  0.102858  0.120403  0  1.04128  0
H  H25  1  0.79250404  0.34049626  0.86253112  1  0  0.106169  0  0.971397  0  0  0.120773  0  1.042113  0  0  0.121241  0  1.043411  0  0  0.102841  0.120359  0  1.041279  0
H  H26  1  0.24373694  0.55955028  0.25129283  1  0  0.113522  0  0.930189  0  0  0.132889  0  0.990406  0  0  0.133352  0  0.991116  0  0  0.107193  0.132491  0  0.989951  0
H  H27  1  0.75625391  0.44045550  0.74870847  1  0  0.113539  0  0.930179  0  0  0.132908  0  0.990394  0  0  0.133372  0  0.991102  0  0  0.107229  0.132512  0  0.989941  0
C  C28  1  0.41287636  0.24282459  0.34786713  1  0  -0.076529  0  3.278766  0  0  -0.05081  0  3.589678  0  0  -0.048631  0  3.600765  0  0  -0.007301  -0.052242  0  3.581971  0
C  C29  1  0.58712075  0.75717341  0.65213420  1  0  -0.076536  0  3.278797  0  0  -0.050826  0  3.589724  0  0  -0.048647  0  3.600812  0  0  -0.007295  -0.052256  0  3.582015  0
C  C30  1  0.33740088  0.86472953  0.36454055  1  0  -0.09305  0  3.27659  0  0  -0.065864  0  3.58641  0  0  -0.064124  0  3.597017  0  0  -0.008295  -0.066956  0  3.578993  0
C  C31  1  0.66259320  0.13526714  0.63545971  1  0  -0.092885  0  3.276527  0  0  -0.065694  0  3.586338  0  0  -0.063952  0  3.596943  0  0  -0.008213  -0.066787  0  3.57892  0
C  C32  1  0.96160752  0.30167004  0.37187974  1  0  -0.093877  0  3.252738  0  0  -0.067568  0  3.555868  0  0  -0.066115  0  3.567089  0  0  -0.01119  -0.068417  0  3.547959  0
C  C33  1  0.03839221  0.69832801  0.62811115  1  0  -0.093842  0  3.252875  0  0  -0.067533  0  3.556005  0  0  -0.066081  0  3.567227  0  0  -0.011136  -0.068377  0  3.548093  0
C  C34  1  0.25075303  0.08631843  0.14348860  1  0  -0.099723  0  3.271617  0  0  -0.079514  0  3.587207  0  0  -0.076462  0  3.595579  0  0  -0.017596  -0.081472  0  3.581376  0
C  C35  1  0.74926964  0.91366018  0.85650907  1  0  -0.099633  0  3.272447  0  0  -0.079413  0  3.588001  0  0  -0.076363  0  3.596377  0  0  -0.017561  -0.081374  0  3.582173  0
C  C36  1  0.88594758  0.95156640  0.24184998  1  0  0.157208  0  3.668471  0  0  0.096957  0  3.9314  0  0  0.110057  0  3.945638  0  0  0.139371  0.088552  0  3.921447  0
C  C37  1  0.11405319  0.04843686  0.75814870  1  0  0.157204  0  3.668462  0  0  0.09695  0  3.931396  0  0  0.110051  0  3.945636  0  0  0.139383  0.088551  0  3.921437  0
C  C38  1  0.83076049  0.78158773  0.15409313  1  0  -0.017402  0  3.788478  0  0  -0.047789  0  4.053385  0  0  -0.046538  0  4.073759  0  0  -0.011407  -0.04862  0  4.039608  0
C  C39  1  0.16923720  0.21841420  0.84590666  1  0  -0.0173  0  3.78839  0  0  -0.047692  0  4.0533  0  0  -0.046441  0  4.073672  0  0  -0.011364  -0.048514  0  4.039518  0
C  C40  1  0.79989373  0.74173326  0.25100286  1  0  -0.08048  0  3.67408  0  0  -0.116143  0  3.922998  0  0  -0.115397  0  3.943528  0  0  -0.002666  -0.116538  0  3.90922  0
C  C41  1  0.20010580  0.25826999  0.74899597  1  0  -0.080438  0  3.674054  0  0  -0.116108  0  3.922982  0  0  -0.115358  0  3.943507  0  0  -0.002649  -0.116513  0  3.909211  0
C  C42  1  0.81908061  0.85766941  0.41247216  1  0  -0.173378  0  3.634647  0  0  -0.277881  0  3.881329  0  0  -0.274593  0  3.890908  0  0  -0.127027  -0.279841  0  3.874812  0
C  C43  1  0.18091892  0.14233383  0.58752739  1  0  -0.173388  0  3.634581  0  0  -0.277892  0  3.881284  0  0  -0.274607  0  3.890868  0  0  -0.12701  -0.279847  0  3.874762  0
C  C44  1  0.58406049  0.30499397  0.07920110  1  0  0.155763  0  3.664257  0  0  0.092962  0  3.930686  0  0  0.106428  0  3.944265  0  0  0.137634  0.084312  0  3.921168  0
C  C45  1  0.41593524  0.69501184  0.92080250  1  0  0.155781  0  3.66438  0  0  0.09297  0  3.930809  0  0  0.106432  0  3.944386  0  0  0.137678  0.084318  0  3.921293  0
C  C46  1  0.76559893  0.41736716  0.09780669  1  0  -0.012664  0  3.774134  0  0  -0.04425  0  4.036788  0  0  -0.043075  0  4.05801  0  0  -0.011246  -0.04499  0  4.022431  0
C  C47  1  0.23439802  0.58263865  0.90219750  1  0  -0.012718  0  3.774052  0  0  -0.044288  0  4.036694  0  0  -0.043115  0  4.057916  0  0  -0.01126  -0.045029  0  4.022344  0
C  C48  1  0.58832082  0.53506657  0.14429552  1  0  -0.061993  0  3.666207  0  0  -0.10129  0  3.916815  0  0  -0.099743  0  3.936721  0  0  -0.000135  -0.102254  0  3.903452  0
C  C49  1  0.41167864  0.46493665  0.85570838  1  0  -0.061862  0  3.666191  0  0  -0.101117  0  3.916796  0  0  -0.099569  0  3.936703  0  0  -5.2e-05  -0.10208  0  3.903433  0
C  C50  1  0.27606245  0.53707901  0.17018825  1  0  -0.176429  0  3.646365  0  0  -0.281666  0  3.895545  0  0  -0.278572  0  3.905915  0  0  -0.132081  -0.283479  0  3.888522  0
C  C51  1  0.72393582  0.46292422  0.82981290  1  0  -0.176374  0  3.646388  0  0  -0.281626  0  3.895593  0  0  -0.278531  0  3.90596  0  0  -0.132116  -0.283437  0  3.888568  0
N  N52  1  0.46633681  0.32122177  0.38917261  1  0  -0.398475  0  3.033117  0  0  -0.342064  0  3.305458  0  0  -0.359988  0  3.320191  0  0  -0.360677  -0.329787  0  3.295214  0
N  N53  1  0.53365844  0.67878014  0.61082602  1  0  -0.398446  0  3.033061  0  0  -0.342042  0  3.30543  0  0  -0.359968  0  3.320164  0  0  -0.360689  -0.329762  0  3.295187  0
N  N54  1  0.39005569  0.73353728  0.40164466  1  0  -0.398649  0  3.042072  0  0  -0.343618  0  3.314393  0  0  -0.361001  0  3.328786  0  0  -0.358838  -0.331682  0  3.304342  0
N  N55  1  0.60993656  0.26645808  0.59835510  1  0  -0.398797  0  3.042071  0  0  -0.34377  0  3.314395  0  0  -0.361153  0  3.328786  0  0  -0.358926  -0.331831  0  3.304345  0
N  N56  1  0.80871035  0.39822666  0.41007143  1  0  -0.405972  0  3.048045  0  0  -0.349437  0  3.318964  0  0  -0.367003  0  3.333635  0  0  -0.363254  -0.337353  0  3.308668  0
N  N57  1  0.19128936  0.60176877  0.58992381  1  0  -0.405989  0  3.048164  0  0  -0.349455  0  3.319078  0  0  -0.367021  0  3.333749  0  0  -0.363291  -0.337374  0  3.308788  0
N  N58  1  0.21147850  0.06687715  0.06959871  1  0  -0.397824  0  2.989544  0  0  -0.338578  0  3.255414  0  0  -0.354784  0  3.270097  0  0  -0.362145  -0.327621  0  3.245249  0
N  N59  1  0.78852694  0.93310920  0.93039230  1  0  -0.397889  0  2.990336  0  0  -0.338644  0  3.256182  0  0  -0.354846  0  3.27086  0  0  -0.362186  -0.327685  0  3.246015  0
N  N60  1  0.83546328  0.85092627  0.30555676  1  0  -0.018486  0  3.599748  0  0  0.083591  0  3.813136  0  0  0.069078  0  3.840495  0  0  -0.243596  0.093112  0  3.794517  0
N  N61  1  0.16453626  0.14907698  0.69444207  1  0  -0.018514  0  3.599721  0  0  0.083569  0  3.813097  0  0  0.069058  0  3.840456  0  0  -0.243628  0.093086  0  3.794482  0
N  N62  1  0.88557879  0.91161110  0.14935900  1  0  -0.393208  0  3.28396  0  0  -0.321341  0  3.56492  0  0  -0.34113  0  3.583354  0  0  -0.363335  -0.307816  0  3.551945  0
N  N63  1  0.11441891  0.08839082  0.85064079  1  0  -0.393204  0  3.283945  0  0  -0.321338  0  3.564904  0  0  -0.341124  0  3.58333  0  0  -0.363348  -0.307818  0  3.551931  0
N  N64  1  0.47548404  0.46143874  0.13183189  1  0  -0.016057  0  3.601276  0  0  0.086361  0  3.815254  0  0  0.071716  0  3.842746  0  0  -0.2437  0.095937  0  3.796612  0
N  N65  1  0.52451667  0.53856450  0.86817114  1  0  -0.016283  0  3.601485  0  0  0.086129  0  3.815479  0  0  0.071484  0  3.84297  0  0  -0.243762  0.09571  0  3.796836  0
N  N66  1  0.76080465  0.27486566  0.05722357  1  0  -0.384846  0  3.273223  0  0  -0.309864  0  3.553672  0  0  -0.329737  0  3.571602  0  0  -0.363245  -0.296293  0  3.540989  0
N  N67  1  0.23919480  0.72513757  0.94278105  1  0  -0.384725  0  3.273299  0  0  -0.309769  0  3.553757  0  0  -0.329641  0  3.571689  0  0  -0.363183  -0.296199  0  3.541081  0
