# generated using pymatgen
data_TbP2H17C16O11
_symmetry_space_group_name_H-M   'P 1'
_cell_length_a   5.58411503
_cell_length_b   9.26875087
_cell_length_c   18.40138710
_cell_angle_alpha   104.31823274
_cell_angle_beta   92.05880526
_cell_angle_gamma   96.57146054
_symmetry_Int_Tables_number   1
_chemical_formula_structural   TbP2H17C16O11
_chemical_formula_sum   'Tb2 P4 H34 C32 O22'
_cell_volume   914.72379901
_cell_formula_units_Z   2
loop_
 _symmetry_equiv_pos_site_id
 _symmetry_equiv_pos_as_xyz
  1  'x, y, z'
loop_
 _atom_site_type_symbol
 _atom_site_label
 _atom_site_symmetry_multiplicity
 _atom_site_fract_x
 _atom_site_fract_y
 _atom_site_fract_z
 _atom_site_occupancy
 _atom_site_hle17_bader_spin_density
 _atom_site_hle17_ddec_charge
 _atom_site_hle17_ddec_spin_density
 _atom_site_hle17_ddec_sum_bond_order
 _atom_site_hle17_magmom
 _atom_site_hse06_10hf_bader_spin_density
 _atom_site_hse06_10hf_ddec_charge
 _atom_site_hse06_10hf_ddec_spin_density
 _atom_site_hse06_10hf_ddec_sum_bond_order
 _atom_site_hse06_10hf_magmom
 _atom_site_hse06_bader_spin_density
 _atom_site_hse06_ddec_charge
 _atom_site_hse06_ddec_spin_density
 _atom_site_hse06_ddec_sum_bond_order
 _atom_site_hse06_magmom
 _atom_site_pbe_bader_spin_density
 _atom_site_pbe_cm5_charge
 _atom_site_pbe_ddec_charge
 _atom_site_pbe_ddec_spin_density
 _atom_site_pbe_ddec_sum_bond_order
 _atom_site_pbe_magmom
Tb  Tb0  1  0.11730675  0.80518068  0.00251555  1  0  2.371382  0  1.647089  0  0  2.246905  0  2.084476  0  0  2.345281  0  1.939658  0  0  1.582434  2.217353  0  2.114169  0
Tb  Tb1  1  0.88269885  0.19482559  0.99748784  1  0  2.37142  0  1.647138  0  0  2.246952  0  2.084478  0  0  2.345294  0  1.939712  0  0  1.582471  2.217404  0  2.114168  0
P  P2  1  0.38682926  0.09715068  0.10495183  1  0  1.56273  0  4.812779  0  0  1.409026  0  5.319073  0  0  1.457764  0  5.288671  0  0  0.330604  1.375092  0  5.346779  0
P  P3  1  0.61317253  0.90285449  0.89505083  1  0  1.562509  0  4.813036  0  0  1.408816  0  5.319315  0  0  1.457466  0  5.289167  0  0  0.330544  1.374876  0  5.347018  0
P  P4  1  0.25844598  0.53176575  0.10416954  1  0  1.591569  0  4.697929  0  0  1.444046  0  5.193506  0  0  1.494112  0  5.155584  0  0  0.38618  1.410605  0  5.220472  0
P  P5  1  0.74156451  0.46823825  0.89583309  1  0  1.591533  0  4.698248  0  0  1.444011  0  5.193784  0  0  1.494068  0  5.155865  0  0  0.386116  1.41058  0  5.220741  0
H  H6  1  0.60397813  0.14436388  0.31552719  1  0  0.094502  0  0.993816  0  0  0.101497  0  1.063198  0  0  0.104527  0  1.062128  0  0  0.098054  0.0995  0  1.063878  0
H  H7  1  0.39601446  0.85564020  0.68447522  1  0  0.094529  0  0.993833  0  0  0.101514  0  1.063219  0  0  0.104546  0  1.062145  0  0  0.098069  0.099513  0  1.063903  0
H  H8  1  0.48313052  0.00483700  0.40878208  1  0  0.118428  0  0.94424  0  0  0.126732  0  1.005212  0  0  0.130544  0  1.00203  0  0  0.112327  0.124134  0  1.007317  0
H  H9  1  0.51685717  0.99515250  0.59121519  1  0  0.118464  0  0.94428  0  0  0.126801  0  1.005206  0  0  0.130615  0  1.002024  0  0  0.112398  0.124204  0  1.007308  0
H  H10  1  0.77230479  0.87959727  0.29772950  1  0  0.090673  0  0.958853  0  0  0.10114  0  1.022683  0  0  0.104068  0  1.020753  0  0  0.103912  0.099086  0  1.024302  0
H  H11  1  0.22768289  0.12040010  0.70226495  1  0  0.090702  0  0.958856  0  0  0.101162  0  1.022706  0  0  0.104088  0  1.02078  0  0  0.103927  0.099108  0  1.024327  0
H  H12  1  0.89003280  0.02281442  0.20406859  1  0  0.101179  0  0.944673  0  0  0.115458  0  0.999073  0  0  0.118749  0  0.997726  0  0  0.104996  0.113325  0  0.999838  0
H  H13  1  0.10995799  0.97719754  0.79593097  1  0  0.101111  0  0.944665  0  0  0.115401  0  0.999063  0  0  0.118688  0  0.99772  0  0  0.104943  0.11327  0  0.99983  0
H  H14  1  0.50578831  0.26076831  0.22435448  1  0  0.138793  0  0.951015  0  0  0.152303  0  1.008318  0  0  0.154246  0  1.008446  0  0  0.111025  0.151078  0  1.008143  0
H  H15  1  0.49420143  0.73923916  0.77564886  1  0  0.138821  0  0.950929  0  0  0.152317  0  1.008258  0  0  0.154263  0  1.008379  0  0  0.111038  0.151089  0  1.008081  0
H  H16  1  0.20272805  0.26693023  0.19593320  1  0  0.15245  0  0.949624  0  0  0.164782  0  1.007098  0  0  0.166961  0  1.007842  0  0  0.115603  0.16302  0  1.007159  0
H  H17  1  0.79726252  0.73307274  0.80406796  1  0  0.152483  0  0.949655  0  0  0.164809  0  1.007141  0  0  0.166988  0  1.007884  0  0  0.115596  0.163043  0  1.007199  0
H  H18  1  0.53497114  0.65295654  0.30932135  1  0  0.101914  0  0.965729  0  0  0.109654  0  1.033417  0  0  0.113065  0  1.031916  0  0  0.100346  0.107302  0  1.034756  0
H  H19  1  0.46502992  0.34704525  0.69068034  1  0  0.101933  0  0.965711  0  0  0.109684  0  1.033393  0  0  0.113096  0  1.031891  0  0  0.100375  0.107331  0  1.034733  0
H  H20  1  0.47809323  0.52018506  0.41015288  1  0  0.113571  0  0.954115  0  0  0.123058  0  1.015509  0  0  0.126468  0  1.012759  0  0  0.110996  0.120711  0  1.017381  0
H  H21  1  0.52191916  0.47981106  0.58984716  1  0  0.113609  0  0.954044  0  0  0.123096  0  1.015419  0  0  0.126508  0  1.012669  0  0  0.11102  0.120749  0  1.017294  0
H  H22  1  0.74759590  0.35707186  0.32384162  1  0  0.085855  0  0.991505  0  0  0.094889  0  1.059375  0  0  0.09766  0  1.057408  0  0  0.102012  0.092907  0  1.060973  0
H  H23  1  0.25241075  0.64293103  0.67616137  1  0  0.085826  0  0.991487  0  0  0.094865  0  1.059355  0  0  0.097633  0  1.057389  0  0  0.102021  0.092882  0  1.060952  0
H  H24  1  0.80391056  0.48432962  0.21988614  1  0  0.102821  0  0.96203  0  0  0.11193  0  1.025742  0  0  0.115164  0  1.024271  0  0  0.101099  0.10982  0  1.02639  0
H  H25  1  0.19609359  0.51566992  0.78011585  1  0  0.102879  0  0.962132  0  0  0.111938  0  1.025895  0  0  0.115172  0  1.024424  0  0  0.101102  0.109828  0  1.02654  0
H  H26  1  0.35201055  0.74581299  0.20783428  1  0  0.149994  0  0.924212  0  0  0.165839  0  0.975601  0  0  0.168073  0  0.97586  0  0  0.114802  0.164062  0  0.975837  0
H  H27  1  0.64799790  0.25418989  0.79216873  1  0  0.150052  0  0.924229  0  0  0.165839  0  0.975639  0  0  0.168077  0  0.975896  0  0  0.114803  0.164063  0  0.975871  0
H  H28  1  0.03922286  0.70044062  0.18351165  1  0  0.143917  0  0.958728  0  0  0.155982  0  1.019281  0  0  0.158375  0  1.019033  0  0  0.114126  0.154188  0  1.019981  0
H  H29  1  0.96078742  0.29956226  0.81648921  1  0  0.143925  0  0.958724  0  0  0.156033  0  1.01921  0  0  0.158426  0  1.018959  0  0  0.114153  0.154237  0  1.019909  0
H  H30  1  0.17178648  0.81273253  0.51103792  1  0  0.393885  0  0.911224  0  0  0.362572  0  0.988295  0  0  0.375668  0  0.97012  0  0  0.302952  0.353348  0  0.998149  0
H  H31  1  0.82820412  0.18725359  0.48895571  1  0  0.393695  0  0.911305  0  0  0.362449  0  0.988411  0  0  0.375546  0  0.970236  0  0  0.302902  0.353229  0  0.998106  0
H  H32  1  0.55049952  0.38849980  0.10005518  1  0  0.438281  0  0.855409  0  0  0.405515  0  0.926969  0  0  0.41629  0  0.911515  0  0  0.320807  0.397942  0  0.938005  0
H  H33  1  0.44950411  0.61149749  0.89994761  1  0  0.438304  0  0.855389  0  0  0.405521  0  0.926957  0  0  0.416301  0  0.911498  0  0  0.320828  0.397952  0  0.937985  0
H  H34  1  0.20144268  0.30372705  0.52190126  1  0  0.394705  0  0.891991  0  0  0.363981  0  0.969609  0  0  0.377249  0  0.955684  0  0  0.304563  0.35464  0  0.979375  0
H  H35  1  0.79855310  0.69626691  0.47809939  1  0  0.394691  0  0.892044  0  0  0.363977  0  0.969623  0  0  0.377243  0  0.955702  0  0  0.304574  0.354635  0  0.979395  0
H  H36  1  0.72587941  0.66903183  0.08217573  1  0  0.453485  0  0.823843  0  0  0.426947  0  0.880634  0  0  0.436697  0  0.86637  0  0  0.320765  0.420245  0  0.890589  0
H  H37  1  0.27412525  0.33096995  0.91782546  1  0  0.453496  0  0.823788  0  0  0.426961  0  0.8806  0  0  0.436708  0  0.866341  0  0  0.320781  0.420264  0  0.890546  0
H  H38  1  0.66906216  0.83630634  0.08789895  1  0  0.471016  0  0.820182  0  0  0.438204  0  0.88564  0  0  0.449467  0  0.86944  0  0  0.306558  0.430188  0  0.897374  0
H  H39  1  0.33093687  0.16369434  0.91210258  1  0  0.471038  0  0.820156  0  0  0.438228  0  0.885606  0  0  0.449492  0  0.869405  0  0  0.306576  0.430212  0  0.89734  0
C  C40  1  0.25642612  0.09417506  0.25285613  1  0  0.169808  0  3.749521  0  0  0.185302  0  3.984439  0  0  0.189021  0  4.008926  0  0  0.001794  0.182917  0  3.969086  0
C  C41  1  0.74356675  0.90583015  0.74714479  1  0  0.169775  0  3.749517  0  0  0.185267  0  3.984445  0  0  0.188992  0  4.008922  0  0  0.001809  0.18288  0  3.969088  0
C  C42  1  0.42143332  0.08585656  0.31038989  1  0  -0.136875  0  3.727645  0  0  -0.157239  0  3.981253  0  0  -0.16306  0  4.002738  0  0  -0.094134  -0.15304  0  3.966588  0
C  C43  1  0.57856041  0.91414415  0.68960777  1  0  -0.136739  0  3.727581  0  0  -0.157093  0  3.981169  0  0  -0.162913  0  4.002653  0  0  -0.094088  -0.152894  0  3.96651  0
C  C44  1  0.35500963  0.00782500  0.36336965  1  0  -0.041985  0  3.706868  0  0  -0.069326  0  3.958535  0  0  -0.066531  0  3.97661  0  0  -0.078078  -0.070616  0  3.946184  0
C  C45  1  0.64497929  0.99217012  0.63662780  1  0  -0.042113  0  3.707071  0  0  -0.069466  0  3.95876  0  0  -0.066676  0  3.976843  0  0  -0.078178  -0.070756  0  3.946414  0
C  C46  1  0.12003202  0.93333733  0.35914327  1  0  -0.093393  0  3.780006  0  0  -0.073011  0  4.018685  0  0  -0.083519  0  4.043453  0  0  -0.023311  -0.066204  0  4.004294  0
C  C47  1  0.87995826  0.06665553  0.64085065  1  0  -0.093438  0  3.780036  0  0  -0.073118  0  4.018725  0  0  -0.083628  0  4.043487  0  0  -0.023334  -0.066315  0  4.004338  0
C  C48  1  0.95493174  0.93748275  0.30069176  1  0  -0.045259  0  3.730317  0  0  -0.070471  0  3.981797  0  0  -0.068081  0  4.001114  0  0  -0.077567  -0.07251  0  3.970251  0
C  C49  1  0.04505969  0.06251572  0.69930668  1  0  -0.045132  0  3.730131  0  0  -0.07032  0  3.981618  0  0  -0.067935  0  4.000943  0  0  -0.077531  -0.072361  0  3.970075  0
C  C50  1  0.02174948  0.01816178  0.24838541  1  0  -0.134418  0  3.702573  0  0  -0.15385  0  3.955392  0  0  -0.159162  0  3.97578  0  0  -0.089431  -0.150558  0  3.942686  0
C  C51  1  0.97823939  0.98184121  0.75161138  1  0  -0.134491  0  3.702871  0  0  -0.153944  0  3.955726  0  0  -0.15925  0  3.976108  0  0  -0.089483  -0.150656  0  3.94302  0
C  C52  1  0.33555491  0.19037043  0.20111154  1  0  -0.492244  0  3.664019  0  0  -0.506778  0  3.886061  0  0  -0.516171  0  3.892291  0  0  -0.159611  -0.5  0  3.88165  0
C  C53  1  0.66443998  0.80963590  0.79889009  1  0  -0.492221  0  3.66404  0  0  -0.506712  0  3.885974  0  0  -0.51609  0  3.892204  0  0  -0.159555  -0.499924  0  3.881536  0
C  C54  1  0.05129888  0.85354197  0.41730466  1  0  0.659687  0  3.811948  0  0  0.604002  0  4.11691  0  0  0.638226  0  4.108822  0  0  0.235324  0.580013  0  4.123429  0
C  C55  1  0.94869425  0.14644751  0.58268888  1  0  0.659434  0  3.812129  0  0  0.603893  0  4.116991  0  0  0.638129  0  4.108882  0  0  0.235291  0.579907  0  4.123509  0
C  C56  1  0.17452697  0.57492352  0.25639722  1  0  0.165269  0  3.755755  0  0  0.180732  0  3.990249  0  0  0.184241  0  4.014418  0  0  0.001052  0.177802  0  3.976412  0
C  C57  1  0.82547232  0.42507829  0.74360391  1  0  0.165291  0  3.755689  0  0  0.180704  0  3.990211  0  0  0.184213  0  4.014378  0  0  0.001059  0.177775  0  3.976368  0
C  C58  1  0.36305192  0.58514643  0.31054258  1  0  -0.130674  0  3.697442  0  0  -0.150767  0  3.951826  0  0  -0.156531  0  3.973331  0  0  -0.090575  -0.146756  0  3.938659  0
C  C59  1  0.63695248  0.41485423  0.68945902  1  0  -0.130671  0  3.697434  0  0  -0.150786  0  3.951865  0  0  -0.15655  0  3.973368  0  0  -0.090638  -0.146774  0  3.938697  0
C  C60  1  0.33252542  0.51181271  0.36785007  1  0  -0.036677  0  3.686465  0  0  -0.063561  0  3.936142  0  0  -0.060584  0  3.954728  0  0  -0.075798  -0.065689  0  3.923792  0
C  C61  1  0.66747647  0.48818459  0.63214998  1  0  -0.036698  0  3.68624  0  0  -0.063556  0  3.935921  0  0  -0.060582  0  3.954509  0  0  -0.075798  -0.065692  0  3.923586  0
C  C62  1  0.11103574  0.42740900  0.37180154  1  0  -0.094586  0  3.792377  0  0  -0.074585  0  4.032039  0  0  -0.085373  0  4.057013  0  0  -0.024372  -0.066972  0  4.016399  0
C  C63  1  0.88896997  0.57258940  0.62819924  1  0  -0.094585  0  3.792581  0  0  -0.074648  0  4.032253  0  0  -0.085436  0  4.057227  0  0  -0.024409  -0.067035  0  4.016616  0
C  C64  1  0.92103433  0.41865512  0.31833747  1  0  -0.054332  0  3.753178  0  0  -0.082905  0  4.007279  0  0  -0.08083  0  4.027211  0  0  -0.080789  -0.08428  0  3.994573  0
C  C65  1  0.07896294  0.58134558  0.68166240  1  0  -0.054168  0  3.753378  0  0  -0.082711  0  4.007432  0  0  -0.080631  0  4.027356  0  0  -0.080733  -0.084089  0  3.994727  0
C  C66  1  0.95247561  0.49073456  0.26110138  1  0  -0.130389  0  3.711195  0  0  -0.147227  0  3.96145  0  0  -0.151854  0  3.980952  0  0  -0.0916  -0.143849  0  3.948513  0
C  C67  1  0.04753670  0.50926943  0.73890019  1  0  -0.13059  0  3.711316  0  0  -0.147395  0  3.961585  0  0  -0.152021  0  3.981083  0  0  -0.091644  -0.144016  0  3.948642  0
C  C68  1  0.20403010  0.65244570  0.19417875  1  0  -0.511762  0  3.71231  0  0  -0.530738  0  3.941584  0  0  -0.540884  0  3.949079  0  0  -0.159967  -0.523995  0  3.937106  0
C  C69  1  0.79597991  0.34755605  0.80582359  1  0  -0.511908  0  3.712507  0  0  -0.530766  0  3.941618  0  0  -0.54091  0  3.949111  0  0  -0.159982  -0.524018  0  3.93713  0
C  C70  1  0.06839276  0.34627356  0.43077808  1  0  0.661818  0  3.802244  0  0  0.60633  0  4.104438  0  0  0.64065  0  4.096188  0  0  0.2405  0.5826  0  4.109786  0
C  C71  1  0.93160435  0.65371815  0.56922068  1  0  0.661814  0  3.802056  0  0  0.606472  0  4.104044  0  0  0.640794  0  4.095791  0  0  0.240632  0.58274  0  4.1094  0
O  O72  1  0.45238257  0.93720569  0.09591669  1  0  -0.953981  0  1.95861  0  0  -0.87651  0  2.216963  0  0  -0.908661  0  2.198303  0  0  -0.414977  -0.85823  0  2.229716  0
O  O73  1  0.54761380  0.06279950  0.90408808  1  0  -0.95396  0  1.958642  0  0  -0.87651  0  2.216999  0  0  -0.908644  0  2.198365  0  0  -0.415032  -0.85824  0  2.229777  0
O  O74  1  0.14320376  0.07122062  0.05645665  1  0  -1.068078  0  2.056919  0  0  -0.990885  0  2.344174  0  0  -1.031974  0  2.323927  0  0  -0.528147  -0.973159  0  2.358067  0
O  O75  1  0.85680347  0.92878452  0.94354227  1  0  -1.06801  0  2.056986  0  0  -0.990821  0  2.344238  0  0  -1.0319  0  2.324016  0  0  -0.528115  -0.973086  0  2.358116  0
O  O76  1  0.58200237  0.20345436  0.07964557  1  0  -0.966452  0  1.971635  0  0  -0.887844  0  2.246644  0  0  -0.921242  0  2.222029  0  0  -0.456717  -0.870663  0  2.262388  0
O  O77  1  0.41800964  0.79654850  0.92035803  1  0  -0.966366  0  1.971554  0  0  -0.887761  0  2.246553  0  0  -0.921161  0  2.22197  0  0  -0.456712  -0.870586  0  2.262295  0
O  O78  1  0.21992877  0.87422538  0.47210574  1  0  -0.537632  0  2.116996  0  0  -0.487111  0  2.339226  0  0  -0.509534  0  2.321731  0  0  -0.321223  -0.471378  0  2.349043  0
O  O79  1  0.78006467  0.12575736  0.52788751  1  0  -0.537449  0  2.117002  0  0  -0.487017  0  2.33927  0  0  -0.509444  0  2.321769  0  0  -0.321221  -0.47129  0  2.348971  0
O  O80  1  0.85167902  0.77481132  0.41428640  1  0  -0.571347  0  1.993066  0  0  -0.518318  0  2.213584  0  0  -0.541867  0  2.206238  0  0  -0.284028  -0.50226  0  2.219163  0
O  O81  1  0.14829844  0.22518048  0.58570995  1  0  -0.571169  0  1.993058  0  0  -0.518249  0  2.213625  0  0  -0.541802  0  2.206275  0  0  -0.283977  -0.502194  0  2.219201  0
O  O82  1  0.24959908  0.62200525  0.04581179  1  0  -0.971585  0  1.99329  0  0  -0.901496  0  2.278132  0  0  -0.935955  0  2.254105  0  0  -0.486301  -0.884334  0  2.291846  0
O  O83  1  0.75041370  0.37800099  0.95419060  1  0  -0.971561  0  1.993318  0  0  -0.901491  0  2.278169  0  0  -0.935944  0  2.254146  0  0  -0.486329  -0.884332  0  2.291882  0
O  O84  1  0.53244020  0.49868935  0.11416877  1  0  -0.758392  0  1.986167  0  0  -0.681896  0  2.205608  0  0  -0.702292  0  2.179198  0  0  -0.375527  -0.667405  0  2.222877  0
O  O85  1  0.46757696  0.50131237  0.88583365  1  0  -0.7584  0  1.986215  0  0  -0.681837  0  2.205627  0  0  -0.702224  0  2.179191  0  0  -0.375522  -0.66738  0  2.222915  0
O  O86  1  0.08907035  0.38562164  0.08747073  1  0  -0.96358  0  1.983784  0  0  -0.891231  0  2.262353  0  0  -0.924949  0  2.239371  0  0  -0.470575  -0.873874  0  2.275583  0
O  O87  1  0.91094018  0.61438236  0.91252972  1  0  -0.963482  0  1.983886  0  0  -0.891224  0  2.26251  0  0  -0.924945  0  2.239527  0  0  -0.470517  -0.873865  0  2.275729  0
O  O88  1  0.24660960  0.36384006  0.48247078  1  0  -0.527781  0  2.106138  0  0  -0.4771  0  2.32677  0  0  -0.499227  0  2.312221  0  0  -0.315943  -0.461319  0  2.336329  0
O  O89  1  0.75339434  0.63615836  0.51752890  1  0  -0.527719  0  2.106288  0  0  -0.477093  0  2.326857  0  0  -0.499217  0  2.312308  0  0  -0.315987  -0.461307  0  2.3364  0
O  O90  1  0.87149767  0.26627858  0.42999079  1  0  -0.562094  0  2.031697  0  0  -0.506177  0  2.249549  0  0  -0.529521  0  2.240899  0  0  -0.280418  -0.489602  0  2.254605  0
O  O91  1  0.12851346  0.73371980  0.57000734  1  0  -0.562199  0  2.031252  0  0  -0.506351  0  2.249118  0  0  -0.529699  0  2.240471  0  0  -0.280517  -0.489774  0  2.254213  0
O  O92  1  0.80107614  0.76912712  0.08031547  1  0  -0.944227  0  1.802339  0  0  -0.897798  0  2.005309  0  0  -0.924737  0  1.968361  0  0  -0.643718  -0.885166  0  2.028165  0
O  O93  1  0.19892494  0.23087468  0.91968513  1  0  -0.944254  0  1.802242  0  0  -0.89784  0  2.005258  0  0  -0.924774  0  1.968315  0  0  -0.643751  -0.885207  0  2.028112  0
