# generated using pymatgen
data_Zr6H39C50N10ClO32
_symmetry_space_group_name_H-M   'P 1'
_cell_length_a   14.77499219
_cell_length_b   14.79035447
_cell_length_c   14.82080218
_cell_angle_alpha   60.19564325
_cell_angle_beta   59.95815635
_cell_angle_gamma   60.16684031
_symmetry_Int_Tables_number   1
_chemical_formula_structural   Zr6H39C50N10ClO32
_chemical_formula_sum   'Zr6 H39 C50 N10 Cl1 O32'
_cell_volume   2295.66518235
_cell_formula_units_Z   1
loop_
 _symmetry_equiv_pos_site_id
 _symmetry_equiv_pos_as_xyz
  1  'x, y, z'
loop_
 _atom_site_type_symbol
 _atom_site_label
 _atom_site_symmetry_multiplicity
 _atom_site_fract_x
 _atom_site_fract_y
 _atom_site_fract_z
 _atom_site_occupancy
 _atom_site_pbe_bader_charge
 _atom_site_pbe_bader_spin_density
 _atom_site_pbe_cm5_charge
 _atom_site_pbe_ddec_charge
 _atom_site_pbe_ddec_spin_density
 _atom_site_pbe_ddec_sum_bond_order
 _atom_site_pbe_magmom
Zr  Zr0  1  0.87743993  0.88633474  0.61341693  1  2.630066  0  1.629324  2.358339  0  2.79408  0
Zr  Zr1  1  0.12280937  0.11545091  0.38395651  1  2.630622  0  1.633528  2.363668  0  2.797028  0
Zr  Zr2  1  0.11654700  0.87906656  0.62087240  1  2.633367  0  1.62849  2.370363  0  2.761186  0
Zr  Zr3  1  0.88372489  0.12405232  0.37571561  1  2.634012  0  1.625488  2.369386  0  2.748939  0
Zr  Zr4  1  0.11865311  0.88177344  0.37982414  1  2.633136  0  1.625851  2.362275  0  2.776199  0
Zr  Zr5  1  0.88065522  0.12013862  0.61767898  1  2.634636  0  1.626997  2.363195  0  2.776272  0
H  H6  1  0.08915380  0.71962054  0.59176969  1  0.617499  0  0.332566  0.424829  0  0.855732  0
H  H7  1  0.10021818  0.09307031  0.21719830  1  0.594764  0  0.332684  0.426195  0  0.851761  0
H  H8  1  0.09421042  0.09025403  0.59744737  1  0.602877  0  0.334048  0.427038  0  0.850143  0
H  H9  1  0.71752135  0.10009089  0.58788049  1  0.597764  0  0.333804  0.427175  0  0.848764  0
H  H10  1  0.14006431  0.59074326  0.36189452  1  0.107953  0  0.101747  0.114506  0  1.01552  0
H  H11  1  0.86008880  0.40841997  0.64075846  1  0.074947  0  0.101038  0.1126  0  1.019847  0
H  H12  1  0.60009412  0.13109020  0.91562482  1  0.062262  0  0.101244  0.112728  0  1.016605  0
H  H13  1  0.40833443  0.86073850  0.09003131  1  0.112857  0  0.10078  0.112655  0  1.020077  0
H  H14  1  0.85909663  0.14012373  0.09096547  1  0.066913  0  0.100661  0.110396  0  1.022895  0
H  H15  1  0.13523384  0.85886409  0.91034728  1  0.073372  0  0.104126  0.117787  0  1.010472  0
H  H16  1  0.59465794  0.41243051  0.35609021  1  0.085973  0  0.102572  0.113165  0  1.022061  0
H  H17  1  0.40899865  0.59294980  0.63741748  1  0.071869  0  0.101834  0.113984  0  1.012721  0
H  H18  1  0.13290156  0.60347448  0.91199169  1  0.081268  0  0.107323  0.125337  0  1.007474  0
H  H19  1  0.73816407  0.61426600  0.97558513  1  0.049132  0  0.089677  0.093845  0  1.011556  0
H  H20  1  0.82778552  0.53088366  0.88784353  1  0.079307  0  0.092616  0.105203  0  1.01095  0
H  H21  1  0.84349956  0.35986996  0.05620232  1  0.066181  0  0.098866  0.112309  0  0.985116  0
H  H22  1  0.75346770  0.44305882  0.14362494  1  0.053271  0  0.096221  0.107228  0  0.993329  0
H  H23  1  0.59578897  0.86558714  0.63400119  1  0.083173  0  0.100871  0.112575  0  1.021868  0
H  H24  1  0.40620065  0.13578494  0.36072566  1  0.056166  0  0.103508  0.118147  0  1.016554  0
H  H25  1  0.16884668  0.35570089  0.32166437  1  0.485354  0  0.290322  0.295508  0  1.013572  0
H  H26  1  0.21267124  0.46599637  0.26837823  1  0.42937  0  0.295145  0.285408  0  0.963823  0
H  H27  1  0.81224905  0.66327565  0.66009133  1  0.477958  0  0.296049  0.303455  0  0.997025  0
H  H28  1  0.75960771  0.56113946  0.70530771  1  0.393276  0  0.297829  0.284318  0  0.962461  0
H  H29  1  0.36059393  0.16380997  0.15817812  1  0.480792  0  0.291695  0.297315  0  1.009374  0
H  H30  1  0.45781595  0.22047280  0.04587190  1  0.407931  0  0.295443  0.285474  0  0.964309  0
H  H31  1  0.65161809  0.82415010  0.85002104  1  0.485103  0  0.29769  0.303351  0  1.001103  0
H  H32  1  0.54788217  0.77176456  0.95902233  1  0.399251  0  0.300441  0.289513  0  0.961229  0
H  H33  1  0.81239919  0.16091648  0.86327855  1  0.480603  0  0.295409  0.301053  0  1.001495  0
H  H34  1  0.75831860  0.20484589  0.97391620  1  0.421928  0  0.298296  0.287968  0  0.959732  0
H  H35  1  0.16302729  0.81800851  0.15758405  1  0.492069  0  0.295846  0.30146  0  1.001906  0
H  H36  1  0.20688427  0.76415533  0.05650213  1  0.434299  0  0.301017  0.290858  0  0.958259  0
H  H37  1  0.35893316  0.65858346  0.31644349  1  0.49035  0  0.296669  0.302435  0  1.000517  0
H  H38  1  0.46924247  0.55638507  0.26317169  1  0.425889  0  0.300544  0.290187  0  0.959073  0
H  H39  1  0.66216149  0.36480734  0.65917650  1  0.487835  0  0.295593  0.301545  0  1.001245  0
H  H40  1  0.55918918  0.47401800  0.70513736  1  0.409069  0  0.297597  0.286  0  0.96373  0
H  H41  1  0.36235896  0.81525419  0.66923156  1  0.484034  0  0.296679  0.303061  0  0.998026  0
H  H42  1  0.47266578  0.76701715  0.71261967  1  0.413617  0  0.298469  0.287369  0  0.962275  0
H  H43  1  0.65386918  0.17165489  0.31102309  1  0.486106  0  0.296189  0.30159  0  0.998708  0
H  H44  1  0.54983074  0.21293669  0.26183217  1  0.408092  0  0.300854  0.291972  0  0.957345  0
C  C45  1  0.99198623  0.70106717  0.49669735  1  1.529451  0  0.233757  0.651498  0  4.073945  0
C  C46  1  0.31249219  0.99440441  0.20169808  1  1.486244  0  0.234157  0.65218  0  4.068707  0
C  C47  1  0.00250562  0.30416227  0.49904226  1  1.508288  0  0.233241  0.650968  0  4.072689  0
C  C48  1  0.69475006  0.99892370  0.80298569  1  1.510138  0  0.233758  0.651875  0  4.072519  0
C  C49  1  0.98815310  0.70387970  0.80580742  1  1.578202  0  0.239102  0.649659  0  4.099754  0
C  C50  1  0.69806640  0.00685029  0.48725377  1  1.512496  0  0.234156  0.652826  0  4.068424  0
C  C51  1  0.00592636  0.30703942  0.19991792  1  1.592249  0  0.236237  0.658451  0  4.100267  0
C  C52  1  0.30777017  0.99051131  0.50375488  1  1.508449  0  0.235475  0.653886  0  4.068515  0
C  C53  1  0.30477951  0.69616356  0.49642687  1  1.503395  0  0.233482  0.65103  0  4.069965  0
C  C54  1  0.99122954  0.99775680  0.80934450  1  1.533657  0  0.23364  0.64953  0  4.071671  0
C  C55  1  0.70154325  0.31211993  0.49439420  1  1.489534  0  0.233691  0.649881  0  4.070972  0
C  C56  1  0.00135550  0.99888174  0.19411145  1  1.504108  0  0.234675  0.652895  0  4.063545  0
C  C57  1  0.00493905  0.40381350  0.49743748  1  0.003067  0  -0.026194  -0.135397  0  3.94587  0
C  C58  1  0.99280339  0.59772724  0.50257178  1  0.021242  0  -0.026138  -0.136396  0  3.952156  0
C  C59  1  0.08805475  0.45383938  0.41633374  1  0.456266  0  0.095682  0.283234  0  4.073395  0
C  C60  1  0.91121985  0.54620721  0.58523405  1  0.388576  0  0.090577  0.271956  0  4.079563  0
C  C61  1  0.07832823  0.54999748  0.42223434  1  -0.050568  0  -0.099816  -0.20028  0  3.962721  0
C  C62  1  0.92059427  0.45041448  0.57918296  1  -0.011402  0  -0.102115  -0.204703  0  3.97471  0
C  C63  1  0.41313754  0.99602487  0.10196810  1  -0.047296  0  -0.025482  -0.13277  0  3.945687  0
C  C64  1  0.59724389  0.99390708  0.90542288  1  0.039515  0  -0.026561  -0.137478  0  3.949213  0
C  C65  1  0.46709109  0.07518454  0.05370314  1  0.438558  0  0.092141  0.276041  0  4.073867  0
C  C66  1  0.54416229  0.91389195  0.95437686  1  0.398883  0  0.094015  0.280354  0  4.084267  0
C  C67  1  0.55730151  0.07140134  0.95580861  1  -0.001211  0  -0.10008  -0.198814  0  3.96837  0
C  C68  1  0.45298209  0.91848491  0.05160807  1  0.002689  0  -0.101741  -0.206931  0  3.972003  0
C  C69  1  0.99066595  0.00174799  0.90770227  1  -0.017635  0  -0.025133  -0.134451  0  3.946715  0
C  C70  1  0.00245849  0.99593008  0.09502835  1  0.043782  0  -0.026633  -0.136953  0  3.947644  0
C  C71  1  0.90962332  0.08458722  0.95793471  1  0.402155  0  0.091978  0.275848  0  4.079781  0
C  C72  1  0.08365569  0.91336824  0.04450217  1  0.350827  0  0.094446  0.279524  0  4.079418  0
C  C73  1  0.91912207  0.07833883  0.05034351  1  -0.01065  0  -0.102563  -0.207848  0  3.977363  0
C  C74  1  0.07446804  0.91987612  0.95173982  1  0.048164  0  -0.099248  -0.201372  0  3.963672  0
C  C75  1  0.40577408  0.59709245  0.49325539  1  -0.03175  0  -0.02611  -0.135733  0  3.946517  0
C  C76  1  0.59946390  0.41011969  0.49857583  1  0.050438  0  -0.025325  -0.133435  0  3.945796  0
C  C77  1  0.45737345  0.54641485  0.41085931  1  0.413046  0  0.093954  0.27895  0  4.08302  0
C  C78  1  0.54713267  0.45999112  0.58174408  1  0.444776  0  0.091543  0.275481  0  4.084241  0
C  C79  1  0.55323576  0.45403038  0.41691544  1  -0.049794  0  -0.100643  -0.205578  0  3.968409  0
C  C80  1  0.45151987  0.55248513  0.57549506  1  0.025986  0  -0.101879  -0.205061  0  3.972712  0
C  C81  1  0.98885329  0.60520454  0.90760784  1  -0.062724  0  -0.006456  -0.055556  0  3.961232  0
C  C82  1  0.00455440  0.40888456  0.10103655  1  0.011725  0  -0.012237  -0.141137  0  3.915088  0
C  C83  1  0.91383288  0.54864578  0.96175135  1  0.07732  0  -0.001711  0.063477  0  3.877133  0
C  C84  1  0.08091912  0.46710461  0.04477781  1  0.067241  0  0.022953  0.141305  0  3.996111  0
C  C85  1  0.92234600  0.45443784  0.05477349  1  -0.055134  0  0.002496  0.082975  0  3.870963  0
C  C86  1  0.07236272  0.56182771  0.95226605  1  0.058332  0  -0.089083  -0.171409  0  3.966255  0
C  C87  1  0.81408455  0.54375953  0.96127494  1  -0.060708  0  -0.15487  -0.195711  0  3.875752  0
C  C88  1  0.82354198  0.43693731  0.06671874  1  -0.025963  0  -0.151013  -0.19969  0  3.875001  0
C  C89  1  0.40673623  0.99227931  0.50424762  1  0.034049  0  -0.025323  -0.13598  0  3.949427  0
C  C90  1  0.59671729  0.00765204  0.48902520  1  0.013143  0  -0.026196  -0.136859  0  3.951508  0
C  C91  1  0.45887445  0.91330828  0.58534959  1  0.432335  0  0.092602  0.277182  0  4.095431  0
C  C92  1  0.54302510  0.08811723  0.40951561  1  0.434613  0  0.094743  0.279899  0  4.086239  0
C  C93  1  0.55314259  0.92405044  0.57405105  1  -0.045244  0  -0.102826  -0.206673  0  3.972651  0
C  C94  1  0.44937589  0.07667075  0.42011155  1  0.007644  0  -0.097784  -0.198534  0  3.957498  0
N  N95  1  0.17728453  0.41108275  0.33590278  1  -1.266814  0  -0.607528  -0.626439  0  3.34889  0
N  N96  1  0.82701260  0.58408669  0.67161239  1  -1.215774  0  -0.603456  -0.628251  0  3.338212  0
N  N97  1  0.43738555  0.15149830  0.10021831  1  -1.22788  0  -0.609882  -0.633212  0  3.332462  0
N  N98  1  0.57530880  0.83698486  0.90840628  1  -1.229024  0  -0.605506  -0.629171  0  3.352196  0
N  N99  1  0.82611353  0.17096104  0.91789478  1  -1.228915  0  -0.60781  -0.627876  0  3.328216  0
N  N100  1  0.17107947  0.83115273  0.08024685  1  -1.245432  0  -0.605396  -0.62626  0  3.335349  0
N  N101  1  0.41567425  0.58160993  0.32947883  1  -1.260102  0  -0.604786  -0.624577  0  3.340979  0
N  N102  1  0.58390181  0.41950949  0.66840989  1  -1.238211  0  -0.6075  -0.6286  0  3.338657  0
N  N103  1  0.41878425  0.83115121  0.67422265  1  -1.246452  0  -0.604614  -0.626264  0  3.346325  0
N  N104  1  0.57668154  0.17654870  0.32661554  1  -1.23159  0  -0.603789  -0.625457  0  3.339232  0
Cl  Cl105  1  0.19289497  0.42510428  0.08363367  1  -0.223472  0  -0.018764  -0.095076  0  1.533205  0
O  O106  1  0.91376840  0.74510131  0.57108102  1  -1.185176  0  -0.359499  -0.624563  0  2.320158  0
O  O107  1  0.27068120  0.07074550  0.24363556  1  -1.180335  0  -0.357817  -0.619014  0  2.31558  0
O  O108  1  0.07954490  0.26145580  0.42343198  1  -1.180904  0  -0.35794  -0.618187  0  2.316606  0
O  O109  1  0.73494598  0.92462753  0.75880679  1  -1.1867  0  -0.360751  -0.625658  0  2.321858  0
O  O110  1  0.06665766  0.74198066  0.76498657  1  -1.189252  0  -0.363317  -0.621534  0  2.305774  0
O  O111  1  0.74021281  0.08306795  0.41085189  1  -1.188193  0  -0.354662  -0.622273  0  2.287509  0
O  O112  1  0.92837249  0.26910164  0.23603198  1  -1.176318  0  -0.352173  -0.61314  0  2.280931  0
O  O113  1  0.26612009  0.91382131  0.57982160  1  -1.183493  0  -0.355337  -0.624375  0  2.291597  0
O  O114  1  0.26311409  0.73825208  0.42001970  1  -1.185863  0  -0.358328  -0.622817  0  2.314892  0
O  O115  1  0.91480452  0.07360842  0.76764133  1  -1.190577  0  -0.358294  -0.622831  0  2.312737  0
O  O116  1  0.74303900  0.26994472  0.57092734  1  -1.182546  0  -0.358218  -0.622074  0  2.312971  0
O  O117  1  0.07659498  0.92172846  0.23695405  1  -1.192288  0  -0.358892  -0.624195  0  2.308671  0
O  O118  1  0.06766981  0.92068494  0.76986833  1  -1.195332  0  -0.356296  -0.62358  0  2.275318  0
O  O119  1  0.74271744  0.27335609  0.41648727  1  -1.185064  0  -0.357358  -0.626473  0  2.276617  0
O  O120  1  0.92691080  0.07786078  0.23184441  1  -1.186422  0  -0.359764  -0.631171  0  2.27532  0
O  O121  1  0.26327726  0.73459441  0.57470067  1  -1.180678  0  -0.358463  -0.629456  0  2.271155  0
O  O122  1  0.91230771  0.74119681  0.76626143  1  -1.173804  0  -0.342113  -0.604881  0  2.238345  0
O  O123  1  0.26748606  0.06675014  0.42757768  1  -1.189758  0  -0.364135  -0.626621  0  2.304831  0
O  O124  1  0.08197593  0.26446684  0.24058287  1  -1.183757  0  -0.355596  -0.622872  0  2.342849  0
O  O125  1  0.73850355  0.93008422  0.56326492  1  -1.190868  0  -0.366502  -0.631918  0  2.310487  0
O  O126  1  0.73422560  0.07613359  0.76296999  1  -1.18539  0  -0.358276  -0.628367  0  2.279289  0
O  O127  1  0.06876292  0.74099181  0.41964198  1  -1.189095  0  -0.357937  -0.628638  0  2.277867  0
O  O128  1  0.27047332  0.91956115  0.23980236  1  -1.183795  0  -0.359056  -0.630134  0  2.278102  0
O  O129  1  0.92484692  0.26492124  0.57520615  1  -1.189198  0  -0.360185  -0.62977  0  2.282599  0
O  O130  1  0.79787814  0.07280648  0.56152916  1  -1.223779  0  -0.695911  -1.067019  0  2.361463  0
O  O131  1  0.06720696  0.06424747  0.57011372  1  -1.226029  0  -0.696792  -1.068375  0  2.366716  0
O  O132  1  0.07113610  0.06760040  0.29723964  1  -1.222735  0  -0.695882  -1.069217  0  2.363621  0
O  O133  1  0.06302766  0.79968140  0.56599319  1  -1.246504  0  -0.695461  -1.068077  0  2.366839  0
O  O134  1  0.14872404  0.94805416  0.45221356  1  -1.197803  0  -0.795754  -1.146181  0  2.149666  0
O  O135  1  0.95019249  0.95498905  0.44594679  1  -1.197043  0  -0.794731  -1.143444  0  2.144337  0
O  O136  1  0.95329327  0.14897456  0.44930954  1  -1.195212  0  -0.794503  -1.146162  0  2.14156  0
O  O137  1  0.94777728  0.95184261  0.64679582  1  -1.199245  0  -0.794008  -1.146719  0  2.142167  0
