# generated using pymatgen
data_CuH9C16NO4
_symmetry_space_group_name_H-M   'P 1'
_cell_length_a   18.00836777
_cell_length_b   20.63240093
_cell_length_c   20.63237829
_cell_angle_alpha   72.39230449
_cell_angle_beta   64.12726058
_cell_angle_gamma   64.12715550
_symmetry_Int_Tables_number   1
_chemical_formula_structural   CuH9C16NO4
_chemical_formula_sum   'Cu8 H72 C128 N8 O32'
_cell_volume   6146.52629633
_cell_formula_units_Z   8
loop_
 _symmetry_equiv_pos_site_id
 _symmetry_equiv_pos_as_xyz
  1  'x, y, z'
loop_
 _atom_site_type_symbol
 _atom_site_label
 _atom_site_symmetry_multiplicity
 _atom_site_fract_x
 _atom_site_fract_y
 _atom_site_fract_z
 _atom_site_occupancy
 _atom_site_pbe_bader_charge
 _atom_site_pbe_bader_spin_density
 _atom_site_pbe_cm5_charge
 _atom_site_pbe_ddec_charge
 _atom_site_pbe_ddec_spin_density
 _atom_site_pbe_ddec_sum_bond_order
 _atom_site_pbe_magmom
Cu  Cu0  1  0.04807483  0.27680778  0.63202621  1  1.067422  0.572163  0.682226  0.761252  0.729913  2.381762  0.573
Cu  Cu1  1  0.45697600  0.22316539  0.86800221  1  1.073253  0.572389  0.683037  0.760906  0.729411  2.383978  0.573
Cu  Cu2  1  0.54301888  0.13200386  0.77683984  1  1.068555  0.572219  0.683  0.76099  0.72942  2.383833  0.573
Cu  Cu3  1  0.95192139  0.36797830  0.72319548  1  1.071473  0.57229  0.68224  0.761286  0.729899  2.381734  0.573
Cu  Cu4  1  0.95192399  0.72319296  0.36797311  1  1.067496  0.57215  0.682219  0.761321  0.729894  2.381566  0.573
Cu  Cu5  1  0.54301979  0.77683808  0.13200178  1  1.068351  0.572223  0.683032  0.760965  0.729426  2.383884  0.573
Cu  Cu6  1  0.45697768  0.86800070  0.22316450  1  1.073436  0.572383  0.683016  0.760953  0.729401  2.383863  0.573
Cu  Cu7  1  0.04807804  0.63202244  0.27680505  1  1.071418  0.572293  0.682253  0.761315  0.729906  2.38173  0.573
H  H8  1  0.53226854  0.01650479  0.01650597  1  0.087411  0.000421  0.104158  0.109885  0.000171  1.017488  0.0
H  H9  1  0.06533887  0.48344587  0.48344580  1  0.083459  0.000425  0.105191  0.112482  0.00017  1.014443  0.0
H  H10  1  0.93465995  0.51655487  0.51655400  1  0.08386  0.000425  0.105226  0.112533  0.00017  1.014434  0.0
H  H11  1  0.46772951  0.98349487  0.98349445  1  0.08774  0.000421  0.104168  0.109963  0.000171  1.017433  0.0
H  H12  1  0.83774630  0.97958794  0.97958683  1  0.078667  0.000471  0.10259  0.10475  0.000185  1.010191  0.0
H  H13  1  0.29694424  0.52040451  0.52040458  1  0.05763  0.000473  0.102965  0.105344  0.000185  1.009671  0.0
H  H14  1  0.70305760  0.47959351  0.47959490  1  0.057539  0.000473  0.102976  0.10536  0.000185  1.009677  0.0
H  H15  1  0.16225306  0.02041008  0.02041117  1  0.07863  0.000471  0.102581  0.104673  0.000185  1.01011  0.0
H  H16  1  0.73932195  0.27346180  0.84420871  1  0.064344  0.000377  0.10504  0.108463  0.000285  1.000964  0.0
H  H17  1  0.35697051  0.22648148  0.65589947  1  0.11061  0.000376  0.105101  0.108509  0.000286  1.001345  0.0
H  H18  1  0.64302713  0.34410030  0.77352310  1  0.110495  0.000376  0.105109  0.108544  0.000286  1.001435  0.0
H  H19  1  0.26067649  0.15579401  0.72653970  1  0.064374  0.000377  0.105056  0.1085  0.000285  1.00099  0.0
H  H20  1  0.26068042  0.72653785  0.15578959  1  0.064322  0.000377  0.105029  0.10843  0.000285  1.001042  0.0
H  H21  1  0.64303063  0.77351817  0.34409978  1  0.110625  0.000376  0.105105  0.108501  0.000286  1.001364  0.0
H  H22  1  0.35697215  0.65589936  0.22647880  1  0.110525  0.000376  0.105082  0.108478  0.000286  1.001387  0.0
H  H23  1  0.73932341  0.84420564  0.27345905  1  0.064443  0.000377  0.105062  0.108473  0.000285  1.000969  0.0
H  H24  1  0.89658325  0.00751263  0.83761225  1  0.03947  0.000234  0.099873  0.099301  0.00011  0.999885  0.0
H  H25  1  0.24175564  0.49244513  0.66238464  1  0.038509  0.000235  0.100491  0.100321  0.000111  0.999779  0.0
H  H26  1  0.75824601  0.33761488  0.50755665  1  0.038572  0.000235  0.100519  0.10038  0.000111  0.999759  0.0
H  H27  1  0.10341275  0.16238753  0.99248926  1  0.039468  0.000234  0.099891  0.099303  0.000111  0.999838  0.0
H  H28  1  0.10341642  0.99248756  0.16238594  1  0.039489  0.000234  0.0999  0.099334  0.000111  0.999832  0.0
H  H29  1  0.75824649  0.50755505  0.33761213  1  0.038568  0.000235  0.100499  0.100332  0.000111  0.999827  0.0
H  H30  1  0.24175413  0.66238424  0.49244412  1  0.038574  0.000235  0.100501  0.100334  0.000111  0.999779  0.0
H  H31  1  0.89658615  0.83761158  0.00751004  1  0.03946  0.000234  0.0999  0.099339  0.000111  0.999804  0.0
H  H32  1  0.97160813  0.09448976  0.75543151  1  0.075467  0.000364  0.102384  0.10344  0.000278  1.008751  0.0
H  H33  1  0.32149512  0.40552127  0.74461526  1  0.069443  0.000361  0.102033  0.102781  0.000279  1.00649  0.0
H  H34  1  0.67850629  0.25538569  0.59448152  1  0.069571  0.000361  0.102041  0.10279  0.000279  1.006495  0.0
H  H35  1  0.02839233  0.24456942  0.90551156  1  0.075453  0.000364  0.102395  0.103487  0.000278  1.008848  0.0
H  H36  1  0.02839200  0.90550935  0.24456780  1  0.075499  0.000364  0.102398  0.103472  0.000278  1.008745  0.0
H  H37  1  0.67850616  0.59447947  0.25538409  1  0.069458  0.000361  0.102063  0.102828  0.000279  1.006482  0.0
H  H38  1  0.32149423  0.74461396  0.40551990  1  0.069528  0.000361  0.102057  0.102821  0.000279  1.006513  0.0
H  H39  1  0.97160610  0.75543078  0.09448855  1  0.075484  0.000364  0.102404  0.103516  0.000278  1.00884  0.0
H  H40  1  0.17048887  0.27681950  0.47157751  1  0.121808  4e-06  0.122196  0.100007  -3.2e-05  0.985074  0.0
H  H41  1  0.41890251  0.22316062  0.02844258  1  0.131081  2e-06  0.122061  0.100175  -3.2e-05  0.984901  0.0
H  H42  1  0.58109936  0.97155485  0.77683960  1  0.131096  2e-06  0.122055  0.100136  -3.2e-05  0.984921  0.0
H  H43  1  0.82951059  0.52842202  0.72318165  1  0.121475  4e-06  0.122203  0.100002  -3.2e-05  0.98506  0.0
H  H44  1  0.82951018  0.72318070  0.52842188  1  0.121817  4e-06  0.122184  0.099984  -3.2e-05  0.985053  0.0
H  H45  1  0.58110070  0.77683848  0.97155507  1  0.131136  2e-06  0.122073  0.100157  -3.2e-05  0.984947  0.0
H  H46  1  0.41890332  0.02844262  0.22316021  1  0.131063  2e-06  0.12207  0.100177  -3.2e-05  0.984889  0.0
H  H47  1  0.17048907  0.47157818  0.27681944  1  0.121807  4e-06  0.122212  0.100029  -3.2e-05  0.985053  0.0
H  H48  1  0.26069495  0.19265016  0.37878271  1  0.060355  5.8e-05  0.107022  0.108295  3.8e-05  1.012693  0.0
H  H49  1  0.33214153  0.30733918  0.12121190  1  0.05674  5.8e-05  0.10717  0.109174  3.7e-05  1.012931  0.0
H  H50  1  0.66786035  0.87878611  0.69266132  1  0.056685  5.8e-05  0.107181  0.109217  3.7e-05  1.012941  0.0
H  H51  1  0.73930439  0.62121626  0.80735110  1  0.060498  5.8e-05  0.107046  0.108327  3.8e-05  1.01268  0.0
H  H52  1  0.73930286  0.80735003  0.62121667  1  0.060383  5.8e-05  0.107028  0.108287  3.8e-05  1.012725  0.0
H  H53  1  0.66786208  0.69266046  0.87878593  1  0.056635  5.8e-05  0.107148  0.109172  3.7e-05  1.012914  0.0
H  H54  1  0.33214187  0.12121245  0.30733736  1  0.05671  5.8e-05  0.107166  0.109202  3.7e-05  1.012955  0.0
H  H55  1  0.26069489  0.37878340  0.19264933  1  0.060463  5.8e-05  0.107036  0.108298  3.8e-05  1.012678  0.0
H  H56  1  0.66176657  0.18768169  0.92370709  1  0.06212  0.000192  0.103817  0.110501  8.1e-05  0.99826  0.0
H  H57  1  0.27319294  0.31221156  0.57637798  1  0.077899  0.000191  0.103137  0.109822  8.1e-05  0.996298  0.0
H  H58  1  0.72680621  0.42362337  0.68779134  1  0.077813  0.000191  0.103132  0.109841  8.1e-05  0.996342  0.0
H  H59  1  0.33822959  0.07629547  0.81232106  1  0.062205  0.000192  0.103792  0.110452  8.1e-05  0.998318  0.0
H  H60  1  0.33823324  0.81231959  0.07629120  1  0.062089  0.000192  0.103793  0.110458  8.1e-05  0.998302  0.0
H  H61  1  0.72680951  0.68778646  0.42362126  1  0.077968  0.000191  0.103135  0.109836  8.1e-05  0.996283  0.0
H  H62  1  0.27319469  0.57637683  0.31220880  1  0.077856  0.000191  0.10315  0.109834  8.1e-05  0.996338  0.0
H  H63  1  0.66176799  0.92370527  0.18767921  1  0.06216  0.000192  0.10379  0.11045  8.1e-05  0.998289  0.0
H  H64  1  0.09374184  0.11709669  0.63056306  1  0.138021  1.2e-05  0.122042  0.097359  -2.9e-05  0.9939  0.0
H  H65  1  0.34155220  0.38286376  0.86941125  1  0.113084  1.6e-05  0.121953  0.09716  -2.9e-05  0.993897  0.0
H  H66  1  0.65844754  0.13058774  0.61713694  1  0.11312  1.6e-05  0.121957  0.097162  -2.9e-05  0.993905  0.0
H  H67  1  0.90625938  0.36943583  0.88290265  1  0.138015  1.2e-05  0.122041  0.097368  -2.9e-05  0.993899  0.0
H  H68  1  0.90625991  0.88290296  0.36943692  1  0.138006  1.2e-05  0.122056  0.097388  -2.9e-05  0.993903  0.0
H  H69  1  0.65844770  0.61713590  0.13058847  1  0.113102  1.6e-05  0.121944  0.09713  -2.9e-05  0.993922  0.0
H  H70  1  0.34155467  0.86941082  0.38286271  1  0.1131  1.6e-05  0.121965  0.09717  -2.9e-05  0.993908  0.0
H  H71  1  0.09374152  0.63056437  0.11709749  1  0.138021  1.2e-05  0.122037  0.097357  -2.9e-05  0.993899  0.0
H  H72  1  0.18161244  0.02446455  0.54638393  1  0.083631  4.9e-05  0.109132  0.111407  3.4e-05  1.00929  0.0
H  H73  1  0.25254819  0.47549962  0.95356525  1  0.074182  4.9e-05  0.109744  0.112526  3.4e-05  1.009296  0.0
H  H74  1  0.74745061  0.04643520  0.52450049  1  0.0742  4.9e-05  0.109753  0.11253  3.4e-05  1.009292  0.0
H  H75  1  0.81839008  0.45361396  0.97553528  1  0.083966  4.9e-05  0.109133  0.111424  3.4e-05  1.009282  0.0
H  H76  1  0.81838931  0.97553511  0.45361557  1  0.083959  4.9e-05  0.109125  0.111411  3.4e-05  1.009262  0.0
H  H77  1  0.74745218  0.52449895  0.04643511  1  0.074111  4.9e-05  0.109737  0.112498  3.4e-05  1.009288  0.0
H  H78  1  0.25254967  0.95356500  0.47549843  1  0.074248  4.9e-05  0.109756  0.112545  3.4e-05  1.00932  0.0
H  H79  1  0.18161105  0.54638570  0.02446445  1  0.083935  4.9e-05  0.109127  0.111398  3.4e-05  1.009306  0.0
C  C80  1  0.64343271  0.05066912  0.95088736  1  -0.008581  0.014123  -0.00793  -0.047683  0.010092  3.932612  0.011
C  C81  1  0.14508691  0.44924685  0.54903938  1  0.022873  0.01408  -0.007688  -0.049225  0.010107  3.932458  0.011
C  C82  1  0.85491399  0.45095969  0.55075300  1  0.023122  0.01408  -0.007706  -0.049268  0.010107  3.932559  0.011
C  C83  1  0.35656182  0.04911980  0.94933713  1  -0.008318  0.014119  -0.008004  -0.047901  0.010093  3.932738  0.011
C  C84  1  0.35656440  0.94933272  0.04911566  1  -0.008667  0.014123  -0.007954  -0.047633  0.010092  3.93258  0.011
C  C85  1  0.85491663  0.55075007  0.45095736  1  0.023221  0.014081  -0.007616  -0.049162  0.010107  3.932451  0.011
C  C86  1  0.14508784  0.54903832  0.44924599  1  0.022647  0.014081  -0.007731  -0.049251  0.010107  3.932489  0.011
C  C87  1  0.64343535  0.95088477  0.05066794  1  -0.008896  0.014123  -0.00792  -0.047671  0.010091  3.932603  0.011
C  C88  1  0.59526584  0.10249192  0.90115208  1  1.57844  -0.001467  0.214601  0.585628  -0.001711  4.183187  -0.004
C  C89  1  0.09896675  0.39744495  0.59881486  1  1.576193  -0.001388  0.212499  0.582856  -0.001705  4.187546  -0.004
C  C90  1  0.90103216  0.40118481  0.60255610  1  1.576128  -0.00139  0.212489  0.582841  -0.001704  4.187591  -0.004
C  C91  1  0.40472496  0.09885697  0.89751666  1  1.578115  -0.00146  0.214548  0.585571  -0.001711  4.183519  -0.004
C  C92  1  0.40473127  0.89750991  0.09884852  1  1.57851  -0.001467  0.21457  0.585612  -0.001711  4.183326  -0.004
C  C93  1  0.90103748  0.60255033  0.40118066  1  1.576113  -0.001391  0.212539  0.58295  -0.001705  4.18733  -0.004
C  C94  1  0.09897114  0.59881266  0.39744104  1  1.576139  -0.001388  0.212633  0.582895  -0.001704  4.187566  -0.004
C  C95  1  0.59526943  0.90114977  0.10248881  1  1.578624  -0.001467  0.214517  0.585498  -0.001711  4.183355  -0.004
C  C96  1  0.60033485  0.00721013  0.00720975  1  -0.064717  0.009542  -0.08392  -0.122745  0.006199  3.954879  0.006
C  C97  1  0.11484360  0.49272278  0.49272294  1  -0.091733  0.009567  -0.085404  -0.125233  0.006195  3.956404  0.006
C  C98  1  0.88515785  0.50727469  0.50727540  1  -0.092103  0.009569  -0.085465  -0.12532  0.006196  3.956534  0.006
C  C99  1  0.39966094  0.99279334  0.99279473  1  -0.064532  0.00954  -0.083885  -0.122777  0.006198  3.954903  0.006
C  C100  1  0.90781503  0.24065706  0.74878898  1  1.543149  -0.001146  0.212944  0.579471  -0.001426  4.15763  -0.004
C  C101  1  0.39724936  0.25932710  0.75130596  1  1.546543  -0.001117  0.21321  0.580693  -0.001441  4.157365  -0.004
C  C102  1  0.60274249  0.24870344  0.74068150  1  1.54639  -0.001119  0.213342  0.580735  -0.001442  4.157174  -0.004
C  C103  1  0.09218411  0.25121349  0.75934461  1  1.543186  -0.001145  0.212872  0.579304  -0.001424  4.157777  -0.004
C  C104  1  0.09218757  0.75934204  0.25120939  1  1.543552  -0.001146  0.212938  0.579496  -0.001426  4.15749  -0.004
C  C105  1  0.60274590  0.74067474  0.24869680  1  1.546326  -0.001117  0.213312  0.580766  -0.001442  4.157175  -0.004
C  C106  1  0.39725446  0.75130166  0.25932302  1  1.546176  -0.001116  0.21322  0.580622  -0.001441  4.157337  -0.004
C  C107  1  0.90781711  0.74878453  0.24065365  1  1.543404  -0.001146  0.212885  0.579419  -0.001425  4.157755  -0.004
C  C108  1  0.23023851  0.09949923  0.45345582  1  -0.017492  -0.00106  0.0098  0.098225  -0.001184  3.983735  -0.001
C  C109  1  0.28323828  0.40048825  0.04652962  1  -0.093245  -0.001071  0.010407  0.102034  -0.001183  3.982693  -0.001
C  C110  1  0.71676153  0.95346970  0.59951148  1  -0.093174  -0.001071  0.010371  0.102009  -0.001183  3.982541  -0.001
C  C111  1  0.76976186  0.54654267  0.90050172  1  -0.017211  -0.00106  0.009927  0.098271  -0.001184  3.983629  -0.001
C  C112  1  0.76976139  0.90050042  0.54654341  1  -0.017448  -0.00106  0.009826  0.098225  -0.001184  3.983711  -0.001
C  C113  1  0.71676224  0.59951140  0.95347035  1  -0.093611  -0.001071  0.01038  0.102048  -0.001183  3.982675  -0.001
C  C114  1  0.28323946  0.04652887  0.40048816  1  -0.093302  -0.001071  0.01044  0.102034  -0.001183  3.982667  -0.001
C  C115  1  0.23023804  0.45345699  0.09949897  1  -0.017327  -0.00106  0.009827  0.09821  -0.001184  3.983702  -0.001
C  C116  1  0.86022031  0.18935279  0.79493215  1  -0.017209  0.016806  -0.017066  -0.029489  0.01186  3.963056  0.013
C  C117  1  0.34444588  0.31060539  0.70520572  1  -0.081709  0.016908  -0.017975  -0.029264  0.011866  3.965553  0.013
C  C118  1  0.65554921  0.29479931  0.68939751  1  -0.08213  0.016909  -0.018043  -0.029237  0.011866  3.965489  0.013
C  C119  1  0.13977893  0.20506979  0.81064861  1  -0.017212  0.016807  -0.017043  -0.02939  0.01186  3.962999  0.013
C  C120  1  0.13978206  0.81064686  0.20506566  1  -0.01727  0.016809  -0.017068  -0.029542  0.011862  3.963135  0.013
C  C121  1  0.65555255  0.68939481  0.29479536  1  -0.081698  0.01691  -0.017996  -0.029276  0.011867  3.965501  0.013
C  C122  1  0.34444975  0.70520252  0.31060335  1  -0.081807  0.016908  -0.018003  -0.029185  0.011866  3.965471  0.013
C  C123  1  0.86022043  0.79492822  0.18935085  1  -0.017194  0.016807  -0.017061  -0.029439  0.01186  3.963162  0.013
C  C124  1  0.73040820  0.04071083  0.93978784  1  -0.039458  0.010761  -0.000309  0.051854  0.006975  3.986101  0.007
C  C125  1  0.21100214  0.45921582  0.56015348  1  -0.085775  0.010791  0.000424  0.055556  0.006977  3.983306  0.007
C  C126  1  0.78899630  0.43984719  0.54078670  1  -0.085848  0.010793  0.000403  0.05559  0.006979  3.983289  0.007
C  C127  1  0.26958696  0.06021727  0.95929234  1  -0.039491  0.010761  -0.000297  0.051897  0.006975  3.986096  0.007
C  C128  1  0.26958914  0.95929046  0.06021429  1  -0.039496  0.010761  -0.000336  0.051728  0.006975  3.986196  0.007
C  C129  1  0.78899970  0.54078220  0.43984455  1  -0.086906  0.010794  0.000381  0.055514  0.006979  3.983454  0.007
C  C130  1  0.21100345  0.56015138  0.45921437  1  -0.085294  0.010791  0.00041  0.055628  0.006977  3.983167  0.007
C  C131  1  0.73041015  0.93978456  0.04071020  1  -0.039341  0.010761  -0.000312  0.051881  0.006976  3.986097  0.007
C  C132  1  0.77430258  0.09137993  0.88703843  1  -0.078938  -0.001264  -0.002897  0.081697  -0.001537  3.995757  -0.001
C  C133  1  0.25276771  0.40855211  0.61296768  1  -0.039433  -0.001276  -0.00371  0.081289  -0.001544  3.995222  -0.001
C  C134  1  0.74723148  0.38703380  0.59145038  1  -0.039541  -0.001276  -0.003759  0.081226  -0.001544  3.995221  -0.001
C  C135  1  0.22569599  0.11296395  0.90862122  1  -0.079051  -0.001264  -0.002887  0.081753  -0.001537  3.995868  -0.001
C  C136  1  0.22569770  0.90862026  0.11296146  1  -0.07898  -0.001264  -0.002845  0.081798  -0.001537  3.995846  -0.001
C  C137  1  0.74723412  0.59144590  0.38703131  1  -0.038493  -0.001277  -0.003804  0.081203  -0.001544  3.995243  -0.001
C  C138  1  0.25276951  0.61296476  0.40855023  1  -0.039887  -0.001276  -0.003722  0.081206  -0.001544  3.99521  -0.001
C  C139  1  0.77430344  0.88703679  0.09137834  1  -0.079025  -0.001264  -0.002877  0.081784  -0.001537  3.995812  -0.001
C  C140  1  0.77215883  0.98515254  0.98515266  1  0.06013  -0.000954  -0.083545  -0.172825  -0.001243  3.945818  -0.001
C  C141  1  0.24253925  0.51480084  0.51480086  1  0.09643  -0.000971  -0.084639  -0.176315  -0.001244  3.947172  -0.001
C  C142  1  0.75745980  0.48519936  0.48520047  1  0.096434  -0.000971  -0.084639  -0.176311  -0.001244  3.947245  -0.001
C  C143  1  0.22783975  0.01484875  0.01484803  1  0.060313  -0.000953  -0.083528  -0.172619  -0.001243  3.94566  -0.001
C  C144  1  0.77273471  0.21517799  0.84236856  1  -0.052484  0.000393  -0.080114  -0.080194  -8.4e-05  3.976151  0.0
C  C145  1  0.33026943  0.28475672  0.65775001  1  -0.037364  0.000336  -0.080362  -0.081408  -8.5e-05  3.97661  0.0
C  C146  1  0.66973066  0.34225172  0.71524610  1  -0.03706  0.000336  -0.080373  -0.081487  -8.5e-05  3.976534  0.0
C  C147  1  0.22726442  0.15763379  0.78482204  1  -0.052289  0.000393  -0.080158  -0.080304  -8.4e-05  3.976168  0.0
C  C148  1  0.22726689  0.78482057  0.15762939  1  -0.052273  0.000393  -0.080107  -0.080142  -8.4e-05  3.976145  0.0
C  C149  1  0.66973255  0.71524239  0.34224957  1  -0.037675  0.000336  -0.080367  -0.081386  -8.5e-05  3.976557  0.0
C  C150  1  0.33027171  0.65774794  0.28475510  1  -0.037318  0.000336  -0.080323  -0.081385  -8.5e-05  3.976457  0.0
C  C151  1  0.77273571  0.84236532  0.21517631  1  -0.052334  0.000393  -0.080102  -0.080206  -8.4e-05  3.97628  0.0
C  C152  1  0.86183265  0.06586116  0.83909311  1  0.06446  0.00228  -0.090975  -0.133857  0.001422  3.993272  0.002
C  C153  1  0.26680699  0.43409596  0.66092019  1  -0.019416  0.002292  -0.092232  -0.137381  0.001423  3.993503  0.002
C  C154  1  0.73319521  0.33907845  0.56590590  1  -0.019826  0.002292  -0.092256  -0.137457  0.001423  3.993449  0.002
C  C155  1  0.13816756  0.16090779  0.93414049  1  0.064381  0.00228  -0.09101  -0.133921  0.001422  3.993411  0.002
C  C156  1  0.13816809  0.93413795  0.16090500  1  0.064419  0.002281  -0.091039  -0.133972  0.001422  3.993311  0.002
C  C157  1  0.73319314  0.56590315  0.33907815  1  -0.019327  0.002292  -0.092219  -0.137377  0.001423  3.99348  0.002
C  C158  1  0.26680724  0.66091957  0.43409335  1  -0.019821  0.002292  -0.092243  -0.137375  0.001423  3.993523  0.002
C  C159  1  0.86183149  0.83909241  0.06585939  1  0.064437  0.002281  -0.091046  -0.133979  0.001422  3.993344  0.002
C  C160  1  0.90388333  0.11428730  0.79292776  1  -0.01311  6.5e-05  -0.086657  -0.089094  -0.000257  3.991708  0.0
C  C161  1  0.31104947  0.38569317  0.70714989  1  0.012481  5.6e-05  -0.08449  -0.086204  -0.000262  3.987721  0.0
C  C162  1  0.68894771  0.29285311  0.61431177  1  0.013099  5.5e-05  -0.084494  -0.086218  -0.000263  3.987896  0.0
C  C163  1  0.09611571  0.20707399  0.88571554  1  -0.013096  6.5e-05  -0.086623  -0.089091  -0.000257  3.991763  0.0
C  C164  1  0.09611695  0.88571289  0.20706971  1  -0.013055  6.4e-05  -0.086655  -0.089089  -0.000257  3.991777  0.0
C  C165  1  0.68894888  0.61430866  0.29285121  1  0.012489  5.5e-05  -0.084518  -0.086263  -0.000262  3.987893  0.0
C  C166  1  0.31105196  0.70714710  0.38569030  1  0.013085  5.5e-05  -0.084531  -0.086312  -0.000262  3.987963  0.0
C  C167  1  0.90388381  0.79292511  0.11428352  1  -0.013226  6.5e-05  -0.086658  -0.089173  -0.000257  3.991757  0.0
C  C168  1  0.17485643  0.22017411  0.48517193  1  0.447947  -0.000731  0.052707  0.102826  -0.000821  3.944228  0.0
C  C169  1  0.38027977  0.27981786  0.01481374  1  0.470672  -0.000736  0.053113  0.103187  -0.000823  3.945599  0.0
C  C170  1  0.61972179  0.98518520  0.72018228  1  0.470593  -0.000735  0.053165  0.103289  -0.000823  3.945584  0.0
C  C171  1  0.82514094  0.51482702  0.77982791  1  0.44843  -0.000731  0.052708  0.10286  -0.000821  3.944215  0.0
C  C172  1  0.82514177  0.77982663  0.51482811  1  0.448076  -0.000731  0.052722  0.102867  -0.000821  3.944217  0.0
C  C173  1  0.61972283  0.72018125  0.98518560  1  0.470344  -0.000735  0.053182  0.10328  -0.000823  3.945658  0.0
C  C174  1  0.38027996  0.01481445  0.27981721  1  0.470573  -0.000736  0.053066  0.103151  -0.000823  3.945634  0.0
C  C175  1  0.17485749  0.48517318  0.22017366  1  0.448192  -0.000731  0.052728  0.102881  -0.000821  3.944158  0.0
C  C176  1  0.22544609  0.17228119  0.43383415  1  0.072886  0.000608  -0.08197  -0.174349  0.000399  3.955527  0.001
C  C177  1  0.33161106  0.32771354  0.06615474  1  0.013906  0.000611  -0.083577  -0.178166  0.000396  3.956583  0.001
C  C178  1  0.66838902  0.93384368  0.67228657  1  0.013897  0.00061  -0.083629  -0.17827  0.000396  3.956569  0.001
C  C179  1  0.77455385  0.56616469  0.82771983  1  0.072861  0.000608  -0.082029  -0.174393  0.000399  3.955535  0.001
C  C180  1  0.77455358  0.82771901  0.56616598  1  0.072866  0.000608  -0.081953  -0.174314  0.000398  3.955572  0.001
C  C181  1  0.66839031  0.67228557  0.93384458  1  0.014157  0.00061  -0.0836  -0.178251  0.000396  3.956568  0.001
C  C182  1  0.33161196  0.06615488  0.32771258  1  0.013878  0.000611  -0.08359  -0.178227  0.000396  3.956628  0.001
C  C183  1  0.22544543  0.43383497  0.17228109  1  0.072898  0.000608  -0.082001  -0.174365  0.000399  3.955473  0.001
C  C184  1  0.72987641  0.16686257  0.88702471  1  -0.026874  0.002226  -0.088626  -0.125168  0.001367  3.955549  0.002
C  C185  1  0.28379461  0.33305802  0.61304303  1  0.009855  0.002218  -0.087476  -0.123675  0.001366  3.952848  0.002
C  C186  1  0.71620554  0.38695871  0.66694318  1  0.009996  0.002218  -0.087402  -0.123603  0.001367  3.952862  0.002
C  C187  1  0.27012122  0.11297726  0.83313955  1  -0.027003  0.002226  -0.088581  -0.125088  0.001367  3.95551  0.002
C  C188  1  0.27012317  0.83313926  0.11297349  1  -0.027047  0.002227  -0.088616  -0.125152  0.001367  3.955538  0.002
C  C189  1  0.71620645  0.66693891  0.38695756  1  0.010099  0.002218  -0.087389  -0.123602  0.001367  3.952853  0.002
C  C190  1  0.28379598  0.61304149  0.33305721  1  0.010041  0.002217  -0.087442  -0.123604  0.001366  3.952851  0.002
C  C191  1  0.72987806  0.88702239  0.16686089  1  -0.026988  0.002227  -0.088628  -0.125158  0.001367  3.955559  0.002
C  C192  1  0.13257782  0.13085861  0.57404678  1  0.441341  -0.00074  0.053799  0.104001  -0.000855  3.94623  0.0
C  C193  1  0.33762783  0.36911273  0.92592550  1  0.507136  -0.000751  0.054893  0.10625  -0.000855  3.945441  0.0
C  C194  1  0.66237215  0.07407287  0.63088722  1  0.506831  -0.000751  0.054893  0.106269  -0.000855  3.945456  0.0
C  C195  1  0.86742297  0.42595173  0.86914162  1  0.441304  -0.00074  0.053813  0.103954  -0.000855  3.946269  0.0
C  C196  1  0.86742246  0.86914158  0.42595311  1  0.441354  -0.00074  0.05375  0.103868  -0.000855  3.946193  0.0
C  C197  1  0.66237269  0.63088692  0.07407350  1  0.507164  -0.00075  0.054873  0.106251  -0.000854  3.945439  0.0
C  C198  1  0.33762945  0.92592569  0.36911170  1  0.507233  -0.000751  0.054934  0.106297  -0.000855  3.945457  0.0
C  C199  1  0.13257693  0.57404792  0.13085907  1  0.441308  -0.00074  0.053848  0.104046  -0.000855  3.946219  0.0
C  C200  1  0.18189589  0.07958885  0.52612553  1  -0.012231  0.000607  -0.081207  -0.173731  0.000398  3.951228  0.001
C  C201  1  0.28770749  0.42038735  0.97383763  1  -0.001411  0.000609  -0.082599  -0.177698  0.000396  3.953891  0.001
C  C202  1  0.71229155  0.02616218  0.57961244  1  -0.001425  0.000608  -0.082552  -0.177641  0.000396  3.953881  0.001
C  C203  1  0.81810461  0.47387330  0.92041198  1  -0.012531  0.000607  -0.081234  -0.173706  0.000398  3.951101  0.001
C  C204  1  0.81810377  0.92041134  0.47387460  1  -0.012542  0.000607  -0.081168  -0.17364  0.000398  3.951187  0.001
C  C205  1  0.71229325  0.57961176  0.02616242  1  -0.001216  0.000608  -0.082569  -0.177644  0.000396  3.953821  0.001
C  C206  1  0.28770920  0.97383693  0.42038664  1  -0.001269  0.000609  -0.082609  -0.177697  0.000396  3.953854  0.001
C  C207  1  0.18189505  0.52612690  0.07958863  1  -0.012509  0.000607  -0.08121  -0.173716  0.000398  3.951166  0.001
N  N208  1  0.12873604  0.20020024  0.55433458  1  -1.220794  0.006495  -0.326571  -0.218775  0.00472  3.490049  0.007
N  N209  1  0.38337030  0.29977022  0.94565895  1  -1.208742  0.00643  -0.326367  -0.218084  0.004686  3.489475  0.007
N  N210  1  0.61662784  0.05434117  0.70023131  1  -1.208562  0.006421  -0.326391  -0.218191  0.00468  3.489298  0.007
N  N211  1  0.87126302  0.44566536  0.79980136  1  -1.220934  0.006498  -0.326634  -0.218834  0.004723  3.490217  0.007
N  N212  1  0.87126339  0.79980050  0.44566499  1  -1.220903  0.006492  -0.326567  -0.218789  0.004719  3.489972  0.007
N  N213  1  0.61662875  0.70022998  0.05434141  1  -1.208718  0.006427  -0.326366  -0.218105  0.004684  3.489361  0.007
N  N214  1  0.38337267  0.94565849  0.29976963  1  -1.208787  0.00643  -0.326368  -0.218086  0.004686  3.489483  0.007
N  N215  1  0.12873726  0.55433484  0.20019950  1  -1.221095  0.006495  -0.326645  -0.218869  0.004721  3.490197  0.007
O  O216  1  0.98195103  0.21404970  0.69886252  1  -1.112671  0.104722  -0.316779  -0.522776  0.066536  2.383715  0.094
O  O217  1  0.39494886  0.28595175  0.80116696  1  -1.106684  0.104732  -0.318202  -0.524051  0.066614  2.384887  0.094
O  O218  1  0.60503855  0.19884381  0.71405708  1  -1.10694  0.10473  -0.318185  -0.524102  0.066612  2.384857  0.094
O  O219  1  0.01804800  0.30114101  0.78595206  1  -1.112802  0.104731  -0.31679  -0.522761  0.066541  2.383656  0.094
O  O220  1  0.01805196  0.78594994  0.30113457  1  -1.112977  0.104724  -0.316807  -0.522832  0.066537  2.383643  0.094
O  O221  1  0.60504625  0.71404900  0.19883619  1  -1.106963  0.104738  -0.31827  -0.524112  0.066619  2.384787  0.094
O  O222  1  0.39495361  0.80116239  0.28595038  1  -1.106813  0.104742  -0.318236  -0.524111  0.066621  2.384738  0.094
O  O223  1  0.98195460  0.69885809  0.21404534  1  -1.112901  0.104729  -0.316808  -0.522805  0.066541  2.383588  0.094
O  O224  1  0.52438677  0.15372657  0.92990716  1  -1.109323  0.100177  -0.315847  -0.527143  0.064015  2.369066  0.091
O  O225  1  0.10799144  0.34621595  0.57009865  1  -1.106291  0.100212  -0.31522  -0.525726  0.064024  2.370913  0.091
O  O226  1  0.89200613  0.42990196  0.65378485  1  -1.106382  0.100209  -0.315189  -0.525682  0.064021  2.370957  0.091
O  O227  1  0.47560649  0.07010001  0.84628327  1  -1.109108  0.100181  -0.315758  -0.527137  0.064018  2.368986  0.091
O  O228  1  0.47560864  0.84627635  0.07009472  1  -1.109258  0.100177  -0.31581  -0.527159  0.064015  2.369092  0.091
O  O229  1  0.89200947  0.65377988  0.42989748  1  -1.106324  0.100212  -0.315182  -0.525712  0.064024  2.370769  0.091
O  O230  1  0.10799524  0.57009715  0.34621351  1  -1.106405  0.100202  -0.315252  -0.52573  0.064018  2.371052  0.091
O  O231  1  0.52439107  0.92990511  0.15372391  1  -1.109225  0.100179  -0.315802  -0.527088  0.064016  2.368987  0.091
O  O232  1  0.62542264  0.08881189  0.83676017  1  -1.103122  0.081363  -0.306869  -0.514132  0.051707  2.282283  0.074
O  O233  1  0.05108386  0.41115296  0.66319774  1  -1.106645  0.081386  -0.305652  -0.512795  0.051757  2.282044  0.074
O  O234  1  0.94891902  0.33680314  0.58884635  1  -1.106462  0.081394  -0.305633  -0.512765  0.051762  2.282056  0.074
O  O235  1  0.37457148  0.16324537  0.91119735  1  -1.103655  0.081341  -0.306901  -0.514037  0.051693  2.282589  0.074
O  O236  1  0.37457570  0.91118994  0.16324045  1  -1.103181  0.081352  -0.306902  -0.514165  0.051699  2.282356  0.074
O  O237  1  0.94892487  0.58883906  0.33679900  1  -1.106509  0.081392  -0.305722  -0.512894  0.051761  2.282019  0.074
O  O238  1  0.05108481  0.66319595  0.41115010  1  -1.106495  0.081401  -0.305694  -0.512823  0.051767  2.28198  0.074
O  O239  1  0.62542261  0.83675920  0.08880890  1  -1.103269  0.081349  -0.306827  -0.514059  0.051698  2.282391  0.074
O  O240  1  0.87351126  0.30572587  0.76256783  1  -1.108497  0.087401  -0.313532  -0.527546  0.055176  2.306876  0.079
O  O241  1  0.44176076  0.19426276  0.73750891  1  -1.11135  0.087481  -0.312658  -0.527096  0.055343  2.305987  0.079
O  O242  1  0.55823087  0.26250555  0.80574395  1  -1.110985  0.087459  -0.312753  -0.527077  0.055328  2.305693  0.079
O  O243  1  0.12648676  0.23743731  0.69427560  1  -1.108429  0.087403  -0.313515  -0.5275  0.055177  2.307  0.079
O  O244  1  0.12649072  0.69427323  0.23743078  1  -1.108569  0.087406  -0.313502  -0.527521  0.055179  2.306753  0.079
O  O245  1  0.55823582  0.80573746  0.26249675  1  -1.110942  0.087457  -0.312678  -0.527094  0.055328  2.305961  0.079
O  O246  1  0.44176560  0.73750500  0.19426005  1  -1.110986  0.087463  -0.312632  -0.527019  0.055331  2.306072  0.079
O  O247  1  0.87351423  0.76256124  0.30572210  1  -1.108542  0.087401  -0.313511  -0.52754  0.055175  2.307018  0.079
