# generated using pymatgen
data_Zn3H58C44(NO2)8
_symmetry_space_group_name_H-M   'P 1'
_cell_length_a   8.22271036
_cell_length_b   13.06024865
_cell_length_c   13.42530000
_cell_angle_alpha   71.64096730
_cell_angle_beta   79.63460276
_cell_angle_gamma   87.99325120
_symmetry_Int_Tables_number   1
_chemical_formula_structural   Zn3H58C44(NO2)8
_chemical_formula_sum   'Zn3 H58 C44 N8 O16'
_cell_volume   1345.67509394
_cell_formula_units_Z   1
loop_
 _symmetry_equiv_pos_site_id
 _symmetry_equiv_pos_as_xyz
  1  'x, y, z'
loop_
 _atom_site_type_symbol
 _atom_site_label
 _atom_site_symmetry_multiplicity
 _atom_site_fract_x
 _atom_site_fract_y
 _atom_site_fract_z
 _atom_site_occupancy
 _atom_site_hle17_bader_spin_density
 _atom_site_hle17_ddec_charge
 _atom_site_hle17_ddec_spin_density
 _atom_site_hle17_ddec_sum_bond_order
 _atom_site_hle17_magmom
 _atom_site_hse06_10hf_bader_spin_density
 _atom_site_hse06_10hf_ddec_charge
 _atom_site_hse06_10hf_ddec_spin_density
 _atom_site_hse06_10hf_ddec_sum_bond_order
 _atom_site_hse06_10hf_magmom
 _atom_site_hse06_bader_spin_density
 _atom_site_hse06_ddec_charge
 _atom_site_hse06_ddec_spin_density
 _atom_site_hse06_ddec_sum_bond_order
 _atom_site_hse06_magmom
 _atom_site_pbe_bader_charge
 _atom_site_pbe_bader_spin_density
 _atom_site_pbe_cm5_charge
 _atom_site_pbe_ddec_charge
 _atom_site_pbe_ddec_spin_density
 _atom_site_pbe_ddec_sum_bond_order
 _atom_site_pbe_magmom
Zn  Zn0  1  0.22234975  0.36716905  0.63357063  1  0  0.973434  0  1.879418  0  0  0.772679  0  2.361257  0  0  0.822819  0  2.305279  0  1.242002  0  0.686188  0.737702  0  2.399629  0
Zn  Zn1  1  0.77765255  0.63283042  0.36642891  1  0  0.973389  0  1.87934  0  0  0.772613  0  2.36116  0  0  0.822751  0  2.305199  0  1.242088  0  0.686177  0.737634  0  2.399529  0
Zn  Zn2  1  0.00000003  0.00000081  0.00000049  1  0  1.166169  0  1.672927  0  0  1.019133  0  2.101621  0  0  1.066752  0  2.042733  0  1.341584  0  0.646949  0.985363  0  2.142238  0
H  H3  1  0.88778979  0.03622288  0.17150259  1  0  0.417517  0  0.837182  0  0  0.398143  0  0.897418  0  0  0.406366  0  0.888116  0  0.614465  0  0.311085  0.392262  0  0.904144  0
H  H4  1  0.11220876  0.96377578  0.82849910  1  0  0.417559  0  0.837096  0  0  0.398246  0  0.897292  0  0  0.406447  0  0.888027  0  0.614458  0  0.311125  0.392378  0  0.904004  0
H  H5  1  0.91732185  0.91126034  0.21470014  1  0  0.430738  0  0.872075  0  0  0.398384  0  0.938781  0  0  0.408506  0  0.924299  0  0.658499  0  0.29311  0.391225  0  0.949023  0
H  H6  1  0.08267676  0.08873993  0.78529881  1  0  0.430679  0  0.872149  0  0  0.398347  0  0.938822  0  0  0.408468  0  0.924338  0  0.658499  0  0.293093  0.39119  0  0.94906  0
H  H7  1  0.86966423  0.80287817  0.03392864  1  0  0.423171  0  0.877401  0  0  0.393529  0  0.938668  0  0  0.404535  0  0.92271  0  0.646097  0  0.280879  0.385715  0  0.949997  0
H  H8  1  0.13033320  0.19712372  0.96607368  1  0  0.423182  0  0.877393  0  0  0.393542  0  0.938666  0  0  0.404552  0  0.9227  0  0.646112  0  0.280898  0.385728  0  0.949994  0
H  H9  1  0.84179546  0.89193281  0.92336772  1  0  0.397497  0  0.928666  0  0  0.362509  0  1.000838  0  0  0.374967  0  0.98288  0  0.639711  0  0.269135  0.353756  0  1.013419  0
H  H10  1  0.15820824  0.10807150  0.07663465  1  0  0.397456  0  0.928727  0  0  0.362468  0  1.0009  0  0  0.374926  0  0.982943  0  0.639686  0  0.269113  0.353715  0  1.013482  0
H  H11  1  0.17428083  0.46554813  0.79564038  1  0  0.093453  0  0.939963  0  0  0.102802  0  0.998472  0  0  0.105613  0  0.995619  0  0.142502  0  0.123429  0.100641  0  1.000675  0
H  H12  1  0.82570539  0.53445134  0.20435794  1  0  0.093397  0  0.93995  0  0  0.102811  0  0.998415  0  0  0.105622  0  0.995562  0  0.142678  0  0.123424  0.100645  0  1.000614  0
H  H13  1  0.10752114  0.64709104  0.81848497  1  0  0.114371  0  0.928232  0  0  0.127293  0  0.980799  0  0  0.131076  0  0.978968  0  0.100858  0  0.113848  0.124467  0  0.982455  0
H  H14  1  0.89247002  0.35290843  0.18151132  1  0  0.114375  0  0.928237  0  0  0.127275  0  0.980813  0  0  0.131059  0  0.978982  0  0.100891  0  0.113817  0.124449  0  0.98247  0
H  H15  1  0.23576785  0.78596506  0.47696273  1  0  0.125993  0  0.940399  0  0  0.131912  0  1.004254  0  0  0.135963  0  1.00199  0  0.13028  0  0.11656  0.128927  0  1.006115  0
H  H16  1  0.76423930  0.21403198  0.52303627  1  0  0.125985  0  0.940328  0  0  0.131931  0  1.004173  0  0  0.135982  0  1.00191  0  0.130282  0  0.116558  0.128944  0  1.00603  0
H  H17  1  0.30341448  0.60061007  0.46765967  1  0  0.080471  0  0.935595  0  0  0.091235  0  0.996866  0  0  0.093195  0  0.995396  0  0.106715  0  0.118839  0.089706  0  0.998046  0
H  H18  1  0.69659146  0.39938779  0.53233996  1  0  0.080552  0  0.935544  0  0  0.091305  0  0.996814  0  0  0.093266  0  0.995342  0  0.106723  0  0.118868  0.089775  0  0.997995  0
H  H19  1  0.02877526  0.83350154  0.72940580  1  0  0.064018  0  0.910113  0  0  0.079359  0  0.976156  0  0  0.081134  0  0.973968  0  0.030892  0  0.09968  0.077978  0  0.977877  0
H  H20  1  0.97122456  0.16649792  0.27059178  1  0  0.064028  0  0.910051  0  0  0.079355  0  0.976102  0  0  0.081136  0  0.973903  0  0.03087  0  0.099679  0.077972  0  0.977823  0
H  H21  1  0.23943869  0.87188466  0.67974410  1  0  0.073444  0  0.912578  0  0  0.094624  0  0.96836  0  0  0.09513  0  0.967474  0  0.052215  0  0.112672  0.094194  0  0.969097  0
H  H22  1  0.76056357  0.12811400  0.32025419  1  0  0.073474  0  0.912578  0  0  0.094658  0  0.968337  0  0  0.095165  0  0.967451  0  0.052204  0  0.112691  0.094227  0  0.969075  0
H  H23  1  0.21869259  0.04737105  0.57917329  1  0  0.059252  0  0.921064  0  0  0.079377  0  0.978252  0  0  0.079446  0  0.978122  0  0.039646  0  0.101157  0.079268  0  0.978409  0
H  H24  1  0.78131220  0.95262922  0.42082423  1  0  0.059284  0  0.921102  0  0  0.079431  0  0.978271  0  0  0.0795  0  0.978141  0  0.03966  0  0.101185  0.079318  0  0.978438  0
H  H25  1  0.00229560  0.04117601  0.63023935  1  0  0.066918  0  0.92922  0  0  0.080408  0  0.998517  0  0  0.081679  0  0.997259  0  0.070968  0  0.096835  0.079386  0  0.999543  0
H  H26  1  0.99770920  0.95882426  0.36975668  1  0  0.066917  0  0.92914  0  0  0.080421  0  0.998465  0  0  0.081696  0  0.997201  0  0.070895  0  0.096815  0.079393  0  0.99949  0
H  H27  1  0.83280702  0.89915673  0.60566322  1  0  0.044934  0  0.925419  0  0  0.05957  0  0.993705  0  0  0.060748  0  0.992263  0  0.028026  0  0.089331  0.058645  0  0.994886  0
H  H28  1  0.16719521  0.10084112  0.39433458  1  0  0.044881  0  0.925483  0  0  0.059531  0  0.993798  0  0  0.060707  0  0.992358  0  0.02798  0  0.08932  0.058608  0  0.994979  0
H  H29  1  0.93412779  0.81092922  0.53690579  1  0  0.060309  0  0.956289  0  0  0.077471  0  1.019271  0  0  0.076672  0  1.022273  0  0.044969  0  0.098253  0.078025  0  1.017251  0
H  H30  1  0.06587700  0.18907105  0.46309024  1  0  0.060294  0  0.956214  0  0  0.077492  0  1.019214  0  0  0.076692  0  1.022216  0  0.044987  0  0.098256  0.078045  0  1.017194  0
H  H31  1  0.42239271  0.22390193  0.53569532  1  0  0.092076  0  0.935768  0  0  0.101852  0  0.994299  0  0  0.104508  0  0.991822  0  0.125652  0  0.123928  0.099793  0  0.996268  0
H  H32  1  0.57761700  0.77609754  0.46430265  1  0  0.092105  0  0.935718  0  0  0.101859  0  0.994289  0  0  0.104515  0  0.991812  0  0.125041  0  0.123936  0.099801  0  0.996256  0
H  H33  1  0.49059731  0.19330760  0.35732730  1  0  0.10816  0  0.941794  0  0  0.121196  0  0.995461  0  0  0.124095  0  0.994845  0  0.072196  0  0.111362  0.119015  0  0.99624  0
H  H34  1  0.50940751  0.80669348  0.64266997  1  0  0.108195  0  0.941708  0  0  0.121238  0  0.995368  0  0  0.124138  0  0.994751  0  0.072236  0  0.111376  0.119057  0  0.996149  0
H  H35  1  0.18944961  0.46528022  0.23628307  1  0  0.122661  0  0.942078  0  0  0.127395  0  1.007602  0  0  0.131452  0  1.005585  0  0.124975  0  0.112958  0.124444  0  1.00925  0
H  H36  1  0.81054888  0.53471683  0.76371911  1  0  0.122687  0  0.942089  0  0  0.127472  0  1.00755  0  0  0.13153  0  1.005531  0  0.125069  0  0.112989  0.124521  0  1.009199  0
H  H37  1  0.12727125  0.48263392  0.41705707  1  0  0.084727  0  0.970277  0  0  0.091824  0  1.038119  0  0  0.094656  0  1.035672  0  0.137336  0  0.113794  0.089632  0  1.040035  0
H  H38  1  0.87273099  0.51736393  0.58294521  1  0  0.084682  0  0.970303  0  0  0.091776  0  1.038154  0  0  0.094607  0  1.035707  0  0.13731  0  0.11376  0.089579  0  1.040075  0
H  H39  1  0.49266552  0.26123438  0.16797191  1  0  0.059758  0  0.90406  0  0  0.074109  0  0.966735  0  0  0.076151  0  0.964387  0  0.047144  0  0.097237  0.072603  0  0.968516  0
H  H40  1  0.50732556  0.73876266  0.83202663  1  0  0.059779  0  0.904029  0  0  0.074145  0  0.966681  0  0  0.076187  0  0.964332  0  0.047106  0  0.09725  0.072645  0  0.968466  0
H  H41  1  0.28066276  0.27282316  0.15838036  1  0  0.092223  0  0.897427  0  0  0.113125  0  0.94993  0  0  0.113746  0  0.949395  0  0.076589  0  0.117769  0.112565  0  0.950486  0
H  H42  1  0.71932585  0.72717389  0.84162291  1  0  0.09226  0  0.897507  0  0  0.113168  0  0.94999  0  0  0.113791  0  0.949454  0  0.076702  0  0.117775  0.112614  0  0.95055  0
H  H43  1  0.67072698  0.42952618  0.08344337  1  0  0.034295  0  0.928073  0  0  0.047786  0  1.000288  0  0  0.049179  0  0.998154  0  0.016184  0  0.086403  0.04674  0  1.001945  0
H  H44  1  0.32926536  0.57047167  0.91655925  1  0  0.034311  0  0.92806  0  0  0.047771  0  1.000299  0  0  0.049168  0  0.998167  0  0.016224  0  0.086403  0.046725  0  1.001956  0
H  H45  1  0.54493160  0.48278483  0.17777768  1  0  0.056046  0  0.952676  0  0  0.075038  0  1.013059  0  0  0.074384  0  1.015438  0  0.015521  0  0.098757  0.075477  0  1.011464  0
H  H46  1  0.45505710  0.51721464  0.82222634  1  0  0.056085  0  0.95272  0  0  0.075067  0  1.013089  0  0  0.074416  0  1.015468  0  0.015533  0  0.098806  0.075505  0  1.011494  0
H  H47  1  0.31066221  0.37181957  0.97880938  1  0  0.075111  0  0.92748  0  0  0.092556  0  0.986346  0  0  0.093185  0  0.986041  0  0.074028  0  0.105524  0.092006  0  0.986702  0
H  H48  1  0.68933252  0.62817587  0.02119223  1  0  0.075151  0  0.927496  0  0  0.092569  0  0.986393  0  0  0.093194  0  0.986091  0  0.074124  0  0.105542  0.092019  0  0.986745  0
H  H49  1  0.52964011  0.36276465  0.96391560  1  0  0.04646  0  0.918205  0  0  0.062452  0  0.985846  0  0  0.063285  0  0.984738  0  0.022641  0  0.091853  0.061742  0  0.98675  0
H  H50  1  0.47035597  0.63723401  0.03608561  1  0  0.046482  0  0.918254  0  0  0.062485  0  0.985881  0  0  0.063317  0  0.984772  0  0.022653  0  0.091867  0.061776  0  0.986784  0
H  H51  1  0.40702080  0.08141030  0.87559423  1  0  0.136014  0  0.915998  0  0  0.151104  0  0.971706  0  0  0.153687  0  0.970742  0  0.10557  0  0.110922  0.149264  0  0.972441  0
H  H52  1  0.59298160  0.91859240  0.12441026  1  0  0.135996  0  0.916017  0  0  0.151066  0  0.97176  0  0  0.153649  0  0.970798  0  0.105502  0  0.110923  0.149225  0  0.972489  0
H  H53  1  0.47204376  0.17093944  0.93606468  1  0  0.109952  0  0.921566  0  0  0.124518  0  0.979882  0  0  0.126828  0  0.979344  0  0.055997  0  0.10153  0.122852  0  0.980331  0
H  H54  1  0.52795503  0.82906568  0.06393723  1  0  0.109964  0  0.921516  0  0  0.1245  0  0.979865  0  0  0.126818  0  0.979318  0  0.056097  0  0.10153  0.122823  0  0.980325  0
H  H55  1  0.64276071  0.14178150  0.72362347  1  0  0.07288  0  0.914816  0  0  0.084534  0  0.973216  0  0  0.087151  0  0.971272  0  0.064888  0  0.0967  0.082632  0  0.974777  0
H  H56  1  0.35724173  0.85822200  0.27637780  1  0  0.072945  0  0.91494  0  0  0.084616  0  0.973293  0  0  0.087233  0  0.971351  0  0.06471  0  0.096696  0.082714  0  0.974856  0
H  H57  1  0.67126162  0.33183624  0.73429703  1  0  0.096198  0  0.943152  0  0  0.109987  0  1.006706  0  0  0.112599  0  1.005566  0  0.055245  0  0.092627  0.108151  0  1.007551  0
H  H58  1  0.32874208  0.66816807  0.26570012  1  0  0.096164  0  0.943133  0  0  0.10999  0  1.00665  0  0  0.112604  0  1.005508  0  0.055031  0  0.092617  0.108155  0  1.007496  0
H  H59  1  0.74874522  0.27534007  0.85394631  1  0  0.118101  0  0.914699  0  0  0.132324  0  0.974251  0  0  0.135819  0  0.971206  0  0.079185  0  0.105352  0.129777  0  0.976575  0
H  H60  1  0.25125618  0.72466908  0.14605259  1  0  0.118134  0  0.914669  0  0  0.132355  0  0.974235  0  0  0.135852  0  0.971188  0  0.079317  0  0.10538  0.129807  0  0.976559  0
C  C61  1  0.18837468  0.53942141  0.72770998  1  0  0.139762  0  3.692043  0  0  0.10885  0  3.942784  0  0  0.117101  0  3.960019  0  0.393379  0  0.050798  0.10352  0  3.931139  0
C  C62  1  0.81161640  0.46057564  0.27229005  1  0  0.139809  0  3.692136  0  0  0.108804  0  3.942919  0  0  0.117056  0  3.960153  0  0.39352  0  0.050772  0.10348  0  3.931259  0
C  C63  1  0.15092220  0.63999624  0.73921855  1  0  -0.17291  0  3.716998  0  0  -0.191024  0  3.96644  0  0  -0.200435  0  3.989022  0  -0.012169  0  -0.081186  -0.184972  0  3.951374  0
C  C64  1  0.84907144  0.36000323  0.26077822  1  0  -0.173  0  3.717201  0  0  -0.191066  0  3.966656  0  0  -0.200474  0  3.989238  0  -0.012561  0  -0.081206  -0.185015  0  3.951588  0
C  C65  1  0.16749277  0.73130634  0.64885719  1  0  0.13556  0  3.72122  0  0  0.146789  0  3.964694  0  0  0.152244  0  3.987136  0  -0.013818  0  0.016863  0.14336  0  3.949308  0
C  C66  1  0.83250825  0.26869232  0.35113901  1  0  0.135619  0  3.721192  0  0  0.146836  0  3.9647  0  0  0.152288  0  3.987154  0  -0.01402  0  0.016896  0.143408  0  3.949311  0
C  C67  1  0.22264466  0.71682623  0.54937410  1  0  -0.161245  0  3.697192  0  0  -0.181795  0  3.951001  0  0  -0.190002  0  3.971916  0  0.020759  0  -0.079096  -0.176599  0  3.937099  0
C  C68  1  0.77736132  0.28317244  0.45062379  1  0  -0.161144  0  3.69736  0  0  -0.181758  0  3.951214  0  0  -0.189961  0  3.972127  0  0.02056  0  -0.079042  -0.176558  0  3.937308  0
C  C69  1  0.25901148  0.61381195  0.54412320  1  0  0.133551  0  3.706067  0  0  0.101879  0  3.959119  0  0  0.109099  0  3.978311  0  0.42459  0  0.04863  0.097297  0  3.946045  0
C  C70  1  0.74099064  0.38618267  0.45587709  1  0  0.13333  0  3.706359  0  0  0.101691  0  3.95941  0  0  0.108911  0  3.978603  0  0.424558  0  0.048511  0.097104  0  3.946334  0
C  C71  1  0.12980507  0.84143720  0.65963419  1  0  -0.050235  0  3.732749  0  0  -0.110856  0  3.992109  0  0  -0.107686  0  4.002827  0  0.336594  0  -0.05426  -0.112887  0  3.984494  0
C  C72  1  0.87019596  0.15856146  0.34036350  1  0  -0.050249  0  3.732843  0  0  -0.110845  0  3.992158  0  0  -0.107676  0  4.002885  0  0.336967  0  -0.054258  -0.112874  0  3.98454  0
C  C73  1  0.09677681  0.02911678  0.56504859  1  0  -0.018028  0  3.684274  0  0  -0.077433  0  3.952732  0  0  -0.07374  0  3.963935  0  0.286112  0  -0.070758  -0.079746  0  3.944804  0
C  C74  1  0.90322425  0.97088269  0.43494810  1  0  -0.018117  0  3.684285  0  0  -0.077652  0  3.952838  0  0  -0.073962  0  3.964038  0  0.28611  0  -0.070843  -0.079958  0  3.944902  0
C  C75  1  0.93408157  0.89369925  0.54055161  1  0  -0.023872  0  3.69608  0  0  -0.079214  0  3.957102  0  0  -0.076533  0  3.970126  0  0.278547  0  -0.073859  -0.080932  0  3.947944  0
C  C76  1  0.06592196  0.10630022  0.45944481  1  0  -0.02371  0  3.695831  0  0  -0.079203  0  3.956991  0  0  -0.07652  0  3.970012  0  0.278523  0  -0.073843  -0.080932  0  3.947858  0
C  C77  1  0.37212621  0.27398437  0.46698692  1  0  0.134492  0  3.702411  0  0  0.103453  0  3.95183  0  0  0.111215  0  3.970181  0  0.478737  0  0.050017  0.098478  0  3.93938  0
C  C78  1  0.62787976  0.72601429  0.53301321  1  0  0.134332  0  3.702333  0  0  0.10327  0  3.951791  0  0  0.111031  0  3.970141  0  0.479341  0  0.049932  0.098296  0  3.939338  0
C  C79  1  0.40911802  0.25811951  0.36787057  1  0  -0.167353  0  3.724718  0  0  -0.185956  0  3.973574  0  0  -0.194696  0  3.996228  0  -0.010899  0  -0.080195  -0.180377  0  3.958471  0
C  C80  1  0.59088675  0.74187996  0.63212870  1  0  -0.167343  0  3.724594  0  0  -0.185942  0  3.973451  0  0  -0.194682  0  3.996104  0  -0.010922  0  -0.080193  -0.180364  0  3.958347  0
C  C81  1  0.34414232  0.32647802  0.28200065  1  0  0.137261  0  3.713292  0  0  0.15044  0  3.953019  0  0  0.155912  0  3.974551  0  -0.030958  0  0.020371  0.146954  0  3.938335  0
C  C82  1  0.65585491  0.67351822  0.71800043  1  0  0.137353  0  3.713202  0  0  0.150529  0  3.952951  0  0  0.155999  0  3.974484  0  -0.030881  0  0.020419  0.147049  0  3.938275  0
C  C83  1  0.24101084  0.40856294  0.30074855  1  0  -0.152116  0  3.690411  0  0  -0.172311  0  3.942979  0  0  -0.18043  0  3.964176  0  -0.063218  0  -0.078742  -0.167203  0  3.928962  0
C  C84  1  0.75898892  0.59143492  0.69925250  1  0  -0.152232  0  3.69052  0  0  -0.172473  0  3.943081  0  0  -0.180593  0  3.96428  0  -0.063464  0  -0.078816  -0.167365  0  3.929064  0
C  C85  1  0.20768792  0.41905666  0.40198602  1  0  0.124639  0  3.705039  0  0  0.091654  0  3.957884  0  0  0.098683  0  3.976574  0  0.473802  0  0.043348  0.08717  0  3.945316  0
C  C86  1  0.79231302  0.58093958  0.59801540  1  0  0.124664  0  3.705039  0  0  0.091659  0  3.957881  0  0  0.09869  0  3.976571  0  0.473859  0  0.04337  0.08718  0  3.945317  0
C  C87  1  0.38479985  0.31457937  0.17228277  1  0  -0.04757  0  3.706395  0  0  -0.106213  0  3.961294  0  0  -0.103194  0  3.971863  0  0.267438  0  -0.053734  -0.108172  0  3.953811  0
C  C88  1  0.61519247  0.68541767  0.82771861  1  0  -0.047697  0  3.706437  0  0  -0.106355  0  3.961341  0  0  -0.103337  0  3.971908  0  0.267441  0  -0.053809  -0.108343  0  3.953895  0
C  C89  1  0.55739763  0.47590387  0.09735581  1  0  -0.019091  0  3.706649  0  0  -0.077824  0  3.973533  0  0  -0.074912  0  3.98673  0  0.302148  0  -0.071473  -0.079675  0  3.964145  0
C  C90  1  0.44259466  0.52409237  0.90264731  1  0  -0.019174  0  3.70686  0  0  -0.077847  0  3.973679  0  0  -0.074948  0  3.9869  0  0.302383  0  -0.071525  -0.079685  0  3.964261  0
C  C91  1  0.42287012  0.41194411  0.98368492  1  0  -0.016338  0  3.690906  0  0  -0.07498  0  3.960149  0  0  -0.071597  0  3.972322  0  0.271442  0  -0.067702  -0.077143  0  3.951684  0
C  C92  1  0.57712593  0.58805375  0.01631655  1  0  -0.016378  0  3.690871  0  0  -0.075007  0  3.960156  0  0  -0.07162  0  3.972312  0  0.27155  0  -0.067746  -0.077166  0  3.951683  0
C  C93  1  0.36268013  0.24398478  0.79811779  1  0  0.716522  0  3.805545  0  0  0.668046  0  4.104566  0  0  0.701683  0  4.0983  0  1.52304  0  0.212399  0.645154  0  4.108072  0
C  C94  1  0.63731969  0.75601469  0.20188351  1  0  0.716452  0  3.805589  0  0  0.668016  0  4.104544  0  0  0.701654  0  4.098279  0  1.52306  0  0.212405  0.645118  0  4.108048  0
C  C95  1  0.47111086  0.15944105  0.85848876  1  0  -0.284777  0  3.634086  0  0  -0.323467  0  3.876694  0  0  -0.33042  0  3.886285  0  -0.042107  0  -0.159898  -0.318587  0  3.870001  0
C  C96  1  0.52889281  0.84056246  0.14151386  1  0  -0.284669  0  3.63401  0  0  -0.32336  0  3.876661  0  0  -0.330319  0  3.886253  0  -0.042105  0  -0.159925  -0.318462  0  3.869957  0
C  C97  1  0.64850293  0.15686361  0.79894118  1  0  -0.060459  0  3.647695  0  0  -0.069404  0  3.891314  0  0  -0.07339  0  3.904706  0  0.00808  0  -0.092514  -0.066637  0  3.88203  0
C  C98  1  0.35149706  0.84314070  0.20106160  1  0  -0.060704  0  3.648055  0  0  -0.069647  0  3.891566  0  0  -0.073635  0  3.904955  0  0.008226  0  -0.092469  -0.066884  0  3.882279  0
C  C99  1  0.74010054  0.26343497  0.77730611  1  0  -0.283977  0  3.688749  0  0  -0.327106  0  3.937847  0  0  -0.332943  0  3.945624  0  -0.065258  0  -0.16843  -0.323039  0  3.932386  0
C  C100  1  0.25990069  0.73656934  0.22269429  1  0  -0.283947  0  3.688677  0  0  -0.327108  0  3.937829  0  0  -0.332945  0  3.945606  0  -0.065056  0  -0.168481  -0.323041  0  3.93237  0
C  C101  1  0.91594982  0.27237449  0.71671397  1  0  0.712932  0  3.822307  0  0  0.666543  0  4.116168  0  0  0.699872  0  4.109695  0  1.552616  0  0.210828  0.643885  0  4.119722  0
C  C102  1  0.08405130  0.72762660  0.28328594  1  0  0.712921  0  3.822279  0  0  0.666467  0  4.116228  0  0  0.699797  0  4.109753  0  1.552368  0  0.210805  0.643808  0  4.119783  0
C  C103  1  0.73755264  0.06162845  0.86548138  1  0  0.671947  0  3.842565  0  0  0.624444  0  4.144116  0  0  0.657857  0  4.137889  0  1.576584  0  0.206534  0.601675  0  4.147678  0
C  C104  1  0.26245129  0.93838232  0.13452420  1  0  0.672089  0  3.842848  0  0  0.624729  0  4.144159  0  0  0.658142  0  4.137925  0  1.576335  0  0.206699  0.601962  0  4.147727  0
N  N105  1  0.24163393  0.52595484  0.63156765  1  0  -0.339828  0  3.286503  0  0  -0.257733  0  3.564921  0  0  -0.27726  0  3.578708  0  -1.266135  0  -0.334946  -0.244639  0  3.555458  0
N  N106  1  0.75836584  0.47404301  0.36843266  1  0  -0.339809  0  3.286494  0  0  -0.257684  0  3.564903  0  0  -0.277214  0  3.578693  0  -1.266044  0  -0.334907  -0.244578  0  3.555421  0
N  N107  1  0.09402263  0.91821393  0.56219882  1  0  -0.233848  0  3.251164  0  0  -0.160498  0  3.516707  0  0  -0.174829  0  3.535275  0  -1.056253  0  -0.3483  -0.150221  0  3.50329  0
N  N108  1  0.90597840  0.08178473  0.43779887  1  0  -0.233848  0  3.251016  0  0  -0.16044  0  3.516601  0  0  -0.174771  0  3.535173  0  -1.056158  0  -0.348268  -0.150163  0  3.503181  0
N  N109  1  0.27334890  0.35359515  0.48390959  1  0  -0.341172  0  3.326304  0  0  -0.255832  0  3.607396  0  0  -0.275835  0  3.621255  0  -1.259853  0  -0.3383  -0.242439  0  3.597905  0
N  N110  1  0.72665584  0.64640351  0.51609067  1  0  -0.341043  0  3.326201  0  0  -0.255626  0  3.607209  0  0  -0.27563  0  3.621072  0  -1.259787  0  -0.338217  -0.242232  0  3.597714  0
N  N111  1  0.41114532  0.41960943  0.09078304  1  0  -0.231764  0  3.255144  0  0  -0.15704  0  3.519891  0  0  -0.171789  0  3.539452  0  -1.002314  0  -0.344298  -0.146412  0  3.50569  0
N  N112  1  0.58884702  0.58038842  0.90921883  1  0  -0.231765  0  3.255184  0  0  -0.157056  0  3.519923  0  0  -0.171802  0  3.539478  0  -1.002381  0  -0.344295  -0.146421  0  3.50573  0
O  O113  1  0.24096877  0.28045620  0.84726902  1  0  -0.643903  0  1.9334  0  0  -0.583529  0  2.148379  0  0  -0.608693  0  2.138166  0  -1.205908  0  -0.317014  -0.565932  0  2.154924  0
O  O114  1  0.75903108  0.71954407  0.15272831  1  0  -0.643908  0  1.93336  0  0  -0.583543  0  2.148318  0  0  -0.608704  0  2.138105  0  -1.205928  0  -0.317026  -0.565956  0  2.15489  0
O  O115  1  0.39823393  0.27507216  0.69467194  1  0  -0.661166  0  2.022465  0  0  -0.585316  0  2.296727  0  0  -0.614552  0  2.280561  0  -1.153947  0  -0.33741  -0.564828  0  2.307106  0
O  O116  1  0.60176713  0.72492731  0.30532923  1  0  -0.6611  0  2.022453  0  0  -0.585302  0  2.296746  0  0  -0.614538  0  2.28058  0  -1.154037  0  -0.337427  -0.564818  0  2.307136  0
O  O117  1  0.98063187  0.36921712  0.68190608  1  0  -0.673414  0  2.05854  0  0  -0.59976  0  2.335618  0  0  -0.630189  0  2.322193  0  -1.17937  0  -0.341584  -0.57827  0  2.343914  0
O  O118  1  0.01937784  0.63078235  0.31809488  1  0  -0.673383  0  2.058451  0  0  -0.599685  0  2.335503  0  0  -0.630115  0  2.322087  0  -1.17915  0  -0.34155  -0.578195  0  2.343797  0
O  O119  1  0.99434914  0.19259748  0.70208566  1  0  -0.638067  0  1.971573  0  0  -0.580055  0  2.19802  0  0  -0.604492  0  2.188358  0  -1.207419  0  -0.313452  -0.563013  0  2.204232  0
O  O120  1  0.00564953  0.80740441  0.29791204  1  0  -0.638093  0  1.971608  0  0  -0.580038  0  2.198072  0  0  -0.604477  0  2.188409  0  -1.207441  0  -0.313446  -0.562993  0  2.204283  0
O  O121  1  0.80564973  0.08056622  0.93685632  1  0  -0.670598  0  2.028043  0  0  -0.601228  0  2.280575  0  0  -0.631079  0  2.268387  0  -1.185412  0  -0.338211  -0.580339  0  2.288293  0
O  O122  1  0.19435780  0.91944132  0.06314389  1  0  -0.670689  0  2.027767  0  0  -0.601391  0  2.28024  0  0  -0.631251  0  2.268064  0  -1.184952  0  -0.338319  -0.580487  0  2.287932  0
O  O123  1  0.73554706  0.97227389  0.84713039  1  0  -0.643935  0  1.915543  0  0  -0.59913  0  2.131444  0  0  -0.621867  0  2.119092  0  -1.192268  0  -0.347506  -0.583319  0  2.139585  0
O  O124  1  0.26446162  0.02773123  0.15286895  1  0  -0.643872  0  1.915957  0  0  -0.59913  0  2.131795  0  0  -0.621862  0  2.119439  0  -1.192533  0  -0.347524  -0.583317  0  2.139927  0
O  O125  1  0.85753419  0.96710934  0.16570788  1  0  -0.80932  0  1.843251  0  0  -0.756944  0  2.027605  0  0  -0.777317  0  2.000378  0  -1.240533  0  -0.567659  -0.742599  0  2.046577  0
O  O126  1  0.14246560  0.03288933  0.83429218  1  0  -0.809285  0  1.843221  0  0  -0.757019  0  2.027465  0  0  -0.777361  0  2.000299  0  -1.240506  0  -0.56767  -0.742697  0  2.046392  0
O  O127  1  0.92944683  0.85610534  0.96769238  1  0  -0.874913  0  1.858076  0  0  -0.815993  0  2.045278  0  0  -0.837624  0  2.007616  0  -1.298093  0  -0.600394  -0.800665  0  2.071556  0
O  O128  1  0.07055310  0.14389736  0.03231090  1  0  -0.874922  0  1.858142  0  0  -0.816013  0  2.04532  0  0  -0.837647  0  2.007661  0  -1.298061  0  -0.600407  -0.800688  0  2.071591  0
