# generated using pymatgen
data_CdH18C27N4O5
_symmetry_space_group_name_H-M   'P 1'
_cell_length_a   9.47353170
_cell_length_b   10.66038314
_cell_length_c   13.59100000
_cell_angle_alpha   93.86411146
_cell_angle_beta   102.44231682
_cell_angle_gamma   104.85417108
_symmetry_Int_Tables_number   1
_chemical_formula_structural   CdH18C27N4O5
_chemical_formula_sum   'Cd2 H36 C54 N8 O10'
_cell_volume   1284.56621554
_cell_formula_units_Z   2
loop_
 _symmetry_equiv_pos_site_id
 _symmetry_equiv_pos_as_xyz
  1  'x, y, z'
loop_
 _atom_site_type_symbol
 _atom_site_label
 _atom_site_symmetry_multiplicity
 _atom_site_fract_x
 _atom_site_fract_y
 _atom_site_fract_z
 _atom_site_occupancy
 _atom_site_hle17_bader_spin_density
 _atom_site_hle17_ddec_charge
 _atom_site_hle17_ddec_spin_density
 _atom_site_hle17_ddec_sum_bond_order
 _atom_site_hle17_magmom
 _atom_site_hse06_10hf_bader_spin_density
 _atom_site_hse06_10hf_ddec_charge
 _atom_site_hse06_10hf_ddec_spin_density
 _atom_site_hse06_10hf_ddec_sum_bond_order
 _atom_site_hse06_10hf_magmom
 _atom_site_hse06_bader_spin_density
 _atom_site_hse06_ddec_charge
 _atom_site_hse06_ddec_spin_density
 _atom_site_hse06_ddec_sum_bond_order
 _atom_site_hse06_magmom
 _atom_site_pbe_bader_charge
 _atom_site_pbe_bader_spin_density
 _atom_site_pbe_cm5_charge
 _atom_site_pbe_ddec_charge
 _atom_site_pbe_ddec_spin_density
 _atom_site_pbe_ddec_sum_bond_order
 _atom_site_pbe_magmom
Cd  Cd0  1  0.55999530  0.65619460  0.17905311  1  0  1.102912  0  1.662479  0  0  0.910013  0  2.100897  0  0  0.970616  0  2.047787  0  1.259144  0  0.760635  0.866955  0  2.136634  0
Cd  Cd1  1  0.44000163  0.34380231  0.82094568  1  0  1.102938  0  1.662395  0  0  0.910019  0  2.100829  0  0  0.970624  0  2.047716  0  1.259062  0  0.760645  0.866961  0  2.136565  0
H  H2  1  0.58902998  0.74445608  0.01122671  1  0  0.416657  0  0.846188  0  0  0.395359  0  0.907747  0  0  0.40408  0  0.89838  0  0.615587  0  0.301914  0.389074  0  0.914488  0
H  H3  1  0.41097175  0.25554573  0.98877527  1  0  0.416682  0  0.846157  0  0  0.395386  0  0.907711  0  0  0.40411  0  0.898343  0  0.615589  0  0.301933  0.389103  0  0.914451  0
H  H4  1  0.42486600  0.64689326  0.97220598  1  0  0.41718  0  0.895742  0  0  0.381263  0  0.968823  0  0  0.393047  0  0.951813  0  0.631882  0  0.279302  0.372789  0  0.981109  0
H  H5  1  0.57513651  0.35310757  0.02779459  1  0  0.417203  0  0.89572  0  0  0.381292  0  0.968788  0  0  0.393076  0  0.951778  0  0.631828  0  0.279321  0.372818  0  0.981075  0
H  H6  1  0.85111548  0.58906596  0.36034734  1  0  0.32278  0  0.923275  0  0  0.30133  0  0.990636  0  0  0.31055  0  0.98261  0  0.539916  0  0.306957  0.295008  0  0.995713  0
H  H7  1  0.14888734  0.41093585  0.63965553  1  0  0.322778  0  0.923252  0  0  0.301335  0  0.990614  0  0  0.310552  0  0.982588  0  0.540721  0  0.306975  0.295021  0  0.995688  0
H  H8  1  0.51711785  0.34373282  0.17834798  1  0  0.08756  0  0.956549  0  0  0.096329  0  1.019472  0  0  0.099238  0  1.016554  0  0.126468  0  0.1194  0.09495  0  1.020108  0
H  H9  1  0.48288744  0.65626997  0.82165605  1  0  0.087554  0  0.956545  0  0  0.096352  0  1.019434  0  0  0.099259  0  1.016516  0  0.126324  0  0.119416  0.094972  0  1.020076  0
H  H10  1  0.33167699  0.14147970  0.20353451  1  0  0.102264  0  0.947622  0  0  0.116248  0  0.99941  0  0  0.118907  0  0.999218  0  0.090871  0  0.110221  0.113282  0  1.001908  0
H  H11  1  0.66832844  0.85852015  0.79647012  1  0  0.102366  0  0.947682  0  0  0.116344  0  0.999454  0  0  0.119002  0  0.999262  0  0.090809  0  0.110323  0.113379  0  1.00195  0
H  H12  1  0.09985769  0.16501348  0.25829445  1  0  0.107422  0  0.935994  0  0  0.120736  0  0.991247  0  0  0.123412  0  0.989265  0  0.08913  0  0.115705  0.118604  0  0.993619  0
H  H13  1  0.90013986  0.83498539  0.74170086  1  0  0.107491  0  0.935952  0  0  0.120792  0  0.991206  0  0  0.123473  0  0.98922  0  0.089172  0  0.115748  0.118661  0  0.993579  0
H  H14  1  0.03511289  0.79042154  0.33588217  1  0  0.099892  0  0.966691  0  0  0.110644  0  1.026579  0  0  0.112529  0  1.026072  0  0.119034  0  0.109191  0.109752  0  1.026231  0
H  H15  1  0.96488498  0.20957831  0.66411618  1  0  0.099906  0  0.966671  0  0  0.110665  0  1.02655  0  0  0.112549  0  1.026043  0  0.119024  0  0.109202  0.109772  0  1.026201  0
H  H16  1  0.23117564  0.96955882  0.29441311  1  0  0.099196  0  0.956317  0  0  0.111377  0  1.013264  0  0  0.113707  0  1.013704  0  0.081596  0  0.107824  0.109045  0  1.014624  0
H  H17  1  0.76882593  0.03043908  0.70558790  1  0  0.099231  0  0.956244  0  0  0.111365  0  1.013244  0  0  0.113694  0  1.013686  0  0.081575  0  0.107824  0.109033  0  1.014602  0
H  H18  1  0.43808284  0.91193707  0.22603548  1  0  0.088005  0  0.924519  0  0  0.099309  0  0.981583  0  0  0.101993  0  0.978973  0  0.101097  0  0.121627  0.09709  0  0.984185  0
H  H19  1  0.56191656  0.08806083  0.77396447  1  0  0.088012  0  0.924483  0  0  0.099286  0  0.981584  0  0  0.10199  0  0.978951  0  0.101097  0  0.121603  0.097068  0  0.984185  0
H  H20  1  0.69929361  0.13212354  0.33572446  1  0  0.103758  0  0.964788  0  0  0.111808  0  1.029524  0  0  0.115291  0  1.027025  0  0.114361  0  0.104448  0.109226  0  1.031784  0
H  H21  1  0.30070998  0.86787729  0.66427921  1  0  0.103828  0  0.96483  0  0  0.111863  0  1.029568  0  0  0.115346  0  1.027066  0  0.114248  0  0.10447  0.109281  0  1.031824  0
H  H22  1  0.49487607  0.02882311  0.41631341  1  0  0.080107  0  0.983668  0  0  0.090547  0  1.048322  0  0  0.092602  0  1.048506  0  0.06356  0  0.096041  0.08928  0  1.047819  0
H  H23  1  0.50511842  0.97117968  0.58368605  1  0  0.080078  0  0.983702  0  0  0.090509  0  1.048369  0  0  0.092565  0  1.048547  0  0.063498  0  0.096023  0.08922  0  1.047889  0
H  H24  1  0.39591705  0.16707773  0.52438746  1  0  0.086343  0  0.971114  0  0  0.096955  0  1.03352  0  0  0.098958  0  1.033399  0  0.071197  0  0.097155  0.095639  0  1.03345  0
H  H25  1  0.60407914  0.83292702  0.47561089  1  0  0.086325  0  0.971154  0  0  0.096961  0  1.033527  0  0  0.098964  0  1.033408  0  0.071168  0  0.09716  0.095645  0  1.033458  0
H  H26  1  0.50193328  0.40831468  0.55066954  1  0  0.089939  0  0.967075  0  0  0.099035  0  1.031975  0  0  0.101547  0  1.031384  0  0.062826  0  0.0978  0.09753  0  1.032031  0
H  H27  1  0.49806431  0.59169105  0.44932834  1  0  0.08983  0  0.967231  0  0  0.098969  0  1.032097  0  0  0.101484  0  1.031506  0  0.062795  0  0.09779  0.097459  0  1.032149  0
H  H28  1  0.70726827  0.51289927  0.47071816  1  0  0.094585  0  0.958585  0  0  0.104806  0  1.023135  0  0  0.108189  0  1.020861  0  0.034773  0  0.101328  0.102348  0  1.024944  0
H  H29  1  0.29273764  0.48710548  0.52928681  1  0  0.094646  0  0.958536  0  0  0.104854  0  1.023088  0  0  0.108226  0  1.020845  0  0.034837  0  0.101342  0.102396  0  1.024896  0
H  H30  1  0.81723423  0.33401256  0.06465399  1  0  0.105871  0  0.937421  0  0  0.119194  0  0.990598  0  0  0.122429  0  0.988865  0  0.087416  0  0.106833  0.116654  0  0.992309  0
H  H31  1  0.18276580  0.66598729  0.93535057  1  0  0.10581  0  0.937526  0  0  0.119194  0  0.990639  0  0  0.122426  0  0.988907  0  0.087463  0  0.106827  0.116654  0  0.992349  0
H  H32  1  0.98561425  0.72978417  0.00735956  1  0  0.101371  0  0.940394  0  0  0.111726  0  0.997873  0  0  0.115464  0  0.995749  0  0.110432  0  0.103187  0.109184  0  0.999324  0
H  H33  1  0.01438362  0.27021568  0.99264320  1  0  0.101429  0  0.94033  0  0  0.111771  0  0.997821  0  0  0.115508  0  0.995698  0  0.110445  0  0.103197  0.109229  0  0.999272  0
H  H34  1  0.89395278  0.77145866  0.53129495  1  0  0.099145  0  0.956752  0  0  0.104297  0  1.026264  0  0  0.10828  0  1.023743  0  0.073666  0  0.099485  0.101609  0  1.027901  0
H  H35  1  0.10605078  0.22853532  0.46869732  1  0  0.099214  0  0.956567  0  0  0.104354  0  1.026092  0  0  0.108338  0  1.023571  0  0.073867  0  0.099521  0.101667  0  1.027728  0
H  H36  1  0.90705822  0.07286233  0.33460842  1  0  0.101668  0  0.975868  0  0  0.10385  0  1.050271  0  0  0.108729  0  1.045418  0  0.08406  0  0.10165  0.100349  0  1.053964  0
H  H37  1  0.09294303  0.92713458  0.66538586  1  0  0.101699  0  0.975943  0  0  0.103838  0  1.050373  0  0  0.108715  0  1.045521  0  0.084124  0  0.101663  0.100336  0  1.054067  0
C  C38  1  0.41385963  0.34878332  0.19926508  1  0  0.13522  0  3.709553  0  0  0.099499  0  3.968456  0  0  0.107738  0  3.985783  0  0.492398  0  0.048842  0.093393  0  3.956066  0
C  C39  1  0.58613824  0.65121653  0.80073768  1  0  0.135266  0  3.709518  0  0  0.099516  0  3.968419  0  0  0.107759  0  3.985744  0  0.492297  0  0.048815  0.09341  0  3.956026  0
C  C40  1  0.31002296  0.23627355  0.21470821  1  0  -0.113868  0  3.754599  0  0  -0.126121  0  4.00753  0  0  -0.13225  0  4.028243  0  0.009713  0  -0.079867  -0.122496  0  3.997144  0
C  C41  1  0.68997909  0.76372923  0.78529313  1  0  -0.114035  0  3.754604  0  0  -0.126282  0  4.00753  0  0  -0.132412  0  4.028241  0  0.00991  0  -0.079936  -0.122655  0  3.997141  0
C  C42  1  0.18364826  0.24921302  0.24496264  1  0  -0.029909  0  3.674844  0  0  -0.054821  0  3.920464  0  0  -0.051841  0  3.937181  0  -0.047393  0  -0.058368  -0.058301  0  3.912386  0
C  C43  1  0.81635038  0.75078585  0.75503283  1  0  -0.029984  0  3.674772  0  0  -0.054864  0  3.920388  0  0  -0.051887  0  3.937103  0  -0.047433  0  -0.058431  -0.058345  0  3.91231  0
C  C44  1  0.16306746  0.37475916  0.26012967  1  0  -0.011179  0  3.777404  0  0  0.000627  0  4.011393  0  0  -0.002115  0  4.034766  0  0.021771  0  0.006114  0.000836  0  3.997054  0
C  C45  1  0.83692685  0.62523971  0.73986515  1  0  -0.010981  0  3.777254  0  0  0.000775  0  4.011276  0  0  -0.001967  0  4.034652  0  0.02164  0  0.006123  0.000986  0  3.996936  0
C  C46  1  0.04062825  0.39998330  0.29589571  1  0  0.092201  0  3.870045  0  0  0.083351  0  4.133921  0  0  0.084783  0  4.157885  0  0.494253  0  0.086584  0.081851  0  4.119253  0
C  C47  1  0.95936606  0.60001557  0.70410058  1  0  0.092117  0  3.869992  0  0  0.083316  0  4.133857  0  0  0.084746  0  4.157823  0  0.494478  0  0.086604  0.081817  0  4.119184  0
C  C48  1  0.02803468  0.52755845  0.31219368  1  0  0.11226  0  3.79195  0  0  0.092296  0  4.04984  0  0  0.095079  0  4.073136  0  0.376969  0  0.095096  0.091698  0  4.033356  0
C  C49  1  0.97196256  0.47243944  0.68780447  1  0  0.112308  0  3.791932  0  0  0.092267  0  4.049881  0  0  0.095047  0  4.073177  0  0.377121  0  0.095068  0.091684  0  4.033402  0
C  C50  1  0.13163578  0.63862452  0.29087328  1  0  -0.025547  0  3.788706  0  0  -0.013317  0  4.028029  0  0  -0.016291  0  4.051015  0  0.049612  0  0.005038  -0.011596  0  4.012181  0
C  C51  1  0.86836271  0.36137729  0.70912527  1  0  -0.025585  0  3.788693  0  0  -0.013269  0  4.027977  0  0  -0.016248  0  4.050965  0  0.049586  0  0.005069  -0.011553  0  4.012135  0
C  C52  1  0.12474452  0.76873667  0.30555340  1  0  -0.014047  0  3.66528  0  0  -0.040388  0  3.911438  0  0  -0.036586  0  3.928051  0  -0.019803  0  -0.060451  -0.043025  0  3.899513  0
C  C53  1  0.87525240  0.23126024  0.69444613  1  0  -0.01404  0  3.665299  0  0  -0.04039  0  3.911427  0  0  -0.036583  0  3.928038  0  -0.019748  0  -0.060444  -0.043026  0  3.899504  0
C  C54  1  0.23328420  0.86811807  0.28211512  1  0  -0.119396  0  3.747283  0  0  -0.130239  0  3.999229  0  0  -0.136428  0  4.019157  0  -0.056291  0  -0.080682  -0.125957  0  3.986298  0
C  C55  1  0.76671691  0.13188178  0.71788592  1  0  -0.119449  0  3.747288  0  0  -0.130249  0  3.999234  0  0  -0.136442  0  4.019168  0  -0.056324  0  -0.080686  -0.125967  0  3.986301  0
C  C56  1  0.34845455  0.83688324  0.24418332  1  0  0.138425  0  3.711789  0  0  0.103361  0  3.971089  0  0  0.111571  0  3.987772  0  0.500317  0  0.055255  0.098116  0  3.959643  0
C  C57  1  0.65154408  0.16311563  0.75581729  1  0  0.138414  0  3.711809  0  0  0.103373  0  3.971097  0  0  0.111567  0  3.987779  0  0.500308  0  0.055275  0.098128  0  3.959648  0
C  C58  1  0.27090221  0.48353097  0.23976970  1  0  0.129663  0  3.744731  0  0  0.120297  0  3.988204  0  0  0.124688  0  4.011091  0  0.473713  0  0.117943  0.117369  0  3.973137  0
C  C59  1  0.72909674  0.51646888  0.76022807  1  0  0.129641  0  3.744634  0  0  0.120306  0  3.988122  0  0  0.124695  0  4.01101  0  0.473551  0  0.117964  0.117376  0  3.973054  0
C  C60  1  0.25322816  0.61528258  0.25292445  1  0  0.137051  0  3.747062  0  0  0.126635  0  3.99256  0  0  0.131094  0  4.015622  0  0.527405  0  0.122329  0.124581  0  3.976561  0
C  C61  1  0.74676692  0.38471531  0.74707411  1  0  0.136992  0  3.747113  0  0  0.126503  0  3.992683  0  0  0.130963  0  4.015746  0  0.527347  0  0.122255  0.124452  0  3.976683  0
C  C62  1  0.84493282  0.38407813  0.35541361  1  0  0.342758  0  3.742248  0  0  0.311391  0  4.012957  0  0  0.325618  0  4.02759  0  0.956511  0  0.222438  0.301465  0  4.002877  0
C  C63  1  0.15506860  0.61592270  0.64459047  1  0  0.342774  0  3.742258  0  0  0.311419  0  4.012958  0  0  0.325646  0  4.027582  0  0.95625  0  0.222431  0.301508  0  4.002879  0
C  C64  1  0.71714991  0.32904721  0.39781029  1  0  -0.012087  0  3.812362  0  0  0.00866  0  4.046024  0  0  0.005693  0  4.069775  0  -0.007737  0  -0.009661  0.010228  0  4.029651  0
C  C65  1  0.28285507  0.67095460  0.60219438  1  0  -0.012055  0  3.812333  0  0  0.008702  0  4.045963  0  0  0.005735  0  4.069711  0  -0.007727  0  -0.009627  0.010267  0  4.029589  0
C  C66  1  0.65530695  0.19226565  0.38257045  1  0  -0.088638  0  3.722132  0  0  -0.109778  0  3.963514  0  0  -0.111805  0  3.985149  0  -0.051896  0  -0.085173  -0.107807  0  3.948151  0
C  C67  1  0.34469370  0.80773616  0.61743504  1  0  -0.088779  0  3.722158  0  0  -0.10992  0  3.963557  0  0  -0.111948  0  3.98519  0  -0.05159  0  -0.08526  -0.107952  0  3.948203  0
C  C68  1  0.54065593  0.13488566  0.42790630  1  0  -0.087319  0  3.806907  0  0  -0.097271  0  4.054011  0  0  -0.100467  0  4.077422  0  -0.031116  0  -0.097077  -0.095069  0  4.037554  0
C  C69  1  0.45934535  0.86511811  0.57209424  1  0  -0.087143  0  3.806898  0  0  -0.097075  0  4.053966  0  0  -0.100267  0  4.077377  0  -0.030781  0  -0.09694  -0.094858  0  4.037519  0
C  C70  1  0.48510200  0.21232183  0.48842853  1  0  -0.068615  0  3.763197  0  0  -0.08584  0  4.014618  0  0  -0.087211  0  4.037004  0  -0.131148  0  -0.094527  -0.083347  0  3.99867  0
C  C71  1  0.51489743  0.78768291  0.51157252  1  0  -0.068752  0  3.763392  0  0  -0.086004  0  4.014848  0  0  -0.08738  0  4.037236  0  -0.131435  0  -0.094626  -0.08351  0  3.998891  0
C  C72  1  0.54454932  0.34826066  0.50277916  1  0  -0.073195  0  3.774761  0  0  -0.085622  0  4.028701  0  0  -0.088184  0  4.051061  0  -0.005353  0  -0.09657  -0.084299  0  4.012631  0
C  C73  1  0.45545258  0.65174507  0.49722378  1  0  -0.072993  0  3.774763  0  0  -0.085457  0  4.028677  0  0  -0.088021  0  4.051042  0  -0.00567  0  -0.096523  -0.084127  0  4.0126  0
C  C74  1  0.65986359  0.40680246  0.45780004  1  0  -0.099928  0  3.727207  0  0  -0.125869  0  3.980667  0  0  -0.127027  0  4.000836  0  0.010013  0  -0.091448  -0.123799  0  3.96693  0
C  C75  1  0.34014094  0.59320131  0.54220540  1  0  -0.099997  0  3.727199  0  0  -0.125921  0  3.980645  0  0  -0.127082  0  4.000806  0  0.010519  0  -0.091446  -0.12385  0  3.966907  0
C  C76  1  0.89674324  0.40645108  0.03583116  1  0  -0.072507  0  3.719408  0  0  -0.096882  0  3.972601  0  0  -0.097819  0  3.993358  0  -0.018044  0  -0.085677  -0.095715  0  3.958221  0
C  C77  1  0.10325603  0.59354975  0.96417113  1  0  -0.072413  0  3.719331  0  0  -0.096839  0  3.972509  0  0  -0.097778  0  3.993275  0  -0.01848  0  -0.085648  -0.095662  0  3.95814  0
C  C78  1  0.88897455  0.53641543  0.03966387  1  0  -0.059926  0  3.747412  0  0  -0.038965  0  3.987776  0  0  -0.045724  0  4.010784  0  -0.028292  0  -0.019175  -0.034194  0  3.971778  0
C  C79  1  0.11102269  0.46358246  0.96033649  1  0  -0.059991  0  3.747392  0  0  -0.038989  0  3.987718  0  0  -0.04575  0  4.010727  0  -0.027947  0  -0.019216  -0.034253  0  3.971765  0
C  C80  1  0.99322989  0.62937016  0.00368849  1  0  -0.069895  0  3.733375  0  0  -0.094407  0  3.987249  0  0  -0.095586  0  4.008089  0  -0.080085  0  -0.085185  -0.093808  0  3.972869  0
C  C81  1  0.00676689  0.37062969  0.99631338  1  0  -0.069954  0  3.73341  0  0  -0.094456  0  3.987236  0  0  -0.095632  0  4.008077  0  -0.08022  0  -0.085198  -0.093846  0  3.972867  0
C  C82  1  0.93997845  0.87158099  0.51766410  1  0  -0.079263  0  3.743521  0  0  -0.1024  0  3.996879  0  0  -0.103253  0  4.016627  0  0.000396  0  -0.087639  -0.101537  0  3.983156  0
C  C83  1  0.06002371  0.12841201  0.48232938  1  0  -0.079301  0  3.743415  0  0  -0.102436  0  3.996776  0  0  -0.103289  0  4.016525  0  0.001012  0  -0.087718  -0.101572  0  3.983054  0
C  C84  1  0.88790061  0.91229824  0.42403918  1  0  -0.06521  0  3.775429  0  0  -0.041093  0  4.004478  0  0  -0.047635  0  4.026414  0  -0.096131  0  -0.020113  -0.037289  0  3.990036  0
C  C85  1  0.11210218  0.08769672  0.57595377  1  0  -0.065114  0  3.775475  0  0  -0.040967  0  4.004475  0  0  -0.047508  0  4.026408  0  -0.097095  0  -0.020037  -0.037166  0  3.990037  0
C  C86  1  0.94883518  0.04102067  0.40692077  1  0  -0.076649  0  3.742816  0  0  -0.099501  0  3.994788  0  0  -0.100804  0  4.014717  0  -0.008017  0  -0.085329  -0.098487  0  3.981031  0
C  C87  1  0.05116977  0.95897429  0.59307470  1  0  -0.076657  0  3.742891  0  0  -0.099474  0  3.994864  0  0  -0.100775  0  4.014789  0  -0.008201  0  -0.085367  -0.098457  0  3.981105  0
C  C88  1  0.77273948  0.57850884  0.08276289  1  0  0.630316  0  3.925441  0  0  0.578273  0  4.22116  0  0  0.61224  0  4.215249  0  1.52339  0  0.192777  0.55553  0  4.223795  0
C  C89  1  0.22725916  0.42149003  0.91723847  1  0  0.630461  0  3.925456  0  0  0.578402  0  4.221181  0  0  0.612369  0  4.215271  0  1.52361  0  0.192871  0.555668  0  4.223819  0
C  C90  1  0.76837513  0.82084006  0.34137110  1  0  0.620768  0  3.938701  0  0  0.571821  0  4.231655  0  0  0.605786  0  4.225203  0  1.524907  0  0.191337  0.549137  0  4.234577  0
C  C91  1  0.23162549  0.17915489  0.65862372  1  0  0.620615  0  3.939164  0  0  0.57165  0  4.232129  0  0  0.605616  0  4.225673  0  1.52483  0  0.191208  0.548965  0  4.235049  0
N  N92  1  0.39329804  0.46758567  0.20974698  1  0  -0.353931  0  3.264779  0  0  -0.283588  0  3.534112  0  0  -0.303411  0  3.552839  0  -1.229414  0  -0.3248  -0.269239  0  3.520928  0
N  N93  1  0.60670059  0.53241320  0.79025217  1  0  -0.353965  0  3.264786  0  0  -0.283603  0  3.534101  0  0  -0.303427  0  3.552825  0  -1.229116  0  -0.32479  -0.269254  0  3.520919  0
N  N94  1  0.35719688  0.71450639  0.23046453  1  0  -0.348487  0  3.266405  0  0  -0.280886  0  3.531315  0  0  -0.30043  0  3.551738  0  -1.213438  0  -0.321744  -0.267374  0  3.516485  0
N  N95  1  0.64280206  0.28549346  0.76953471  1  0  -0.348431  0  3.266549  0  0  -0.280802  0  3.531452  0  0  -0.300348  0  3.551886  0  -1.21333  0  -0.321718  -0.26729  0  3.51662  0
N  N96  1  0.92629676  0.31225526  0.32219359  1  0  -0.427849  0  2.967007  0  0  -0.39614  0  3.235058  0  0  -0.410921  0  3.249529  0  -1.14958  0  -0.329332  -0.387779  0  3.226759  0
N  N97  1  0.07370187  0.68774361  0.67780482  1  0  -0.427898  0  2.96711  0  0  -0.396196  0  3.235146  0  0  -0.410976  0  3.249614  0  -1.149789  0  -0.329343  -0.387832  0  3.22684  0
N  N98  1  0.90309101  0.51554784  0.35061687  1  0  -0.364913  0  3.325523  0  0  -0.304421  0  3.555635  0  0  -0.321984  0  3.568331  0  -1.266734  0  -0.369003  -0.291558  0  3.545341  0
N  N99  1  0.09691180  0.48445396  0.64938748  1  0  -0.364956  0  3.325524  0  0  -0.30447  0  3.555681  0  0  -0.322021  0  3.568366  0  -1.267723  0  -0.369062  -0.29165  0  3.545425  0
O  O100  1  0.78374232  0.69939207  0.09931072  1  0  -0.631442  0  1.926094  0  0  -0.572793  0  2.144278  0  0  -0.599281  0  2.135691  0  -1.150194  0  -0.329601  -0.553802  0  2.14938  0
O  O101  1  0.21625910  0.30060876  0.90069189  1  0  -0.631521  0  1.926214  0  0  -0.572858  0  2.144396  0  0  -0.599346  0  2.135808  0  -1.150433  0  -0.329635  -0.553868  0  2.149495  0
O  O102  1  0.66508912  0.49012697  0.10285095  1  0  -0.674623  0  2.02204  0  0  -0.605277  0  2.260971  0  0  -0.634515  0  2.250282  0  -1.190415  0  -0.330271  -0.584855  0  2.266589  0
O  O103  1  0.33490983  0.50987288  0.89715050  1  0  -0.674625  0  2.021895  0  0  -0.605302  0  2.260857  0  0  -0.634539  0  2.250168  0  -1.190411  0  -0.330295  -0.584878  0  2.26647  0
O  O104  1  0.69755868  0.86831676  0.27017484  1  0  -0.600763  0  1.934285  0  0  -0.540295  0  2.158584  0  0  -0.567849  0  2.149925  0  -1.142019  0  -0.320154  -0.520745  0  2.163667  0
O  O105  1  0.30243901  0.13167918  0.72982254  1  0  -0.600745  0  1.934451  0  0  -0.540271  0  2.15876  0  0  -0.567828  0  2.1501  0  -1.141992  0  -0.320125  -0.520721  0  2.163842  0
O  O106  1  0.74145753  0.69644399  0.34499780  1  0  -0.664482  0  1.980541  0  0  -0.604047  0  2.226856  0  0  -0.63137  0  2.215795  0  -1.17809  0  -0.334254  -0.585036  0  2.23314  0
O  O107  1  0.25854557  0.30355195  0.65499744  1  0  -0.664428  0  1.980684  0  0  -0.603985  0  2.227003  0  0  -0.631307  0  2.215941  0  -1.177899  0  -0.334184  -0.584972  0  2.233284  0
O  O108  1  0.48665930  0.72751927  0.02093019  1  0  -0.811704  0  1.822463  0  0  -0.751158  0  1.999938  0  0  -0.773146  0  1.971309  0  -1.216976  0  -0.588363  -0.735536  0  2.020316  0
O  O109  1  0.51334104  0.27248156  0.97907078  1  0  -0.811759  0  1.822414  0  0  -0.751215  0  1.999887  0  0  -0.773206  0  1.971256  0  -1.216981  0  -0.588401  -0.735594  0  2.020267  0
