# generated using pymatgen
data_CdH14C16(NO)4
_symmetry_space_group_name_H-M   'P 1'
_cell_length_a   7.45413433
_cell_length_b   11.03242904
_cell_length_c   11.88453307
_cell_angle_alpha   117.84432228
_cell_angle_beta   108.50678687
_cell_angle_gamma   89.46540785
_symmetry_Int_Tables_number   1
_chemical_formula_structural   CdH14C16(NO)4
_chemical_formula_sum   'Cd2 H28 C32 N8 O8'
_cell_volume   808.17565322
_cell_formula_units_Z   2
loop_
 _symmetry_equiv_pos_site_id
 _symmetry_equiv_pos_as_xyz
  1  'x, y, z'
loop_
 _atom_site_type_symbol
 _atom_site_label
 _atom_site_symmetry_multiplicity
 _atom_site_fract_x
 _atom_site_fract_y
 _atom_site_fract_z
 _atom_site_occupancy
 _atom_site_hle17_bader_spin_density
 _atom_site_hle17_ddec_charge
 _atom_site_hle17_ddec_spin_density
 _atom_site_hle17_ddec_sum_bond_order
 _atom_site_hle17_magmom
 _atom_site_hse06_10hf_bader_spin_density
 _atom_site_hse06_10hf_ddec_charge
 _atom_site_hse06_10hf_ddec_spin_density
 _atom_site_hse06_10hf_ddec_sum_bond_order
 _atom_site_hse06_10hf_magmom
 _atom_site_hse06_bader_spin_density
 _atom_site_hse06_ddec_charge
 _atom_site_hse06_ddec_spin_density
 _atom_site_hse06_ddec_sum_bond_order
 _atom_site_hse06_magmom
 _atom_site_pbe_bader_spin_density
 _atom_site_pbe_cm5_charge
 _atom_site_pbe_ddec_charge
 _atom_site_pbe_ddec_spin_density
 _atom_site_pbe_ddec_sum_bond_order
 _atom_site_pbe_magmom
Cd  Cd0  1  0.55071331  0.30100225  0.60190909  1  0  1.081556  0  1.718149  0  0  0.882754  0  2.161676  0  0  0.941039  0  2.109549  0  0  0.77349  0.841564  0  2.197294  0
Cd  Cd1  1  0.44928555  0.69899726  0.39809138  1  0  1.08154  0  1.718159  0  0  0.882762  0  2.16166  0  0  0.941045  0  2.109536  0  0  0.773482  0.841572  0  2.197279  0
H  H2  1  0.91496923  0.11310357  0.46771177  1  0  0.11033  0  0.928811  0  0  0.12662  0  0.986552  0  0  0.128815  0  0.986059  0  0  0.101209  0.125054  0  0.986987  0
H  H3  1  0.05326654  0.35480641  0.46817148  1  0  0.110137  0  0.929101  0  0  0.125813  0  0.987645  0  0  0.128  0  0.987127  0  0  0.100993  0.124292  0  0.988076  0
H  H4  1  0.08502806  0.88690114  0.53228724  1  0  0.110366  0  0.928765  0  0  0.126594  0  0.986562  0  0  0.128788  0  0.986073  0  0  0.101197  0.125028  0  0.986997  0
H  H5  1  0.94673017  0.64519004  0.53182978  1  0  0.110127  0  0.929059  0  0  0.125791  0  0.987608  0  0  0.127978  0  0.987091  0  0  0.100969  0.124269  0  0.988041  0
H  H6  1  0.98887184  0.96903472  0.35720514  1  0  0.096993  0  0.946427  0  0  0.109289  0  1.011203  0  0  0.111442  0  1.011064  0  0  0.094626  0.107774  0  1.011382  0
H  H7  1  0.86890254  0.38781263  0.35727055  1  0  0.096422  0  0.946056  0  0  0.109071  0  1.010407  0  0  0.111248  0  1.010186  0  0  0.094626  0.107574  0  1.010688  0
H  H8  1  0.01112688  0.03096998  0.64279499  1  0  0.096962  0  0.946453  0  0  0.109245  0  1.011217  0  0  0.111397  0  1.011078  0  0  0.094604  0.10773  0  1.011396  0
H  H9  1  0.13109671  0.61218272  0.64272907  1  0  0.096422  0  0.946043  0  0  0.109087  0  1.010361  0  0  0.111263  0  1.01014  0  0  0.09465  0.10759  0  1.01064  0
H  H10  1  0.65343335  0.06790536  0.72526212  1  0  0.113615  0  0.931725  0  0  0.122577  0  0.994507  0  0  0.12514  0  0.991554  0  0  0.143539  0.120615  0  0.996844  0
H  H11  1  0.57178721  0.65705578  0.72547869  1  0  0.113401  0  0.930192  0  0  0.122584  0  0.992929  0  0  0.125172  0  0.989926  0  0  0.143477  0.120587  0  0.995306  0
H  H12  1  0.34657220  0.93209826  0.27474226  1  0  0.113669  0  0.931642  0  0  0.122595  0  0.994468  0  0  0.125158  0  0.991514  0  0  0.143567  0.120634  0  0.996805  0
H  H13  1  0.42821306  0.34294372  0.27452205  1  0  0.113372  0  0.930203  0  0  0.122561  0  0.992942  0  0  0.125148  0  0.989939  0  0  0.143477  0.120563  0  0.995319  0
H  H14  1  0.17918095  0.33562365  0.01139229  1  0  0.118184  0  0.967871  0  0  0.125788  0  1.031539  0  0  0.128203  0  1.031226  0  0  0.12333  0.12388  0  1.032233  0
H  H15  1  0.33192840  0.67636534  0.01201124  1  0  0.117869  0  0.969809  0  0  0.125509  0  1.033553  0  0  0.127864  0  1.033287  0  0  0.12316  0.123618  0  1.034239  0
H  H16  1  0.82082252  0.66438309  0.98861049  1  0  0.118178  0  0.967838  0  0  0.125819  0  1.031469  0  0  0.128203  0  1.031192  0  0  0.123323  0.123912  0  1.032166  0
H  H17  1  0.66806712  0.32363213  0.98798770  1  0  0.117898  0  0.96977  0  0  0.12554  0  1.033513  0  0  0.127889  0  1.033265  0  0  0.123176  0.123648  0  1.034199  0
H  H18  1  0.99365097  0.43572464  0.83447102  1  0  0.107478  0  0.969541  0  0  0.114073  0  1.034687  0  0  0.116363  0  1.034456  0  0  0.116561  0.112305  0  1.035287  0
H  H19  1  0.34033474  0.39912926  0.83528560  1  0  0.107149  0  0.969941  0  0  0.113701  0  1.03502  0  0  0.115974  0  1.034801  0  0  0.116647  0.111964  0  1.035594  0
H  H20  1  0.00634662  0.56428115  0.16553188  1  0  0.107485  0  0.969584  0  0  0.114072  0  1.034731  0  0  0.116362  0  1.0345  0  0  0.11656  0.112305  0  1.035329  0
H  H21  1  0.65966643  0.60086815  0.16471442  1  0  0.107156  0  0.970007  0  0  0.113706  0  1.03509  0  0  0.115979  0  1.034871  0  0  0.116649  0.111968  0  1.035667  0
H  H22  1  0.87388515  0.89925246  0.74747774  1  0  0.131167  0  0.981273  0  0  0.13871  0  1.041278  0  0  0.143117  0  1.038202  0  0  0.109885  0.135499  0  1.043602  0
H  H23  1  0.37334430  0.84791348  0.74754659  1  0  0.131322  0  0.980359  0  0  0.138589  0  1.040781  0  0  0.142984  0  1.03771  0  0  0.109552  0.135365  0  1.04317  0
H  H24  1  0.12611816  0.10074800  0.25251980  1  0  0.131222  0  0.981217  0  0  0.138729  0  1.041265  0  0  0.143139  0  1.038188  0  0  0.109909  0.135516  0  1.043586  0
H  H25  1  0.62665802  0.15208286  0.25245236  1  0  0.131312  0  0.98038  0  0  0.138576  0  1.040813  0  0  0.14297  0  1.037741  0  0  0.109541  0.13535  0  1.043201  0
H  H26  1  0.93907975  0.74277367  0.84791651  1  0  0.119718  0  0.949443  0  0  0.126681  0  1.016357  0  0  0.130531  0  1.013228  0  0  0.108942  0.123892  0  1.018665  0
H  H27  1  0.40856229  0.10482035  0.84758048  1  0  0.120104  0  0.9493  0  0  0.127049  0  1.016244  0  0  0.130932  0  1.013076  0  0  0.108819  0.124287  0  1.01848  0
H  H28  1  0.06092076  0.25722685  0.15208303  1  0  0.119774  0  0.949374  0  0  0.126732  0  1.016291  0  0  0.130583  0  1.013159  0  0  0.10896  0.12394  0  1.018597  0
H  H29  1  0.59144026  0.89517702  0.15241727  1  0  0.120102  0  0.949364  0  0  0.12704  0  1.016305  0  0  0.130916  0  1.013157  0  0  0.108829  0.12428  0  1.018541  0
C  C30  1  0.21685408  0.12356682  0.53021524  1  0  0.681581  0  3.86616  0  0  0.63847  0  4.160264  0  0  0.671416  0  4.155462  0  0  0.192945  0.616097  0  4.162571  0
C  C31  1  0.81337863  0.40673988  0.53033523  1  0  0.68157  0  3.865441  0  0  0.637712  0  4.160646  0  0  0.670646  0  4.155847  0  0  0.192684  0.615373  0  4.162943  0
C  C32  1  0.78314412  0.87643580  0.46978390  1  0  0.681719  0  3.865995  0  0  0.638546  0  4.160142  0  0  0.671489  0  4.155342  0  0  0.193054  0.616174  0  4.162449  0
C  C33  1  0.18661662  0.59325653  0.46966152  1  0  0.681566  0  3.865518  0  0  0.637693  0  4.160732  0  0  0.670628  0  4.155933  0  0  0.192689  0.615351  0  4.163029  0
C  C34  1  0.01704309  0.03975942  0.46563471  1  0  -0.235038  0  3.694927  0  0  -0.2722  0  3.943241  0  0  -0.277908  0  3.952371  0  0  -0.169675  -0.268187  0  3.936773  0
C  C35  1  0.94885662  0.42583023  0.46580600  1  0  -0.233954  0  3.694677  0  0  -0.270679  0  3.94327  0  0  -0.276356  0  3.952185  0  0  -0.169456  -0.266778  0  3.93716  0
C  C36  1  0.98295422  0.96024530  0.53436599  1  0  -0.235065  0  3.694975  0  0  -0.272105  0  3.943262  0  0  -0.277813  0  3.952395  0  0  -0.169645  -0.268092  0  3.936791  0
C  C37  1  0.05113981  0.57416516  0.53419307  1  0  -0.233988  0  3.694645  0  0  -0.270644  0  3.943163  0  0  -0.276324  0  3.952082  0  0  -0.169443  -0.266734  0  3.937047  0
C  C38  1  0.77038753  0.15423586  0.77704464  1  0  0.172993  0  3.646426  0  0  0.108842  0  3.91916  0  0  0.123642  0  3.930606  0  0  0.148078  0.098792  0  3.911389  0
C  C39  1  0.50634874  0.62270481  0.77732182  1  0  0.175319  0  3.644282  0  0  0.110543  0  3.917123  0  0  0.125324  0  3.928621  0  0  0.149551  0.100533  0  3.909311  0
C  C40  1  0.22961659  0.84576776  0.22295777  1  0  0.172991  0  3.646451  0  0  0.108852  0  3.919194  0  0  0.123652  0  3.930643  0  0  0.148084  0.098799  0  3.911423  0
C  C41  1  0.49364988  0.37729368  0.22267900  1  0  0.175409  0  3.644315  0  0  0.110617  0  3.917182  0  0  0.125398  0  3.928683  0  0  0.149568  0.100607  0  3.909367  0
C  C42  1  0.04453026  0.29656987  0.92634051  1  0  -0.062105  0  3.65596  0  0  -0.099626  0  3.913336  0  0  -0.097945  0  3.930635  0  0  0.000894  -0.100682  0  3.901883  0
C  C43  1  0.38138589  0.63011805  0.92683149  1  0  -0.062003  0  3.656887  0  0  -0.100059  0  3.9141  0  0  -0.098307  0  3.931504  0  0  0.00041  -0.101173  0  3.902692  0
C  C44  1  0.95546654  0.70343279  0.07366005  1  0  -0.061993  0  3.655697  0  0  -0.099564  0  3.913049  0  0  -0.097856  0  3.930369  0  0  0.000961  -0.100622  0  3.901599  0
C  C45  1  0.61861387  0.36987939  0.07316911  1  0  -0.061999  0  3.656748  0  0  -0.100065  0  3.91396  0  0  -0.098317  0  3.931363  0  0  0.000396  -0.101177  0  3.902551  0
C  C46  1  0.95204824  0.34485397  0.83933222  1  0  0.001609  0  3.755556  0  0  -0.029792  0  4.01475  0  0  -0.027728  0  4.03559  0  0  -0.001882  -0.031567  0  4.001193  0
C  C47  1  0.38673563  0.49472455  0.83989591  1  0  0.002788  0  3.75499  0  0  -0.028532  0  4.014383  0  0  -0.026446  0  4.035211  0  0  -0.001708  -0.030358  0  4.00098  0
C  C48  1  0.04795166  0.65514971  0.16067107  1  0  0.001565  0  3.755441  0  0  -0.029825  0  4.014657  0  0  -0.02776  0  4.03549  0  0  -0.001903  -0.031599  0  4.001099  0
C  C49  1  0.61326723  0.50527390  0.16010657  1  0  0.002773  0  3.755013  0  0  -0.028536  0  4.014403  0  0  -0.026452  0  4.035232  0  0  -0.00171  -0.030365  0  4.001001  0
C  C50  1  0.96532806  0.08640125  0.94406752  1  0  0.165561  0  3.789745  0  0  0.156767  0  4.040562  0  0  0.160981  0  4.06437  0  0  0.090287  0.153933  0  4.024316  0
C  C51  1  0.47875054  0.85771898  0.94428015  1  0  0.165756  0  3.790792  0  0  0.156022  0  4.041897  0  0  0.160232  0  4.06574  0  0  0.089716  0.15319  0  4.025676  0
C  C52  1  0.03467833  0.91360023  0.05593190  1  0  0.165533  0  3.789823  0  0  0.156746  0  4.040602  0  0  0.16096  0  4.064409  0  0  0.090273  0.153892  0  4.024386  0
C  C53  1  0.52124639  0.14227847  0.05571906  1  0  0.165725  0  3.790996  0  0  0.155998  0  4.04209  0  0  0.160208  0  4.065934  0  0  0.089715  0.153169  0  4.025862  0
C  C54  1  0.92747305  0.94255099  0.85796243  1  0  -0.128128  0  3.711227  0  0  -0.145971  0  3.957387  0  0  -0.149852  0  3.977933  0  0  -0.085573  -0.14314  0  3.943533  0
C  C55  1  0.43036268  0.91527992  0.85799971  1  0  -0.126872  0  3.711472  0  0  -0.144163  0  3.957579  0  0  -0.148015  0  3.978159  0  0  -0.084567  -0.14146  0  3.943866  0
C  C56  1  0.07253168  0.05744947  0.14203622  1  0  -0.128142  0  3.711205  0  0  -0.145967  0  3.957356  0  0  -0.14985  0  3.9779  0  0  -0.085602  -0.143125  0  3.943509  0
C  C57  1  0.56963706  0.08471749  0.14199834  1  0  -0.126849  0  3.711536  0  0  -0.144135  0  3.95762  0  0  -0.147983  0  3.978198  0  0  -0.084544  -0.141431  0  3.943901  0
C  C58  1  0.96281298  0.85515045  0.91443286  1  0  -0.132517  0  3.728507  0  0  -0.154625  0  3.984522  0  0  -0.157509  0  4.004663  0  0  -0.087192  -0.152578  0  3.970867  0
C  C59  1  0.45145286  0.05911302  0.91422333  1  0  -0.134027  0  3.731157  0  0  -0.156025  0  3.987311  0  0  -0.158903  0  4.00744  0  0  -0.087354  -0.153998  0  3.973667  0
C  C60  1  0.03719340  0.14485102  0.08556571  1  0  -0.132573  0  3.728476  0  0  -0.15465  0  3.98445  0  0  -0.157536  0  4.004591  0  0  -0.087199  -0.152606  0  3.970781  0
C  C61  1  0.54854662  0.94088335  0.08577424  1  0  -0.134037  0  3.731185  0  0  -0.156027  0  3.987353  0  0  -0.158907  0  4.007479  0  0  -0.087384  -0.154001  0  3.973711  0
N  N62  1  0.78188433  0.25571383  0.74783927  1  0  -0.381915  0  3.276053  0  0  -0.301349  0  3.55975  0  0  -0.323355  0  3.576391  0  0  -0.35968  -0.285993  0  3.548094  0
N  N63  1  0.46551388  0.49209924  0.74827657  1  0  -0.382474  0  3.275451  0  0  -0.301718  0  3.559208  0  0  -0.323743  0  3.575861  0  0  -0.359788  -0.286492  0  3.547692  0
N  N64  1  0.21811749  0.74429191  0.25216444  1  0  -0.381946  0  3.27606  0  0  -0.301393  0  3.559767  0  0  -0.323401  0  3.576411  0  0  -0.359745  -0.286037  0  3.548113  0
N  N65  1  0.53448730  0.50789817  0.25172430  1  0  -0.382499  0  3.275505  0  0  -0.301755  0  3.55929  0  0  -0.32378  0  3.575943  0  0  -0.359809  -0.286531  0  3.547773  0
N  N66  1  0.92823334  0.17504824  0.88530649  1  0  -0.096476  0  3.611409  0  0  -0.008267  0  3.8277  0  0  -0.022722  0  3.852534  0  0  -0.226384  0.001679  0  3.810589  0
N  N67  1  0.45682855  0.71034600  0.88562100  1  0  -0.098852  0  3.614002  0  0  -0.009451  0  3.829536  0  0  -0.023934  0  3.854412  0  0  -0.227224  0.000517  0  3.812375  0
N  N68  1  0.07177192  0.82495431  0.11469485  1  0  -0.096509  0  3.611479  0  0  -0.008247  0  3.827698  0  0  -0.022702  0  3.852526  0  0  -0.226336  0.001706  0  3.810594  0
N  N69  1  0.54317095  0.28965039  0.11437826  1  0  -0.098923  0  3.614081  0  0  -0.009509  0  3.829602  0  0  -0.023993  0  3.854481  0  0  -0.227249  0.000456  0  3.812437  0
O  O70  1  0.26501043  0.16774149  0.45828285  1  0  -0.673892  0  1.992224  0  0  -0.602352  0  2.241003  0  0  -0.632931  0  2.228888  0  0  -0.347332  -0.58083  0  2.248583  0
O  O71  1  0.69390000  0.29040120  0.45862433  1  0  -0.674405  0  1.991414  0  0  -0.602763  0  2.240677  0  0  -0.633374  0  2.228582  0  0  -0.347218  -0.581334  0  2.24831  0
O  O72  1  0.73498892  0.83226008  0.54171606  1  0  -0.673937  0  1.992015  0  0  -0.602396  0  2.240819  0  0  -0.632973  0  2.228706  0  0  -0.347389  -0.580872  0  2.248402  0
O  O73  1  0.30609692  0.70959623  0.54137319  1  0  -0.674388  0  1.991536  0  0  -0.602765  0  2.240809  0  0  -0.633376  0  2.228712  0  0  -0.347237  -0.581338  0  2.248445  0
O  O74  1  0.32665569  0.15042480  0.64724286  1  0  -0.649926  0  1.889914  0  0  -0.595021  0  2.113856  0  0  -0.620242  0  2.1054  0  0  -0.339348  -0.577162  0  2.11891  0
O  O75  1  0.81971385  0.49725328  0.64705979  1  0  -0.650047  0  1.889037  0  0  -0.594633  0  2.112887  0  0  -0.619839  0  2.104399  0  0  -0.339061  -0.57671  0  2.117871  0
O  O76  1  0.67334227  0.84957680  0.35275748  1  0  -0.649981  0  1.88993  0  0  -0.595048  0  2.113882  0  0  -0.620265  0  2.105427  0  0  -0.339387  -0.577189  0  2.11894  0
O  O77  1  0.18028090  0.50274107  0.35293767  1  0  -0.65003  0  1.889061  0  0  -0.594611  0  2.112934  0  0  -0.619819  0  2.104451  0  0  -0.339028  -0.576687  0  2.117917  0
