# generated using pymatgen
data_AlH5C10ClO5
_symmetry_space_group_name_H-M   'P 1'
_cell_length_a   6.64705415
_cell_length_b   11.16645433
_cell_length_c   11.07843052
_cell_angle_alpha   81.82396503
_cell_angle_beta   73.12145365
_cell_angle_gamma   71.57122073
_symmetry_Int_Tables_number   1
_chemical_formula_structural   AlH5C10ClO5
_chemical_formula_sum   'Al2 H10 C20 Cl2 O10'
_cell_volume   745.35851580
_cell_formula_units_Z   2
loop_
 _symmetry_equiv_pos_site_id
 _symmetry_equiv_pos_as_xyz
  1  'x, y, z'
loop_
 _atom_site_type_symbol
 _atom_site_label
 _atom_site_symmetry_multiplicity
 _atom_site_fract_x
 _atom_site_fract_y
 _atom_site_fract_z
 _atom_site_occupancy
 _atom_site_pbe_bader_charge
 _atom_site_pbe_bader_spin_density
 _atom_site_pbe_cm5_charge
 _atom_site_pbe_ddec_charge
 _atom_site_pbe_ddec_spin_density
 _atom_site_pbe_ddec_sum_bond_order
 _atom_site_pbe_magmom
Al  Al0  1  0.49182650  0.50069131  0.50473595  1  2.503574  0  0.395404  1.650606  0  2.575212  0
Al  Al1  1  0.99228646  0.49873432  0.50468450  1  2.501872  0  0.395463  1.644395  0  2.57586  0
H  H2  1  0.26028996  0.36600433  0.61375875  1  0.623955  0  0.358288  0.435774  0  0.843699  0
H  H3  1  0.70562797  0.65060252  0.43064068  1  0.631163  0  0.341028  0.414561  0  0.892166  0
H  H4  1  0.82192933  0.56897185  0.88795503  1  0.079453  0  0.110231  0.115973  0  0.994094  0
H  H5  1  0.15761586  0.43610140  0.12179497  1  0.109651  0  0.109666  0.116456  0  0.99248  0
H  H6  1  0.69352702  0.57178479  0.12490146  1  0.10073  0  0.10744  0.113064  0  1.006268  0
H  H7  1  0.28535821  0.43386463  0.88478035  1  0.089856  0  0.109432  0.114197  0  0.996651  0
H  H8  1  0.27359767  0.23273843  0.33642471  1  0.136855  0  0.113934  0.138384  0  1.016722  0
H  H9  1  0.47485233  0.76465406  0.33416441  1  0.088313  0  0.113362  0.12776  0  1.030146  0
H  H10  1  0.73206275  0.88575616  0.58927806  1  0.11305  0  0.113952  0.121073  0  0.974822  0
H  H11  1  0.62032439  0.12236358  0.57574658  1  0.102665  0  0.111127  0.114408  0  0.986347  0
C  C12  1  0.86377710  0.27426981  0.48377401  1  1.55822  0  0.273877  0.653652  0  4.077666  0
C  C13  1  0.63849148  0.49682075  0.73301846  1  1.550306  0  0.26694  0.640212  0  4.101654  0
C  C14  1  0.12805057  0.72757734  0.50400294  1  1.57581  0  0.271967  0.652856  0  4.085202  0
C  C15  1  0.34450824  0.50358284  0.27670175  1  1.584461  0  0.2646  0.629249  0  4.111071  0
C  C16  1  0.56149048  0.50044222  0.87341758  1  -0.032452  0  -0.011906  -0.038334  0  3.963145  0
C  C17  1  0.41919168  0.50339156  0.13621271  1  -0.027094  0  -0.012264  -0.040154  0  3.979321  0
C  C18  1  0.67731222  0.53969214  0.94023823  1  0.021037  0  -0.079116  -0.090231  0  3.964148  0
C  C19  1  0.30247855  0.46503649  0.06940688  1  0.017482  0  -0.080839  -0.093844  0  3.977046  0
C  C20  1  0.60639043  0.54117117  0.07126228  1  -0.077239  0  -0.080099  -0.09154  0  3.963011  0
C  C21  1  0.37324085  0.46372569  0.93847893  1  -0.066455  0  -0.080645  -0.092118  0  3.968524  0
C  C22  1  0.94023274  0.13431637  0.47388301  1  0.042537  0  -0.006155  -0.08059  0  3.93458  0
C  C23  1  0.16005062  0.06775002  0.41034079  1  -0.051587  0  0.00275  0.071346  0  3.957252  0
C  C24  1  0.78842411  0.06891590  0.53184667  1  -0.032223  0  -0.078618  -0.086535  0  3.996157  0
C  C25  1  0.31627829  0.13022997  0.33910503  1  0.010978  0  -0.090456  -0.183728  0  3.931983  0
C  C26  1  0.52240689  0.06347446  0.27199086  1  0.072618  0  0.01023  0.092213  0  4.064162  0
C  C27  1  0.06478496  0.86809405  0.48411185  1  -0.007363  0  -0.005222  -0.075649  0  3.934975  0
C  C28  1  0.85061762  0.93623075  0.53842071  1  -0.051298  0  -0.078531  -0.090731  0  3.989041  0
C  C29  1  0.22133302  0.93209029  0.41317937  1  0.08341  0  0.002609  0.073294  0  3.959028  0
C  C30  1  0.43156009  0.86642497  0.34013433  1  0.00673  0  -0.094093  -0.194225  0  3.959351  0
C  C31  1  0.58030303  0.92936652  0.27152312  1  0.068423  0  0.008024  0.089369  0  4.070042  0
Cl  Cl32  1  0.70612239  0.14376043  0.18723113  1  -0.184242  0  0.000705  -0.059045  0  1.520435  0
Cl  Cl33  1  0.83365020  0.84397264  0.18489686  1  -0.191297  0  -0.000684  -0.060763  0  1.503936  0
O  O34  1  0.66989014  0.33060055  0.47408898  1  -1.258102  0  -0.23227  -0.589943  0  2.347797  0
O  O35  1  0.82783291  0.51096838  0.67980422  1  -1.259072  0  -0.237716  -0.593828  0  2.337905  0
O  O36  1  0.99177371  0.67252174  0.49588256  1  -1.25849  0  -0.23157  -0.594422  0  2.350557  0
O  O37  1  0.47040128  0.52540950  0.33313865  1  -1.265009  0  -0.237178  -0.594649  0  2.368256  0
O  O38  1  0.31280580  0.67314652  0.52820877  1  -1.259706  0  -0.236193  -0.591183  0  2.33582  0
O  O39  1  0.15981418  0.48341766  0.33028826  1  -1.260193  0  -0.235571  -0.586683  0  2.353179  0
O  O40  1  0.99316059  0.32654991  0.50619702  1  -1.261326  0  -0.233274  -0.591663  0  2.342351  0
O  O41  1  0.50915716  0.47823249  0.67685883  1  -1.263035  0  -0.238698  -0.604335  0  2.353156  0
O  O42  1  0.24714466  0.44149621  0.55811021  1  -1.42879  0  -0.448451  -0.994794  0  2.217375  0
O  O43  1  0.73627883  0.56045277  0.45188931  1  -1.438177  0  -0.451481  -0.989855  0  2.210255  0
