# generated using pymatgen
data_Co3H18C30N3O13
_symmetry_space_group_name_H-M   'P 1'
_cell_length_a   18.54601204
_cell_length_b   18.54615396
_cell_length_c   18.54608625
_cell_angle_alpha   109.47182959
_cell_angle_beta   109.47225512
_cell_angle_gamma   109.46952201
_symmetry_Int_Tables_number   1
_chemical_formula_structural   Co3H18C30N3O13
_chemical_formula_sum   'Co12 H72 C120 N12 O52'
_cell_volume   4910.60586278
_cell_formula_units_Z   4
loop_
 _symmetry_equiv_pos_site_id
 _symmetry_equiv_pos_as_xyz
  1  'x, y, z'
loop_
 _atom_site_type_symbol
 _atom_site_label
 _atom_site_symmetry_multiplicity
 _atom_site_fract_x
 _atom_site_fract_y
 _atom_site_fract_z
 _atom_site_occupancy
 _atom_site_pbe_bader_charge
 _atom_site_pbe_bader_spin_density
 _atom_site_pbe_cm5_charge
 _atom_site_pbe_ddec_charge
 _atom_site_pbe_ddec_spin_density
 _atom_site_pbe_ddec_sum_bond_order
 _atom_site_pbe_magmom
Co  Co0  1  0.99999182  0.35665964  0.89372268  1  1.37174  1.983891  0.721453  1.055093  2.174125  2.763809  1.966
Co  Co1  1  0.99998741  0.89368092  0.35665064  1  1.371205  1.981872  0.721443  1.054939  2.172034  2.764936  1.964
Co  Co2  1  0.46296955  0.10632793  0.10632172  1  1.381949  1.982223  0.721312  1.054694  2.172437  2.764406  1.964
Co  Co3  1  0.53707545  0.64333461  0.64334008  1  1.375806  1.984171  0.721439  1.055239  2.174448  2.763932  1.966
Co  Co4  1  0.35667562  0.00001598  0.89373939  1  1.371122  1.98325  0.721546  1.055213  2.173435  2.76454  1.965
Co  Co5  1  0.89371338  0.99997861  0.35665127  1  1.370853  1.983799  0.721345  1.054866  2.173979  2.763418  1.965
Co  Co6  1  0.64335662  0.53705927  0.64335363  1  1.375168  1.982477  0.72144  1.055039  2.172618  2.764585  1.964
Co  Co7  1  0.10627871  0.46293276  0.10627358  1  1.382228  1.984238  0.72143  1.055145  2.174537  2.763594  1.966
Co  Co8  1  0.64335452  0.64333054  0.53705796  1  1.375306  1.983348  0.721496  1.055161  2.17357  2.764381  1.965
Co  Co9  1  0.10626134  0.10625270  0.46292521  1  1.382805  1.984391  0.721551  1.055305  2.17472  2.764299  1.966
Co  Co10  1  0.89370035  0.35664801  0.99998274  1  1.371004  1.98188  0.721511  1.055073  2.171989  2.765519  1.964
Co  Co11  1  0.35668075  0.89376696  0.00003377  1  1.371564  1.984592  0.721481  1.055164  2.174821  2.763767  1.966
H  H12  1  0.76200899  0.46247773  0.62565905  1  0.10999  0.000586  0.12297  0.095593  7.2e-05  0.989322  0.0
H  H13  1  0.72935440  0.08308723  0.87121424  1  0.099526  0.000369  0.104571  0.109521  0.000139  1.005178  0.0
H  H14  1  0.85571304  0.41752269  0.71357015  1  0.093826  0.000524  0.113717  0.126712  0.000211  0.99162  0.0
H  H15  1  0.23797989  0.86365373  0.70048239  1  0.117042  0.000592  0.12302  0.095968  7.2e-05  0.989515  0.0
H  H16  1  0.27061897  0.14186088  0.35373087  1  0.096428  0.00037  0.104674  0.109708  0.000139  1.00586  0.0
H  H17  1  0.14427412  0.85786207  0.56182609  1  0.092623  0.000531  0.113715  0.126713  0.000211  0.991458  0.0
H  H18  1  0.83683046  0.13634116  0.37435234  1  0.130164  0.000598  0.122989  0.095635  7.2e-05  0.989502  0.0
H  H19  1  0.21186516  0.85814332  0.12879912  1  0.098613  0.00037  0.104743  0.10967  0.000139  1.00578  0.0
H  H20  1  0.70396879  0.14214043  0.28645528  1  0.095566  0.000524  0.113734  0.126862  0.000211  0.991579  0.0
H  H21  1  0.16318600  0.53750623  0.29951527  1  0.11806  0.000592  0.122899  0.095581  7.3e-05  0.989269  0.0
H  H22  1  0.78816868  0.91690447  0.64623941  1  0.111171  0.00037  0.104579  0.109611  0.000139  1.005109  0.0
H  H23  1  0.29605847  0.58246340  0.43817267  1  0.094486  0.000524  0.113712  0.126788  0.000211  0.9917  0.0
H  H24  1  0.70043311  0.23796179  0.86362506  1  0.117833  0.000591  0.12304  0.095631  7.2e-05  0.989639  0.0
H  H25  1  0.35373754  0.27066709  0.14187445  1  0.094601  0.000367  0.104833  0.109957  0.000138  1.006116  0.0
H  H26  1  0.56179215  0.14429010  0.85786240  1  0.092534  0.000531  0.113733  0.126764  0.000211  0.991368  0.0
H  H27  1  0.62566924  0.76200451  0.46247899  1  0.109455  0.000587  0.122894  0.095509  7.2e-05  0.989634  0.0
H  H28  1  0.87119301  0.72935151  0.08308957  1  0.097945  0.000368  0.104798  0.109881  0.000138  1.006139  0.0
H  H29  1  0.71355453  0.85569473  0.41751107  1  0.094046  0.000525  0.113727  0.126781  0.000211  0.9912  0.0
H  H30  1  0.29952059  0.16319126  0.53751630  1  0.117959  0.000592  0.122847  0.095445  7.3e-05  0.989496  0.0
H  H31  1  0.64627759  0.78814006  0.91692754  1  0.109243  0.000368  0.104795  0.109923  0.000139  1.006073  0.0
H  H32  1  0.43818871  0.29605267  0.58249184  1  0.094509  0.000525  0.113687  0.126821  0.000211  0.991467  0.0
H  H33  1  0.37434834  0.83682355  0.13637682  1  0.134117  0.000599  0.122976  0.095607  7.3e-05  0.989166  0.0
H  H34  1  0.12881284  0.21184310  0.85814363  1  0.098806  0.00037  0.104802  0.109862  0.000139  1.006327  0.0
H  H35  1  0.28643063  0.70393041  0.14212605  1  0.094749  0.000524  0.11371  0.126733  0.000211  0.991849  0.0
H  H36  1  0.53752182  0.29952593  0.16318453  1  0.118185  0.000589  0.12282  0.095444  7.1e-05  0.989378  0.0
H  H37  1  0.91695180  0.64626040  0.78817448  1  0.110395  0.000368  0.104719  0.10983  0.000138  1.005472  0.0
H  H38  1  0.58249665  0.43818900  0.29605919  1  0.094519  0.000523  0.113755  0.126941  0.000211  0.991492  0.0
H  H39  1  0.13636161  0.37434903  0.83680390  1  0.129782  0.000595  0.122897  0.095441  7.3e-05  0.989427  0.0
H  H40  1  0.85808815  0.12879489  0.21181826  1  0.099277  0.00037  0.104683  0.109748  0.000139  1.005549  0.0
H  H41  1  0.14211036  0.28642735  0.70391243  1  0.09528  0.000524  0.113716  0.12687  0.000211  0.991566  0.0
H  H42  1  0.86362731  0.70043293  0.23797624  1  0.117262  0.00059  0.123013  0.095607  7.2e-05  0.989371  0.0
H  H43  1  0.14186076  0.35373469  0.27066155  1  0.095153  0.000369  0.104723  0.109676  0.000138  1.00554  0.0
H  H44  1  0.85785333  0.56178309  0.14428974  1  0.09231  0.000531  0.113677  0.126751  0.000211  0.991534  0.0
H  H45  1  0.46247197  0.62565889  0.76202246  1  0.109613  0.000588  0.122877  0.095464  7.3e-05  0.989336  0.0
H  H46  1  0.08306753  0.87120857  0.72935922  1  0.094347  0.000371  0.104742  0.109738  0.000139  1.005716  0.0
H  H47  1  0.41750624  0.71358292  0.85570205  1  0.094304  0.000525  0.113742  0.126786  0.000211  0.991665  0.0
H  H48  1  0.23799833  0.70048373  0.86366261  1  0.116528  0.000593  0.122958  0.095574  7.3e-05  0.989532  0.0
H  H49  1  0.27066983  0.35374528  0.14187371  1  0.095225  0.000369  0.10461  0.109566  0.000139  1.005333  0.0
H  H50  1  0.14430701  0.56182368  0.85786586  1  0.09299  0.000533  0.113714  0.126766  0.000212  0.991385  0.0
H  H51  1  0.76202376  0.62566312  0.46249170  1  0.108871  0.000588  0.122954  0.095524  7.2e-05  0.989279  0.0
H  H52  1  0.72930887  0.87123993  0.08307239  1  0.098306  0.000369  0.104606  0.109697  0.000139  1.005202  0.0
H  H53  1  0.85571604  0.71357451  0.41752473  1  0.093628  0.000524  0.113751  0.126823  0.000211  0.991753  0.0
H  H54  1  0.16318616  0.29956529  0.53752365  1  0.118107  0.000592  0.122994  0.095602  7.3e-05  0.989232  0.0
H  H55  1  0.78814828  0.64627054  0.91694573  1  0.110846  0.000368  0.104596  0.109586  0.000139  1.005527  0.0
H  H56  1  0.29608515  0.43821037  0.58250245  1  0.094188  0.000525  0.113654  0.126752  0.000212  0.991608  0.0
H  H57  1  0.83683155  0.37433221  0.13632332  1  0.130496  0.000596  0.12296  0.095671  7.1e-05  0.989094  0.0
H  H58  1  0.21185520  0.12874880  0.85809849  1  0.097848  0.00037  0.104561  0.109434  0.000139  1.005368  0.0
H  H59  1  0.70397227  0.28643419  0.14213064  1  0.095418  0.000522  0.113785  0.126869  0.00021  0.991601  0.0
H  H60  1  0.29955678  0.53752103  0.16317879  1  0.117686  0.000592  0.123022  0.095653  7.3e-05  0.98944  0.0
H  H61  1  0.64631961  0.91694214  0.78812177  1  0.110583  0.000369  0.104862  0.109911  0.000139  1.006392  0.0
H  H62  1  0.43820120  0.58247901  0.29605659  1  0.094577  0.000525  0.113681  0.126669  0.000212  0.991564  0.0
H  H63  1  0.37432857  0.13635453  0.83682004  1  0.13176  0.000597  0.122982  0.09554  7.2e-05  0.989401  0.0
H  H64  1  0.12876857  0.85811982  0.21184551  1  0.097623  0.000369  0.104643  0.109598  0.000138  1.005793  0.0
H  H65  1  0.28639785  0.14211353  0.70394033  1  0.094116  0.000524  0.113725  0.126778  0.000211  0.991687  0.0
H  H66  1  0.70046360  0.86364859  0.23799713  1  0.117523  0.000593  0.122799  0.095375  7.2e-05  0.989398  0.0
H  H67  1  0.35372024  0.14189435  0.27069409  1  0.09545  0.000368  0.104674  0.109681  0.000138  1.005718  0.0
H  H68  1  0.56181459  0.85787897  0.14431681  1  0.09293  0.000531  0.113734  0.126891  0.000211  0.991686  0.0
H  H69  1  0.62568024  0.46250364  0.76201631  1  0.110038  0.000586  0.122976  0.095562  7.2e-05  0.98942  0.0
H  H70  1  0.87121772  0.08304929  0.72932114  1  0.099343  0.000369  0.104796  0.109852  0.000139  1.006196  0.0
H  H71  1  0.71359979  0.41755638  0.85572391  1  0.094365  0.000523  0.11372  0.126698  0.000211  0.991763  0.0
H  H72  1  0.46247317  0.76201983  0.62566582  1  0.109198  0.000589  0.122903  0.09551  7.3e-05  0.989526  0.0
H  H73  1  0.08309936  0.72936646  0.87124202  1  0.099039  0.000369  0.104671  0.109711  0.000139  1.005793  0.0
H  H74  1  0.41750990  0.85570684  0.71357471  1  0.09391  0.000526  0.113721  0.126763  0.000211  0.991444  0.0
H  H75  1  0.86365008  0.23800699  0.70046521  1  0.117362  0.000593  0.122872  0.095533  7.2e-05  0.989459  0.0
H  H76  1  0.14181409  0.27064888  0.35371058  1  0.095209  0.000369  0.104784  0.109794  0.000139  1.005862  0.0
H  H77  1  0.85785993  0.14431303  0.56180041  1  0.092772  0.000531  0.113721  0.126862  0.000211  0.991453  0.0
H  H78  1  0.13633299  0.83680214  0.37432273  1  0.125922  0.000593  0.122893  0.095582  7.1e-05  0.989259  0.0
H  H79  1  0.85809389  0.21186949  0.12874372  1  0.096991  0.000369  0.104708  0.109736  0.000138  1.005658  0.0
H  H80  1  0.14211873  0.70393351  0.28641701  1  0.094434  0.000523  0.113707  0.126821  0.000211  0.991499  0.0
H  H81  1  0.53753380  0.16319269  0.29954559  1  0.117994  0.000589  0.123006  0.095599  7.1e-05  0.989661  0.0
H  H82  1  0.91692263  0.78812696  0.64627264  1  0.110677  0.000369  0.104708  0.109753  0.000139  1.005666  0.0
H  H83  1  0.58250434  0.29605727  0.43819917  1  0.094252  0.000524  0.113682  0.126767  0.000211  0.991388  0.0
C  C84  1  0.75306293  0.45096218  0.67668453  1  0.475948  -0.000646  0.054185  0.096843  -0.001226  3.940401  0.0
C  C85  1  0.74112145  0.04585585  0.82134895  1  -0.11381  0.000117  -0.084389  -0.0961  -0.000417  3.978963  0.0
C  C86  1  0.80474971  0.42631733  0.72546871  1  0.011254  -0.00069  -0.079685  -0.152223  -0.001234  3.953883  0.0
C  C87  1  0.24693911  0.92362732  0.69791283  1  0.484443  -0.000639  0.05426  0.096315  -0.001219  3.941269  0.0
C  C88  1  0.25887816  0.08028195  0.30477637  1  0.030166  9.9e-05  -0.084379  -0.09599  -0.000419  3.98038  0.0
C  C89  1  0.19525457  0.92072928  0.62158162  1  -0.004631  -0.000692  -0.079799  -0.152329  -0.00123  3.953774  0.0
C  C90  1  0.77428182  0.07637882  0.32333188  1  0.467227  -0.000649  0.054376  0.097125  -0.001216  3.940839  0.0
C  C91  1  0.22448452  0.91973041  0.17863333  1  -0.134595  0.000122  -0.084436  -0.096034  -0.000412  3.980033  0.0
C  C92  1  0.70084945  0.07927641  0.27455097  1  -0.009283  -0.000679  -0.079927  -0.152739  -0.001227  3.954227  0.0
C  C93  1  0.22573858  0.54903092  0.30208598  1  0.457306  -0.000644  0.054316  0.097009  -0.001225  3.940431  0.0
C  C94  1  0.77554355  0.95414752  0.69523483  1  0.004488  9.7e-05  -0.084338  -0.096114  -0.000413  3.979057  0.0
C  C95  1  0.29915753  0.57367496  0.37842314  1  0.009929  -0.000678  -0.079754  -0.152329  -0.001222  3.954091  0.0
C  C96  1  0.69788524  0.24693226  0.92360224  1  0.482176  -0.000646  0.054268  0.097017  -0.001222  3.941023  0.0
C  C97  1  0.30480138  0.25888805  0.08029680  1  0.03142  9.4e-05  -0.084664  -0.096285  -0.000424  3.980886  0.0
C  C98  1  0.62156817  0.19526895  0.92072226  1  -0.004094  -0.000695  -0.07973  -0.152454  -0.001233  3.953836  0.0
C  C99  1  0.67668411  0.75304943  0.45095947  1  0.479506  -0.000642  0.054403  0.097087  -0.001222  3.94073  0.0
C  C100  1  0.82138544  0.74111271  0.04590585  1  -0.097837  0.000105  -0.084764  -0.096435  -0.00042  3.980624  0.0
C  C101  1  0.72545948  0.80472325  0.42630564  1  0.00845  -0.000685  -0.079728  -0.152414  -0.001228  3.95357  0.0
C  C102  1  0.30209348  0.22573402  0.54904279  1  0.457502  -0.000637  0.054348  0.097072  -0.001218  3.940552  0.0
C  C103  1  0.69521476  0.77551772  0.95412335  1  0.004178  9.6e-05  -0.084638  -0.096463  -0.000415  3.980846  0.0
C  C104  1  0.37842714  0.29915696  0.57369258  1  0.009333  -0.00068  -0.079786  -0.152505  -0.001225  3.954012  0.0
C  C105  1  0.32331451  0.77427541  0.07638468  1  0.463407  -0.000644  0.054216  0.09682  -0.001214  3.940037  0.0
C  C106  1  0.17861344  0.22446939  0.91970156  1  -0.133369  0.000122  -0.084697  -0.096411  -0.000411  3.98165  0.0
C  C107  1  0.27452892  0.70084042  0.07927683  1  -0.008483  -0.000675  -0.079689  -0.152258  -0.001222  3.954063  0.0
C  C108  1  0.54905474  0.30209658  0.22573780  1  0.457692  -0.000655  0.054466  0.097108  -0.001235  3.940069  0.0
C  C109  1  0.95413180  0.69522045  0.77553041  1  0.005347  9.2e-05  -0.084474  -0.09625  -0.000418  3.979977  0.0
C  C110  1  0.57370875  0.37843757  0.29916864  1  0.009282  -0.000688  -0.079745  -0.152535  -0.001231  3.953955  0.0
C  C111  1  0.07637022  0.32332718  0.77426551  1  0.470732  -0.000643  0.054344  0.097208  -0.001216  3.940434  0.0
C  C112  1  0.91968398  0.17862780  0.22445034  1  -0.134648  0.000125  -0.084573  -0.09636  -0.000409  3.98015  0.0
C  C113  1  0.07926539  0.27454358  0.70083011  1  -0.01267  -0.000679  -0.079715  -0.152543  -0.001225  3.954228  0.0
C  C114  1  0.92360883  0.69787878  0.24694037  1  0.486119  -0.000649  0.054263  0.097001  -0.001228  3.940406  0.0
C  C115  1  0.08024902  0.30476680  0.25887723  1  0.032067  9.8e-05  -0.084577  -0.095959  -0.000421  3.979459  0.0
C  C116  1  0.92071539  0.62155100  0.19526561  1  -0.00739  -0.000696  -0.079674  -0.152375  -0.001233  3.953814  0.0
C  C117  1  0.45095593  0.67668710  0.75305724  1  0.473117  -0.000637  0.054353  0.097116  -0.001217  3.939704  0.0
C  C118  1  0.04587373  0.82137687  0.74111906  1  -0.095224  0.000111  -0.084488  -0.096085  -0.000415  3.980028  0.0
C  C119  1  0.42630920  0.72547641  0.80474423  1  0.014185  -0.000681  -0.07979  -0.152457  -0.001224  3.95389  0.0
C  C120  1  0.24695791  0.69792077  0.92363826  1  0.48636  -0.000631  0.054322  0.096957  -0.001212  3.940973  0.0
C  C121  1  0.25890932  0.30474344  0.08026231  1  -0.110635  0.00011  -0.084302  -0.096085  -0.000408  3.979282  0.0
C  C122  1  0.19527468  0.62158620  0.92072936  1  -0.006512  -0.000685  -0.079763  -0.152354  -0.001222  3.953947  0.0
C  C123  1  0.75307113  0.67669111  0.45096148  1  0.474023  -0.000642  0.054298  0.096986  -0.001222  3.939988  0.0
C  C124  1  0.74108438  0.82138257  0.04587398  1  -0.097996  0.000109  -0.08418  -0.09594  -0.000417  3.978988  0.0
C  C125  1  0.80475690  0.72546657  0.42630854  1  0.014504  -0.000688  -0.079784  -0.152437  -0.001231  3.954146  0.0
C  C126  1  0.22572898  0.30211354  0.54904720  1  0.457847  -0.000635  0.054298  0.097086  -0.001215  3.939883  0.0
C  C127  1  0.77551240  0.69525038  0.95415934  1  0.003134  9.8e-05  -0.084365  -0.096174  -0.000415  3.979534  0.0
C  C128  1  0.29917050  0.37844386  0.57370117  1  0.009118  -0.000681  -0.079666  -0.152329  -0.001225  3.95373  0.0
C  C129  1  0.77426374  0.32329560  0.07634394  1  0.468551  -0.000653  0.05436  0.096892  -0.001222  3.940139  0.0
C  C130  1  0.22449932  0.17861112  0.91972409  1  0.010557  0.000112  -0.084201  -0.095648  -0.000421  3.979164  0.0
C  C131  1  0.70085070  0.27452768  0.07927412  1  -0.010872  -0.00069  -0.079816  -0.152481  -0.001234  3.954109  0.0
C  C132  1  0.30211318  0.54903671  0.22571343  1  0.458646  -0.000644  0.054367  0.097112  -0.001224  3.940225  0.0
C  C133  1  0.69523480  0.95411575  0.77549500  1  0.004572  9.5e-05  -0.084674  -0.096275  -0.000414  3.981272  0.0
C  C134  1  0.37843689  0.57368838  0.29915578  1  0.009252  -0.000678  -0.079746  -0.152305  -0.001223  3.953681  0.0
C  C135  1  0.32330343  0.07636483  0.77427517  1  0.467426  -0.000652  0.054259  0.097027  -0.001222  3.940111  0.0
C  C136  1  0.17859871  0.91972255  0.22449449  1  0.009614  0.000112  -0.084368  -0.095894  -0.000421  3.979951  0.0
C  C137  1  0.27451923  0.07926681  0.70084328  1  -0.008766  -0.000684  -0.07976  -0.15239  -0.001229  3.95391  0.0
C  C138  1  0.69791108  0.92363886  0.24696224  1  0.486334  -0.000642  0.054483  0.097319  -0.001222  3.940183  0.0
C  C139  1  0.30475684  0.08029193  0.25891214  1  -0.111558  0.000105  -0.08441  -0.096045  -0.000414  3.980375  0.0
C  C140  1  0.62157089  0.92073026  0.19527462  1  -0.007105  -0.00069  -0.079829  -0.15263  -0.001227  3.954396  0.0
C  C141  1  0.67670314  0.45097318  0.75306430  1  0.47385  -0.000645  0.054316  0.096872  -0.001224  3.940346  0.0
C  C142  1  0.82143102  0.04589106  0.74109262  1  -0.10106  0.00011  -0.08472  -0.096212  -0.000419  3.981334  0.0
C  C143  1  0.72548931  0.42632814  0.80475596  1  0.013042  -0.000694  -0.079609  -0.151975  -0.001237  3.95356  0.0
C  C144  1  0.45095724  0.75306165  0.67668275  1  0.476789  -0.000634  0.054315  0.097147  -0.001214  3.940878  0.0
C  C145  1  0.04587718  0.74110225  0.82140043  1  -0.098452  0.000113  -0.084432  -0.096044  -0.000414  3.980404  0.0
C  C146  1  0.42631419  0.80474249  0.72547435  1  0.010989  -0.000681  -0.079703  -0.152413  -0.001224  3.953537  0.0
C  C147  1  0.92362518  0.24696350  0.69789521  1  0.483165  -0.00064  0.054317  0.097039  -0.001218  3.940655  0.0
C  C148  1  0.08023995  0.25889021  0.30474653  1  -0.111534  0.000109  -0.084667  -0.096473  -0.00041  3.980362  0.0
C  C149  1  0.92072026  0.19527697  0.62156315  1  -0.004114  -0.000685  -0.079823  -0.152665  -0.001224  3.954194  0.0
C  C150  1  0.07634953  0.77424936  0.32330166  1  0.46962  -0.000659  0.054398  0.096954  -0.001229  3.940387  0.0
C  C151  1  0.91967846  0.22449443  0.17857162  1  0.010159  0.00011  -0.084312  -0.095755  -0.000422  3.980031  0.0
C  C152  1  0.07925745  0.70082444  0.27452073  1  -0.006068  -0.000685  -0.079624  -0.152179  -0.001231  3.953781  0.0
C  C153  1  0.54905664  0.22572326  0.30211107  1  0.457932  -0.000654  0.054303  0.097166  -0.001232  3.940773  0.0
C  C154  1  0.95412882  0.77550084  0.69523958  1  0.00196  9.3e-05  -0.084552  -0.09634  -0.000419  3.980001  0.0
C  C155  1  0.57371564  0.29916158  0.37843493  1  0.009625  -0.000686  -0.079719  -0.152488  -0.001229  3.953977  0.0
C  C156  1  0.85454483  0.19055727  0.85449944  1  1.604408  -0.005685  0.22357  0.58757  -0.007179  4.162885  -0.005
C  C157  1  0.80449006  0.09199096  0.80441999  1  -0.049184  0.011043  -0.014911  -0.028927  0.00582  3.970627  0.009
C  C158  1  0.84878891  0.39173072  0.84876249  1  1.577075  -0.00756  0.224539  0.584562  -0.009464  4.160051  -0.006
C  C159  1  0.79206431  0.41507495  0.79205424  1  -0.045772  0.010281  0.002736  0.018026  0.005339  3.950182  0.009
C  C160  1  0.14544358  0.99998565  0.33603404  1  1.577162  -0.005679  0.223544  0.587707  -0.007187  4.162718  -0.005
C  C161  1  0.19552830  0.00000474  0.28755104  1  -0.021919  0.011029  -0.015318  -0.029621  0.005817  3.97146  0.009
C  C162  1  0.15121847  0.99999704  0.54295383  1  1.573974  -0.007527  0.224681  0.584675  -0.009442  4.159586  -0.006
C  C163  1  0.20794257  0.00000126  0.62301939  1  -0.03143  0.010274  0.002771  0.018317  0.00535  3.949699  0.009
C  C164  1  0.33603176  0.00000894  0.14549719  1  1.581166  -0.005664  0.223963  0.588127  -0.007169  4.162329  -0.005
C  C165  1  0.28752899  0.00001181  0.19555977  1  -0.023172  0.011037  -0.01516  -0.029227  0.005819  3.970974  0.009
C  C166  1  0.54295713  0.99999442  0.15125143  1  1.574334  -0.007524  0.224737  0.584643  -0.009436  4.160427  -0.006
C  C167  1  0.62301788  0.99999924  0.20797815  1  -0.03127  0.010265  0.002822  0.018359  0.005344  3.950499  0.009
C  C168  1  0.66397986  0.80943752  0.66395697  1  1.588167  -0.005663  0.223655  0.587551  -0.007171  4.162394  -0.005
C  C169  1  0.71247737  0.90800973  0.71246580  1  -0.050626  0.011063  -0.015195  -0.029236  0.005819  3.970708  0.009
C  C170  1  0.45704165  0.60827480  0.45704009  1  1.565773  -0.007532  0.224703  0.584748  -0.009429  4.159916  -0.006
C  C171  1  0.37698451  0.58493111  0.37698224  1  -0.025294  0.010269  0.002716  0.018234  0.005345  3.950253  0.009
C  C172  1  0.33603911  0.14546626  0.99999234  1  1.578578  -0.005683  0.223667  0.587775  -0.007189  4.162907  -0.005
C  C173  1  0.28756663  0.19554777  0.00001682  1  -0.022931  0.011026  -0.015349  -0.029654  0.005815  3.97119  0.009
C  C174  1  0.54296053  0.15123326  0.99999777  1  1.573804  -0.007533  0.224702  0.584572  -0.009446  4.159815  -0.006
C  C175  1  0.62302148  0.20796111  0.00000533  1  -0.0306  0.010265  0.002752  0.018438  0.005345  3.949828  0.009
C  C176  1  0.85449042  0.85452277  0.19055709  1  1.605074  -0.005692  0.223867  0.587945  -0.007185  4.162627  -0.005
C  C177  1  0.80444294  0.80444968  0.09200625  1  -0.068331  0.011038  -0.015207  -0.029161  0.005812  3.970978  0.009
C  C178  1  0.84874754  0.84876123  0.39172352  1  1.577077  -0.007545  0.224657  0.584322  -0.009447  4.160743  -0.006
C  C179  1  0.79204546  0.79203347  0.41506035  1  -0.046165  0.010287  0.002694  0.018259  0.005342  3.950601  0.009
C  C180  1  0.66396894  0.66397670  0.80945296  1  1.588869  -0.005668  0.223754  0.587855  -0.007179  4.162589  -0.005
C  C181  1  0.71245305  0.71247587  0.90801759  1  -0.045432  0.011055  -0.015067  -0.02889  0.005815  3.970809  0.009
C  C182  1  0.45705326  0.45704956  0.60829452  1  1.565934  -0.007541  0.224681  0.584799  -0.00944  4.159506  -0.006
C  C183  1  0.37699401  0.37699144  0.58495537  1  -0.024217  0.010275  0.002768  0.018166  0.005348  3.95007  0.009
C  C184  1  0.14548596  0.33602132  0.99998240  1  1.580825  -0.005662  0.223912  0.587968  -0.007159  4.16234  -0.005
C  C185  1  0.19553931  0.28750740  0.99996992  1  -0.025018  0.011033  -0.014914  -0.028835  0.005815  3.970748  0.009
C  C186  1  0.15124638  0.54296629  0.99998710  1  1.574024  -0.007508  0.224694  0.584343  -0.009413  4.160584  -0.006
C  C187  1  0.20796351  0.62302383  0.99999934  1  -0.031062  0.010275  0.002634  0.018285  0.00535  3.950461  0.009
C  C188  1  0.80945731  0.66396268  0.66398505  1  1.589284  -0.00567  0.223755  0.587811  -0.007179  4.162626  -0.005
C  C189  1  0.90801287  0.71245397  0.71247630  1  -0.047882  0.011056  -0.015069  -0.028946  0.005815  3.970998  0.009
C  C190  1  0.60829596  0.45704317  0.45705133  1  1.565852  -0.007549  0.22461  0.584438  -0.009447  4.160311  -0.006
C  C191  1  0.58496717  0.37699264  0.37699298  1  -0.025322  0.010251  0.002788  0.018339  0.005334  3.950328  0.009
C  C192  1  0.99995785  0.14547527  0.33600723  1  1.582706  -0.005662  0.22364  0.587802  -0.007156  4.162468  -0.005
C  C193  1  0.99996225  0.19554128  0.28750584  1  -0.02301  0.011039  -0.014739  -0.028649  0.00582  3.970513  0.009
C  C194  1  0.99998339  0.15124850  0.54294526  1  1.574653  -0.007514  0.224678  0.58443  -0.009422  4.16035  -0.006
C  C195  1  0.99999420  0.20797940  0.62300551  1  -0.030951  0.010268  0.002731  0.018299  0.005346  3.950669  0.009
C  C196  1  0.99999891  0.33603800  0.14544897  1  1.577513  -0.005681  0.223422  0.58746  -0.00719  4.163087  -0.005
C  C197  1  0.99996584  0.28754408  0.19551759  1  -0.023204  0.011032  -0.015242  -0.029733  0.005818  3.971244  0.009
C  C198  1  0.99999778  0.54294303  0.15122806  1  1.574495  -0.00753  0.224742  0.584829  -0.009445  4.159457  -0.006
C  C199  1  0.99998881  0.62299338  0.20794987  1  -0.030828  0.010261  0.002775  0.018169  0.005344  3.949536  0.009
C  C200  1  0.19056833  0.85452891  0.85454010  1  1.603644  -0.005677  0.223554  0.587699  -0.007172  4.162475  -0.005
C  C201  1  0.09200132  0.80445381  0.80447685  1  -0.065105  0.011045  -0.015272  -0.029384  0.005818  3.971171  0.009
C  C202  1  0.39171859  0.84875772  0.84877199  1  1.57761  -0.007529  0.224567  0.584374  -0.009424  4.160167  -0.006
C  C203  1  0.41506032  0.79204510  0.79205100  1  -0.046168  0.010305  0.002757  0.018448  0.005352  3.949973  0.009
N  N204  1  0.99999896  0.30881039  0.77351708  1  -1.171364  0.013551  -0.305834  -0.190669  0.006873  3.50542  0.013
N  N205  1  0.99997405  0.77349863  0.30878399  1  -1.170782  0.013419  -0.306044  -0.190918  0.006801  3.505622  0.013
N  N206  1  0.53528576  0.22647908  0.22649365  1  -1.165041  0.013459  -0.306071  -0.19084  0.006816  3.505802  0.013
N  N207  1  0.46472218  0.69120938  0.69119707  1  -1.172649  0.013595  -0.305825  -0.190901  0.006882  3.505557  0.013
N  N208  1  0.30878787  0.99999363  0.77352899  1  -1.171822  0.013505  -0.305885  -0.190613  0.006847  3.505731  0.013
N  N209  1  0.77353119  0.00001188  0.30880914  1  -1.17216  0.013549  -0.305982  -0.190833  0.006872  3.505853  0.013
N  N210  1  0.69121471  0.46473377  0.69121082  1  -1.172526  0.013488  -0.30593  -0.190649  0.00682  3.50619  0.013
N  N211  1  0.22649122  0.53526383  0.22646147  1  -1.16511  0.01358  -0.30606  -0.19117  0.006888  3.505616  0.013
N  N212  1  0.69121828  0.69120431  0.46473133  1  -1.172585  0.013544  -0.305889  -0.190628  0.006854  3.505517  0.013
N  N213  1  0.22647304  0.22648777  0.53527467  1  -1.164704  0.013578  -0.305931  -0.190874  0.00689  3.505233  0.013
N  N214  1  0.77350375  0.30877607  0.99996471  1  -1.170757  0.013425  -0.306068  -0.190918  0.006803  3.50557  0.013
N  N215  1  0.30880203  0.77353350  0.00001245  1  -1.172084  0.013596  -0.305914  -0.190809  0.0069  3.505493  0.013
O  O216  1  0.90721475  0.38244355  0.83199806  1  -1.118839  0.068577  -0.291116  -0.533086  0.035892  2.379893  0.06
O  O217  1  0.91076905  0.22863148  0.83596927  1  -1.130599  0.076499  -0.290851  -0.531845  0.039734  2.427517  0.067
O  O218  1  0.09278653  0.92480682  0.47524738  1  -1.124734  0.068495  -0.291145  -0.533154  0.035868  2.379498  0.06
O  O219  1  0.08922985  0.92523710  0.31789862  1  -1.127428  0.076414  -0.290744  -0.531808  0.039676  2.427393  0.067
O  O220  1  0.55045421  0.07518630  0.16800442  1  -1.115167  0.068449  -0.291114  -0.533131  0.035824  2.379471  0.06
O  O221  1  0.39264546  0.07475725  0.16403036  1  -1.1286  0.076413  -0.290925  -0.532112  0.039678  2.427063  0.067
O  O222  1  0.44955765  0.61753743  0.52474642  1  -1.116769  0.068531  -0.291173  -0.533272  0.035866  2.379192  0.06
O  O223  1  0.60734575  0.77137410  0.68208228  1  -1.131142  0.076446  -0.29079  -0.53175  0.039706  2.426796  0.067
O  O224  1  0.47524583  0.09279662  0.92480545  1  -1.124477  0.06855  -0.2912  -0.533266  0.035897  2.3795  0.06
O  O225  1  0.31790371  0.08924699  0.92524229  1  -1.128637  0.076461  -0.290806  -0.531821  0.039698  2.42761  0.067
O  O226  1  0.83198301  0.90719130  0.38246184  1  -1.118871  0.068562  -0.291026  -0.532941  0.03588  2.379935  0.06
O  O227  1  0.83594071  0.91073046  0.22862101  1  -1.130211  0.076433  -0.290996  -0.532032  0.039699  2.427561  0.067
O  O228  1  0.52475124  0.44955291  0.61754190  1  -1.116835  0.068488  -0.29113  -0.533256  0.035844  2.379265  0.06
O  O229  1  0.68210537  0.60736036  0.77137954  1  -1.131271  0.076407  -0.290832  -0.531927  0.039686  2.427238  0.067
O  O230  1  0.16799039  0.55044277  0.07517337  1  -1.115072  0.068503  -0.291172  -0.53314  0.035849  2.379204  0.06
O  O231  1  0.16402808  0.39263998  0.07473650  1  -1.128751  0.076444  -0.29088  -0.532022  0.039696  2.426938  0.067
O  O232  1  0.61754397  0.52474079  0.44955169  1  -1.116087  0.06851  -0.291146  -0.533133  0.035854  2.379281  0.06
O  O233  1  0.77138664  0.68207854  0.60734650  1  -1.131458  0.076448  -0.290827  -0.531945  0.039713  2.426951  0.067
O  O234  1  0.07516960  0.16797660  0.55042568  1  -1.11532  0.068479  -0.291232  -0.533215  0.035842  2.379202  0.06
O  O235  1  0.07471298  0.16403470  0.39265705  1  -1.130551  0.076483  -0.290877  -0.532156  0.039705  2.426432  0.067
O  O236  1  0.92481042  0.47523692  0.09278706  1  -1.124683  0.068523  -0.291261  -0.533318  0.035884  2.379463  0.06
O  O237  1  0.92524402  0.31788882  0.08921723  1  -1.127381  0.076411  -0.290599  -0.531626  0.039672  2.427282  0.067
O  O238  1  0.38245581  0.83201089  0.90720615  1  -1.119188  0.068566  -0.291076  -0.532993  0.035881  2.379661  0.06
O  O239  1  0.22865120  0.83599469  0.91075824  1  -1.130848  0.076404  -0.290771  -0.531842  0.039683  2.427111  0.067
O  O240  1  0.09280166  0.47526193  0.92479251  1  -1.124555  0.068495  -0.29114  -0.533106  0.035863  2.379353  0.06
O  O241  1  0.08928706  0.31790221  0.92522482  1  -1.1289  0.076455  -0.290987  -0.532147  0.039691  2.426997  0.067
O  O242  1  0.90719604  0.83201193  0.38245889  1  -1.118935  0.068511  -0.291157  -0.533064  0.035851  2.379288  0.06
O  O243  1  0.91069994  0.83597231  0.22863609  1  -1.131538  0.07642  -0.290764  -0.531873  0.039687  2.426681  0.067
O  O244  1  0.44956590  0.52475731  0.61756492  1  -1.116587  0.068577  -0.291207  -0.533307  0.035892  2.3793  0.06
O  O245  1  0.60734671  0.68211710  0.77137663  1  -1.131765  0.076447  -0.290786  -0.532006  0.039706  2.427181  0.067
O  O246  1  0.55045426  0.16799056  0.07519070  1  -1.115746  0.068522  -0.291082  -0.533015  0.035859  2.379281  0.06
O  O247  1  0.39265125  0.16400648  0.07475322  1  -1.128109  0.07644  -0.290712  -0.531693  0.039691  2.42726  0.067
O  O248  1  0.52474927  0.61754763  0.44955575  1  -1.116536  0.068569  -0.291183  -0.533309  0.035886  2.379315  0.06
O  O249  1  0.68212077  0.77134676  0.60734740  1  -1.132082  0.076395  -0.290748  -0.531795  0.039677  2.427111  0.067
O  O250  1  0.16796614  0.07518085  0.55042809  1  -1.115976  0.068629  -0.291191  -0.533225  0.03592  2.379588  0.06
O  O251  1  0.16397535  0.07473855  0.39265359  1  -1.128971  0.076485  -0.290681  -0.531705  0.039716  2.427249  0.067
O  O252  1  0.47525417  0.92480637  0.09281283  1  -1.124433  0.068485  -0.29117  -0.533171  0.035864  2.379628  0.06
O  O253  1  0.31790554  0.92525413  0.08930707  1  -1.129082  0.076526  -0.290905  -0.532093  0.039736  2.427183  0.067
O  O254  1  0.83204083  0.38246691  0.90720864  1  -1.119012  0.06849  -0.291035  -0.533151  0.035847  2.37968  0.06
O  O255  1  0.83598356  0.22864043  0.91068287  1  -1.131409  0.076434  -0.290673  -0.531829  0.039693  2.427231  0.067
O  O256  1  0.38246632  0.90721454  0.83203228  1  -1.119024  0.068523  -0.291174  -0.533339  0.035863  2.379238  0.06
O  O257  1  0.22864506  0.91073526  0.83599132  1  -1.130669  0.07645  -0.29067  -0.531847  0.039705  2.426911  0.067
O  O258  1  0.92479074  0.09280226  0.47525555  1  -1.124787  0.068436  -0.291093  -0.532996  0.035836  2.379492  0.06
O  O259  1  0.92520519  0.08924934  0.31784930  1  -1.128789  0.076461  -0.290819  -0.532048  0.039697  2.427221  0.067
O  O260  1  0.07519188  0.55044423  0.16798471  1  -1.116026  0.06855  -0.291174  -0.533277  0.03588  2.379434  0.06
O  O261  1  0.07476283  0.39265746  0.16401126  1  -1.128829  0.076473  -0.290682  -0.531621  0.039707  2.427369  0.067
O  O262  1  0.61756527  0.44956433  0.52475391  1  -1.116449  0.068514  -0.2911  -0.533038  0.035856  2.379861  0.06
O  O263  1  0.77137403  0.60735884  0.68213392  1  -1.131979  0.076412  -0.290816  -0.531938  0.039688  2.427365  0.067
O  O264  1  0.99996916  0.39292745  0.99999442  1  -0.808073  0.113702  -0.451513  -0.769917  0.036397  2.357214  0.108
O  O265  1  0.99999648  0.99996584  0.39293683  1  -0.807671  0.113696  -0.451546  -0.769917  0.036387  2.356869  0.108
O  O266  1  0.39296344  0.00003494  0.00002853  1  -0.808048  0.113687  -0.451547  -0.769913  0.036397  2.356841  0.108
O  O267  1  0.60707927  0.60705833  0.60706084  1  -0.810961  0.113675  -0.451594  -0.770235  0.036401  2.357475  0.108
