# generated using pymatgen
data_ZnH11C14S(NO2)2
_symmetry_space_group_name_H-M   'P 1'
_cell_length_a   10.91927852
_cell_length_b   10.96824568
_cell_length_c   14.74420000
_cell_angle_alpha   90.62364368
_cell_angle_beta   90.62644050
_cell_angle_gamma   98.94353688
_symmetry_Int_Tables_number   1
_chemical_formula_structural   ZnH11C14S(NO2)2
_chemical_formula_sum   'Zn4 H44 C56 S4 N8 O16'
_cell_volume   1744.12906386
_cell_formula_units_Z   4
loop_
 _symmetry_equiv_pos_site_id
 _symmetry_equiv_pos_as_xyz
  1  'x, y, z'
loop_
 _atom_site_type_symbol
 _atom_site_label
 _atom_site_symmetry_multiplicity
 _atom_site_fract_x
 _atom_site_fract_y
 _atom_site_fract_z
 _atom_site_occupancy
 _atom_site_hle17_bader_spin_density
 _atom_site_hle17_ddec_charge
 _atom_site_hle17_ddec_spin_density
 _atom_site_hle17_ddec_sum_bond_order
 _atom_site_hle17_magmom
 _atom_site_hse06_10hf_bader_spin_density
 _atom_site_hse06_10hf_ddec_charge
 _atom_site_hse06_10hf_ddec_spin_density
 _atom_site_hse06_10hf_ddec_sum_bond_order
 _atom_site_hse06_10hf_magmom
 _atom_site_hse06_bader_spin_density
 _atom_site_hse06_ddec_charge
 _atom_site_hse06_ddec_spin_density
 _atom_site_hse06_ddec_sum_bond_order
 _atom_site_hse06_magmom
 _atom_site_pbe_bader_charge
 _atom_site_pbe_bader_spin_density
 _atom_site_pbe_cm5_charge
 _atom_site_pbe_ddec_charge
 _atom_site_pbe_ddec_spin_density
 _atom_site_pbe_ddec_sum_bond_order
 _atom_site_pbe_magmom
Zn  Zn0  1  0.45486777  0.12541796  0.50419055  1  0  1.07793  0  1.85746  0  0  0.90918  0  2.33402  0  0  0.959441  0  2.268394  0  1.313931  0  0.680021  0.874008  0  2.379212  0
Zn  Zn1  1  0.87433936  0.54432546  0.99591192  1  0  1.074446  0  1.861021  0  0  0.9058  0  2.337473  0  0  0.95612  0  2.271826  0  1.312214  0  0.67932  0.870617  0  2.38263  0
Zn  Zn2  1  0.54513197  0.87458253  0.49581054  1  0  1.07794  0  1.857487  0  0  0.909162  0  2.334061  0  0  0.959423  0  2.268436  0  1.314034  0  0.680041  0.873997  0  2.379239  0
Zn  Zn3  1  0.12566207  0.45567411  0.00408714  1  0  1.074509  0  1.860956  0  0  0.905908  0  2.337418  0  0  0.956228  0  2.271765  0  1.312339  0  0.679337  0.87072  0  2.382592  0
H  H4  1  0.89001023  0.97457224  0.68620132  1  0  0.115301  0  0.9434  0  0  0.127066  0  1.001158  0  0  0.130213  0  0.999224  0  0.107429  0  0.110543  0.124762  0  1.002671  0
H  H5  1  0.02639002  0.11085734  0.81458370  1  0  0.115922  0  0.943301  0  0  0.127382  0  1.001242  0  0  0.130602  0  0.999229  0  0.142275  0  0.110804  0.125033  0  1.002789  0
H  H6  1  0.10999135  0.02542825  0.31379911  1  0  0.115312  0  0.94339  0  0  0.127075  0  1.00115  0  0  0.130224  0  0.999216  0  0.107434  0  0.110545  0.124771  0  1.002662  0
H  H7  1  0.97361368  0.88914500  0.18541608  1  0  0.115914  0  0.943376  0  0  0.127402  0  1.001282  0  0  0.130623  0  0.99927  0  0.14214  0  0.11079  0.125053  0  1.00283  0
H  H8  1  0.47197325  0.31055154  0.66895187  1  0  0.107255  0  0.952376  0  0  0.117292  0  1.011597  0  0  0.12009  0  1.009798  0  0.128411  0  0.118204  0.115306  0  1.012765  0
H  H9  1  0.68868668  0.52763543  0.83130168  1  0  0.107333  0  0.952186  0  0  0.11755  0  1.011187  0  0  0.120292  0  1.009467  0  0.121992  0  0.118507  0.115602  0  1.012313  0
H  H10  1  0.52802650  0.68944894  0.33104786  1  0  0.107249  0  0.952374  0  0  0.117289  0  1.011591  0  0  0.120086  0  1.009793  0  0.128621  0  0.118197  0.115303  0  1.01276  0
H  H11  1  0.31131447  0.47236229  0.16870008  1  0  0.107265  0  0.95224  0  0  0.117493  0  1.011236  0  0  0.120233  0  1.00952  0  0.121668  0  0.118512  0.115544  0  1.012361  0
H  H12  1  0.13117732  0.00431050  0.68786404  1  0  0.117375  0  0.939412  0  0  0.128784  0  0.996778  0  0  0.131979  0  0.994741  0  0.093155  0  0.110159  0.126467  0  0.998341  0
H  H13  1  0.99495549  0.86828016  0.81294195  1  0  0.116977  0  0.93924  0  0  0.128957  0  0.995872  0  0  0.132115  0  0.993913  0  0.092761  0  0.1103  0.12664  0  0.997436  0
H  H14  1  0.86882503  0.99568907  0.31213571  1  0  0.117352  0  0.939405  0  0  0.128772  0  0.996762  0  0  0.131966  0  0.994726  0  0.093294  0  0.110146  0.126452  0  0.998325  0
H  H15  1  0.00504396  0.13171848  0.18705641  1  0  0.116954  0  0.939246  0  0  0.128926  0  0.995895  0  0  0.132083  0  0.993937  0  0.092755  0  0.110281  0.126608  0  0.99746  0
H  H16  1  0.29865949  0.59515149  0.42421263  1  0  0.081527  0  0.935853  0  0  0.091999  0  1.009699  0  0  0.092779  0  1.009073  0  0.095641  0  0.10924  0.09147  0  1.009762  0
H  H17  1  0.40429302  0.70257520  0.07564474  1  0  0.081834  0  0.936836  0  0  0.092159  0  1.010352  0  0  0.092951  0  1.009741  0  0.100636  0  0.109813  0.091623  0  1.010442  0
H  H18  1  0.70133920  0.40484808  0.57578709  1  0  0.081509  0  0.935859  0  0  0.091994  0  1.009689  0  0  0.092776  0  1.009063  0  0.095658  0  0.109236  0.091465  0  1.009753  0
H  H19  1  0.59570643  0.29742345  0.92435497  1  0  0.08184  0  0.936808  0  0  0.092168  0  1.010325  0  0  0.09296  0  1.009713  0  0.100635  0  0.109806  0.091636  0  1.010417  0
H  H20  1  0.30073958  0.64977759  0.53639503  1  0  0.10596  0  0.926041  0  0  0.119172  0  0.990566  0  0  0.120384  0  0.989856  0  0.1121  0  0.116588  0.118105  0  0.991177  0
H  H21  1  0.34939610  0.70066547  0.96348934  1  0  0.105214  0  0.927219  0  0  0.118723  0  0.990842  0  0  0.119987  0  0.990119  0  0.126112  0  0.116665  0.117646  0  0.991456  0
H  H22  1  0.69925911  0.35022197  0.46360536  1  0  0.105929  0  0.926072  0  0  0.119163  0  0.990581  0  0  0.120371  0  0.989869  0  0.112131  0  0.116607  0.118097  0  0.991188  0
H  H23  1  0.65060457  0.29933502  0.03651108  1  0  0.105182  0  0.927203  0  0  0.118691  0  0.990835  0  0  0.119956  0  0.990111  0  0.126109  0  0.116657  0.117617  0  0.991453  0
H  H24  1  0.37875546  0.53492912  0.66029682  1  0  0.108077  0  0.97357  0  0  0.115611  0  1.041708  0  0  0.118426  0  1.040131  0  0.104496  0  0.117223  0.113625  0  1.042881  0
H  H25  1  0.46428334  0.62237316  0.83958223  1  0  0.107993  0  0.974972  0  0  0.115096  0  1.04389  0  0  0.117964  0  1.042259  0  0.093692  0  0.116296  0.11308  0  1.045109  0
H  H26  1  0.62124400  0.46506952  0.33970357  1  0  0.108041  0  0.9735  0  0  0.115569  0  1.041654  0  0  0.118385  0  1.040079  0  0.104507  0  0.117185  0.11358  0  1.042827  0
H  H27  1  0.53571949  0.37762363  0.16041817  1  0  0.107904  0  0.974939  0  0  0.115011  0  1.043871  0  0  0.117879  0  1.04224  0  0.093679  0  0.116267  0.112994  0  1.045091  0
H  H28  1  0.39105535  0.32190652  0.33953185  1  0  0.134192  0  0.932163  0  0  0.155128  0  0.990651  0  0  0.15721  0  0.989982  0  0.070825  0  0.10246  0.153659  0  0.991151  0
H  H29  1  0.67821651  0.60926260  0.16037853  1  0  0.134235  0  0.932175  0  0  0.155187  0  0.990358  0  0  0.15723  0  0.989751  0  0.070047  0  0.102261  0.153717  0  0.990852  0
H  H30  1  0.60894271  0.67809489  0.66046787  1  0  0.134243  0  0.93218  0  0  0.155176  0  0.990646  0  0  0.157256  0  0.989982  0  0.071066  0  0.102474  0.153706  0  0.991152  0
H  H31  1  0.32178203  0.39073604  0.83962185  1  0  0.134231  0  0.932078  0  0  0.155171  0  0.990287  0  0  0.157214  0  0.989681  0  0.070064  0  0.102255  0.153701  0  0.990781  0
H  H32  1  0.26960141  0.41288572  0.35124438  1  0  0.126898  0  0.946516  0  0  0.147621  0  1.005162  0  0  0.149337  0  1.004976  0  0.034951  0  0.102045  0.146456  0  1.005153  0
H  H33  1  0.58675220  0.73014762  0.14881889  1  0  0.126871  0  0.947137  0  0  0.147462  0  1.005888  0  0  0.149169  0  1.005694  0  0.03346  0  0.102094  0.146301  0  1.005878  0
H  H34  1  0.73039713  0.58711292  0.64875533  1  0  0.126924  0  0.946515  0  0  0.147629  0  1.005173  0  0  0.149348  0  1.004983  0  0.034775  0  0.102035  0.146465  0  1.005162  0
H  H35  1  0.41324726  0.26985103  0.85118083  1  0  0.126811  0  0.947177  0  0  0.147426  0  1.005904  0  0  0.149133  0  1.005711  0  0.03345  0  0.102072  0.146265  0  1.005895  0
H  H36  1  0.24426020  0.25276595  0.37734204  1  0  0.147825  0  0.92232  0  0  0.170483  0  0.9758  0  0  0.172812  0  0.974522  0  0.0999  0  0.109085  0.168791  0  0.97679  0
H  H37  1  0.74758385  0.75546233  0.12264946  1  0  0.147312  0  0.922244  0  0  0.169787  0  0.976068  0  0  0.172139  0  0.974745  0  0.099413  0  0.108673  0.168071  0  0.977093  0
H  H38  1  0.75574032  0.74723362  0.62265769  1  0  0.147827  0  0.922313  0  0  0.170478  0  0.975794  0  0  0.172807  0  0.974517  0  0.099903  0  0.109084  0.168787  0  0.976784  0
H  H39  1  0.25241454  0.24453539  0.87735024  1  0  0.147334  0  0.922273  0  0  0.169837  0  0.976058  0  0  0.172193  0  0.974737  0  0.099374  0  0.108702  0.168118  0  0.977086  0
H  H40  1  0.13227271  0.37279255  0.58318567  1  0  0.094778  0  0.956428  0  0  0.106798  0  1.012573  0  0  0.109366  0  1.012105  0  0.059416  0  0.101577  0.10475  0  1.013292  0
H  H41  1  0.62767558  0.86838446  0.91663597  1  0  0.094678  0  0.955566  0  0  0.10676  0  1.01168  0  0  0.109339  0  1.011187  0  0.058996  0  0.101676  0.104678  0  1.012446  0
H  H42  1  0.86772612  0.62720794  0.41681608  1  0  0.094759  0  0.95645  0  0  0.106772  0  1.012605  0  0  0.10934  0  1.012137  0  0.059408  0  0.101578  0.10473  0  1.013317  0
H  H43  1  0.37232586  0.13161511  0.08336444  1  0  0.094646  0  0.955534  0  0  0.106724  0  1.011667  0  0  0.109302  0  1.011174  0  0.058993  0  0.101668  0.104642  0  1.012433  0
H  H44  1  0.09499894  0.68086672  0.41133972  1  0  0.088136  0  0.973434  0  0  0.097786  0  1.036327  0  0  0.099493  0  1.037209  0  0.070155  0  0.093925  0.096329  0  1.036063  0
H  H45  1  0.31853885  0.90527291  0.08877540  1  0  0.087798  0  0.972756  0  0  0.097377  0  1.035903  0  0  0.099008  0  1.036875  0  0.069848  0  0.093592  0.095945  0  1.035602  0
H  H46  1  0.90499975  0.31913285  0.58866135  1  0  0.088158  0  0.973412  0  0  0.097763  0  1.036352  0  0  0.099472  0  1.037231  0  0.070133  0  0.093914  0.096306  0  1.036087  0
H  H47  1  0.68146259  0.09472666  0.91122501  1  0  0.087759  0  0.972748  0  0  0.097339  0  1.035907  0  0  0.098969  0  1.036881  0  0.06974  0  0.093579  0.095907  0  1.035606  0
C  C48  1  0.76574506  0.11018999  0.69107661  1  0  -0.142661  0  3.743132  0  0  -0.125679  0  4.010667  0  0  -0.131561  0  4.028809  0  -0.143143  0  -0.026819  -0.121733  0  3.998319  0
C  C49  1  0.89001412  0.23446895  0.80916863  1  0  -0.140436  0  3.741562  0  0  -0.123143  0  4.008442  0  0  -0.129022  0  4.026599  0  -0.203978  0  -0.026242  -0.119207  0  3.9961  0
C  C50  1  0.23425362  0.88980957  0.30892310  1  0  -0.142638  0  3.743099  0  0  -0.125645  0  4.010666  0  0  -0.131527  0  4.028809  0  -0.14313  0  -0.026801  -0.121694  0  3.998311  0
C  C51  1  0.10998761  0.76553247  0.19082909  1  0  -0.140399  0  3.741666  0  0  -0.123104  0  4.008526  0  0  -0.128981  0  4.02668  0  -0.203983  0  -0.026232  -0.119174  0  3.996193  0
C  C52  1  0.35206578  0.36652156  0.47634508  1  0  0.376492  0  3.668376  0  0  0.352539  0  3.93875  0  0  0.368729  0  3.953451  0  0.979371  0  0.225131  0.341655  0  3.928613  0
C  C53  1  0.63322775  0.64817431  0.02365456  1  0  0.375588  0  3.667126  0  0  0.351771  0  3.937574  0  0  0.368036  0  3.952176  0  0.979991  0  0.224448  0.34083  0  3.927507  0
C  C54  1  0.64793305  0.63347893  0.52365464  1  0  0.376563  0  3.668291  0  0  0.352543  0  3.938712  0  0  0.368733  0  3.953415  0  0.979379  0  0.225105  0.341659  0  3.928577  0
C  C55  1  0.36676925  0.35182618  0.97634447  1  0  0.375619  0  3.666984  0  0  0.351801  0  3.937474  0  0  0.368067  0  3.952076  0  0.97965  0  0.224485  0.340858  0  3.927408  0
C  C56  1  0.34715985  0.91377668  0.62404026  1  0  0.675611  0  3.940323  0  0  0.626112  0  4.228221  0  0  0.66168  0  4.219745  0  1.608615  0  0.208213  0.60193  0  4.233185  0
C  C57  1  0.08591332  0.65266203  0.87586260  1  0  0.674048  0  3.940427  0  0  0.624467  0  4.228646  0  0  0.660028  0  4.220206  0  1.592541  0  0.2068  0.600288  0  4.233584  0
C  C58  1  0.65284250  0.08622288  0.37596084  1  0  0.675616  0  3.940463  0  0  0.626099  0  4.228379  0  0  0.661666  0  4.219905  0  1.609121  0  0.20823  0.60192  0  4.233342  0
C  C59  1  0.91408446  0.34733754  0.12413643  1  0  0.674155  0  3.940309  0  0  0.624567  0  4.228527  0  0  0.660129  0  4.220084  0  1.592535  0  0.206827  0.600388  0  4.233465  0
C  C60  1  0.25456754  0.86818693  0.69248842  1  0  -0.137972  0  3.74451  0  0  -0.119232  0  4.007702  0  0  -0.125509  0  4.02692  0  -0.237879  0  -0.025729  -0.114959  0  3.994619  0
C  C61  1  0.13150534  0.74523067  0.80762112  1  0  -0.137725  0  3.742481  0  0  -0.119516  0  4.006539  0  0  -0.125796  0  4.025728  0  -0.18657  0  -0.025616  -0.115228  0  3.993439  0
C  C62  1  0.74543447  0.13181632  0.30751271  1  0  -0.138014  0  3.744523  0  0  -0.119253  0  4.007698  0  0  -0.12553  0  4.026917  0  -0.237856  0  -0.025754  -0.114986  0  3.994623  0
C  C63  1  0.86849440  0.25476982  0.19237861  1  0  -0.137864  0  3.742565  0  0  -0.119635  0  4.006602  0  0  -0.125915  0  4.025791  0  -0.186574  0  -0.025622  -0.115347  0  3.993503  0
C  C64  1  0.86911320  0.05961871  0.71668417  1  0  -0.082514  0  3.756471  0  0  -0.111558  0  4.014789  0  0  -0.111281  0  4.033336  0  -0.113981  0  -0.095518  -0.111531  0  4.001951  0
C  C65  1  0.94103072  0.13152465  0.78390519  1  0  -0.085503  0  3.757048  0  0  -0.114518  0  4.015909  0  0  -0.11429  0  4.034358  0  -0.034488  0  -0.096507  -0.114447  0  4.003133  0
C  C66  1  0.13088732  0.94038085  0.28331556  1  0  -0.08254  0  3.756494  0  0  -0.111584  0  4.014819  0  0  -0.111308  0  4.033367  0  -0.113925  0  -0.095499  -0.111559  0  4.00198  0
C  C67  1  0.05897009  0.86847676  0.21609320  1  0  -0.085481  0  3.757119  0  0  -0.114526  0  4.015965  0  0  -0.1143  0  4.034414  0  -0.034479  0  -0.09653  -0.114454  0  4.003191  0
C  C68  1  0.13021299  0.53096660  0.49682951  1  0  0.061814  0  3.756615  0  0  0.079974  0  3.998858  0  0  0.078825  0  4.024137  0  -0.014533  0  -0.017198  0.080327  0  3.982007  0
C  C69  1  0.46894638  0.87031542  0.00311343  1  0  0.062276  0  3.756289  0  0  0.080215  0  3.998083  0  0  0.079061  0  4.023464  0  -0.011955  0  -0.017213  0.080622  0  3.981143  0
C  C70  1  0.86978492  0.46903388  0.50317292  1  0  0.061892  0  3.756642  0  0  0.079973  0  3.998988  0  0  0.078825  0  4.024267  0  -0.01454  0  -0.01717  0.080324  0  3.982142  0
C  C71  1  0.53105414  0.12968415  0.99688697  1  0  0.062233  0  3.756297  0  0  0.080182  0  3.998091  0  0  0.079028  0  4.023471  0  -0.01185  0  -0.017208  0.080594  0  3.981154  0
C  C72  1  0.42745958  0.35228030  0.61387920  1  0  0.004774  0  3.766363  0  0  -0.030919  0  4.036329  0  0  -0.028424  0  4.056193  0  0.428075  0  -0.005679  -0.032129  0  4.022359  0
C  C73  1  0.64704500  0.57249230  0.88625914  1  0  0.006293  0  3.76672  0  0  -0.029471  0  4.036548  0  0  -0.026932  0  4.056483  0  0.444184  0  -0.005345  -0.030714  0  4.022564  0
C  C74  1  0.57253911  0.64771926  0.38611984  1  0  0.004778  0  3.766369  0  0  -0.030941  0  4.036328  0  0  -0.028448  0  4.056193  0  0.427827  0  -0.005653  -0.032151  0  4.02236  0
C  C75  1  0.35295691  0.42750450  0.11374058  1  0  0.006357  0  3.766807  0  0  -0.029383  0  4.036663  0  0  -0.026844  0  4.056601  0  0.444941  0  -0.005419  -0.030625  0  4.022678  0
C  C76  1  0.15159347  0.91926957  0.71762475  1  0  -0.082983  0  3.756796  0  0  -0.112429  0  4.014817  0  0  -0.112329  0  4.033805  0  0.006063  0  -0.096379  -0.112356  0  4.001774  0
C  C77  1  0.08020163  0.84795528  0.78291709  1  0  -0.08405  0  3.75721  0  0  -0.113698  0  4.015326  0  0  -0.113555  0  4.034327  0  0.022549  0  -0.09745  -0.113655  0  4.002278  0
C  C78  1  0.84840811  0.08073092  0.28237432  1  0  -0.082911  0  3.756919  0  0  -0.112373  0  4.014913  0  0  -0.112273  0  4.033904  0  0.005876  0  -0.096334  -0.112295  0  4.001867  0
C  C79  1  0.91979904  0.15204521  0.21708400  1  0  -0.083986  0  3.757297  0  0  -0.113634  0  4.01541  0  0  -0.11349  0  4.034411  0  0.022581  0  -0.097443  -0.113591  0  4.00236  0
C  C80  1  0.26957200  0.56815227  0.49318648  1  0  -0.036382  0  3.641398  0  0  -0.104239  0  3.896026  0  0  -0.09991  0  3.906602  0  0.279163  0  -0.044886  -0.106651  0  3.88807  0
C  C81  1  0.43142414  0.73156630  0.00667865  1  0  -0.040711  0  3.643251  0  0  -0.107836  0  3.896649  0  0  -0.10366  0  3.907502  0  0.272112  0  -0.047905  -0.110232  0  3.888667  0
C  C82  1  0.73042697  0.43184915  0.50681393  1  0  -0.036369  0  3.641482  0  0  -0.104222  0  3.896143  0  0  -0.099889  0  3.906716  0  0.279111  0  -0.04491  -0.106633  0  3.888183  0
C  C83  1  0.56857546  0.26843327  0.99332108  1  0  -0.040662  0  3.643215  0  0  -0.107812  0  3.896648  0  0  -0.103638  0  3.907502  0  0.272125  0  -0.047922  -0.110228  0  3.888688  0
C  C84  1  0.38305657  0.46235677  0.61059657  1  0  -0.071934  0  3.713281  0  0  -0.115972  0  3.981961  0  0  -0.115263  0  4.001925  0  0.266824  0  -0.004536  -0.11653  0  3.96853  0
C  C85  1  0.53707849  0.61778668  0.88933691  1  0  -0.075102  0  3.714718  0  0  -0.118812  0  3.983417  0  0  -0.118153  0  4.003408  0  0.27313  0  -0.005169  -0.119351  0  3.969973  0
C  C86  1  0.61694226  0.53764372  0.38940451  1  0  -0.071848  0  3.713237  0  0  -0.11588  0  3.981916  0  0  -0.115172  0  4.001883  0  0.266949  0  -0.00449  -0.116434  0  3.968482  0
C  C87  1  0.46292111  0.38221288  0.11066281  1  0  -0.074949  0  3.714666  0  0  -0.118667  0  3.983367  0  0  -0.118007  0  4.003359  0  0.272711  0  -0.005107  -0.119206  0  3.969922  0
C  C88  1  0.31187104  0.33803628  0.38087776  1  0  -0.389734  0  3.711198  0  0  -0.472548  0  3.94816  0  0  -0.476665  0  3.954263  0  -0.035417  0  -0.226944  -0.469452  0  3.943694  0
C  C89  1  0.66193925  0.68813826  0.11912049  1  0  -0.389583  0  3.711615  0  0  -0.472149  0  3.948403  0  0  -0.476275  0  3.954485  0  -0.033274  0  -0.22664  -0.469025  0  3.943973  0
C  C90  1  0.68812779  0.66196421  0.61912264  1  0  -0.389813  0  3.711203  0  0  -0.472585  0  3.948175  0  0  -0.476705  0  3.954278  0  -0.035481  0  -0.226921  -0.469491  0  3.943708  0
C  C91  1  0.33805915  0.31185946  0.88087921  1  0  -0.389522  0  3.711586  0  0  -0.4721  0  3.948337  0  0  -0.476232  0  3.954424  0  -0.033427  0  -0.226627  -0.468972  0  3.943908  0
C  C92  1  0.67112500  0.06465286  0.62149655  1  0  0.673214  0  3.947237  0  0  0.623491  0  4.234785  0  0  0.659127  0  4.226273  0  1.610248  0  0.206526  0.599293  0  4.239691  0
C  C93  1  0.93545249  0.32904884  0.87856716  1  0  0.669934  0  3.949544  0  0  0.620477  0  4.236639  0  0  0.656108  0  4.228165  0  1.610914  0  0.204711  0.596278  0  4.241524  0
C  C94  1  0.32887720  0.93534579  0.37850319  1  0  0.673216  0  3.947215  0  0  0.623414  0  4.234871  0  0  0.659048  0  4.226361  0  1.610056  0  0.206473  0.599213  0  4.239782  0
C  C95  1  0.06454557  0.67095257  0.12143256  1  0  0.669897  0  3.949515  0  0  0.620437  0  4.236604  0  0  0.656068  0  4.22813  0  1.610899  0  0.204732  0.59624  0  4.241489  0
C  C96  1  0.07497040  0.42909209  0.54622268  1  0  -0.116686  0  3.768226  0  0  -0.136191  0  4.011764  0  0  -0.138868  0  4.033982  0  -0.103472  0  -0.096744  -0.134758  0  3.997329  0
C  C97  1  0.57117062  0.92541410  0.95366766  1  0  -0.116025  0  3.766703  0  0  -0.135706  0  4.010457  0  0  -0.138338  0  4.032649  0  -0.104216  0  -0.0968  -0.134242  0  3.996004  0
C  C98  1  0.92502828  0.57090748  0.45377771  1  0  -0.116732  0  3.768277  0  0  -0.136205  0  4.011865  0  0  -0.138884  0  4.034083  0  -0.103504  0  -0.096788  -0.134778  0  3.99743  0
C  C99  1  0.42883159  0.07458454  0.04633275  1  0  -0.115872  0  3.76669  0  0  -0.135549  0  4.010435  0  0  -0.13818  0  4.032626  0  -0.104299  0  -0.096754  -0.134086  0  3.995979  0
C  C100  1  0.05373404  0.60141602  0.45057268  1  0  -0.113166  0  3.764096  0  0  -0.127958  0  4.003545  0  0  -0.131085  0  4.026705  0  0.001687  0  -0.0933  -0.125541  0  3.988223  0
C  C101  1  0.39826490  0.94642571  0.04948137  1  0  -0.113317  0  3.762632  0  0  -0.12819  0  4.002353  0  0  -0.131258  0  4.025575  0  -0.006782  0  -0.093029  -0.125807  0  3.986987  0
C  C102  1  0.94626310  0.39858539  0.54942907  1  0  -0.113218  0  3.764127  0  0  -0.127939  0  4.003604  0  0  -0.131065  0  4.02676  0  0.0017  0  -0.093323  -0.125524  0  3.988284  0
C  C103  1  0.60173745  0.05357386  0.95051973  1  0  -0.113177  0  3.762526  0  0  -0.12805  0  4.00223  0  0  -0.131118  0  4.025453  0  -0.00672  0  -0.09299  -0.125668  0  3.986863  0
S  S104  1  0.75553826  0.24423633  0.74996040  1  0  0.148914  0  2.643135  0  0  0.14084  0  2.965175  0  0  0.142679  0  2.969531  0  0.247175  0  0.097876  0.138998  0  2.962748  0
S  S105  1  0.24446042  0.75576324  0.25003932  1  0  0.148877  0  2.64316  0  0  0.140791  0  2.965202  0  0  0.142632  0  2.969556  0  0.247221  0  0.097861  0.13895  0  2.962775  0
S  S106  1  0.26507542  0.73490670  0.74984542  1  0  0.14868  0  2.645651  0  0  0.14086  0  2.960658  0  0  0.1421  0  2.966476  0  0.248383  0  0.094704  0.139582  0  2.956974  0
S  S107  1  0.73492567  0.26509656  0.25015434  1  0  0.148748  0  2.645657  0  0  0.140919  0  2.960646  0  0  0.142156  0  2.966468  0  0.248378  0  0.094729  0.139642  0  2.956965  0
N  N108  1  0.40806331  0.29389290  0.53023098  1  0  -0.418966  0  3.205092  0  0  -0.346253  0  3.493893  0  0  -0.367659  0  3.505012  0  -1.219448  0  -0.353808  -0.331793  0  3.485985  0
N  N109  1  0.70560636  0.59151295  0.96994099  1  0  -0.41748  0  3.206876  0  0  -0.345196  0  3.496207  0  0  -0.366617  0  3.50728  0  -1.219384  0  -0.35398  -0.330737  0  3.488364  0
N  N110  1  0.59193643  0.70610759  0.46976943  1  0  -0.419051  0  3.205139  0  0  -0.346257  0  3.493898  0  0  -0.367661  0  3.505019  0  -1.219439  0  -0.35384  -0.331799  0  3.485992  0
N  N111  1  0.29439141  0.40848662  0.03006075  1  0  -0.417493  0  3.206842  0  0  -0.345311  0  3.496298  0  0  -0.366729  0  3.507364  0  -1.218932  0  -0.353999  -0.330852  0  3.488458  0
N  N112  1  0.33682257  0.47076455  0.52345412  1  0  -0.113567  0  3.546901  0  0  -0.023781  0  3.764176  0  0  -0.039545  0  3.790317  0  -1.215789  0  -0.24097  -0.013051  0  3.746183  0
N  N113  1  0.52893113  0.66423853  0.97638422  1  0  -0.107646  0  3.540708  0  0  -0.018204  0  3.757223  0  0  -0.033942  0  3.783393  0  -1.226013  0  -0.238534  -0.007471  0  3.739205  0
N  N114  1  0.66317598  0.52923410  0.47654559  1  0  -0.113601  0  3.546965  0  0  -0.023799  0  3.76426  0  0  -0.039561  0  3.790401  0  -1.215919  0  -0.240968  -0.013069  0  3.746268  0
N  N115  1  0.47106833  0.33576011  0.02361550  1  0  -0.107765  0  3.540642  0  0  -0.018287  0  3.757133  0  0  -0.034026  0  3.783304  0  -1.225961  0  -0.238512  -0.007547  0  3.739119  0
O  O116  1  0.34728699  0.02357206  0.59817177  1  0  -0.621283  0  2.065444  0  0  -0.555914  0  2.317289  0  0  -0.583699  0  2.302984  0  -1.169482  0  -0.315953  -0.536552  0  2.326479  0
O  O117  1  0.97559336  0.65217190  0.90174899  1  0  -0.619462  0  2.067663  0  0  -0.554036  0  2.319129  0  0  -0.581852  0  2.304989  0  -1.166738  0  -0.31455  -0.534652  0  2.328205  0
O  O118  1  0.65271333  0.97643213  0.40182799  1  0  -0.621277  0  2.065607  0  0  -0.555898  0  2.317455  0  0  -0.58368  0  2.303149  0  -1.170078  0  -0.315959  -0.536539  0  2.326642  0
O  O119  1  0.02440807  0.34782766  0.09825007  1  0  -0.619536  0  2.06752  0  0  -0.55412  0  2.318997  0  0  -0.581937  0  2.304853  0  -1.166726  0  -0.314596  -0.534735  0  2.328075  0
O  O120  1  0.59950835  0.14060439  0.59806411  1  0  -0.648191  0  2.076788  0  0  -0.585569  0  2.344033  0  0  -0.613109  0  2.329317  0  -1.179056  0  -0.32177  -0.566384  0  2.353512  0
O  O121  1  0.85904241  0.40030221  0.90186815  1  0  -0.647409  0  2.076278  0  0  -0.584961  0  2.343249  0  0  -0.612497  0  2.32855  0  -1.180535  0  -0.321394  -0.565798  0  2.352766  0
O  O122  1  0.40049063  0.85939703  0.40193698  1  0  -0.648164  0  2.076767  0  0  -0.585506  0  2.344026  0  0  -0.613043  0  2.329309  0  -1.179078  0  -0.321749  -0.566317  0  2.353494  0
O  O123  1  0.14095734  0.59969828  0.09813023  1  0  -0.647452  0  2.076197  0  0  -0.584977  0  2.343136  0  0  -0.612514  0  2.328435  0  -1.180492  0  -0.321402  -0.565812  0  2.352653  0
O  O124  1  0.67061474  0.95537714  0.59190568  1  0  -0.618573  0  2.054119  0  0  -0.552024  0  2.305776  0  0  -0.580378  0  2.292484  0  -1.160688  0  -0.31312  -0.532266  0  2.314192  0
O  O125  1  0.04524509  0.32993863  0.90820394  1  0  -0.616393  0  2.055878  0  0  -0.549937  0  2.307179  0  0  -0.57833  0  2.294039  0  -1.161493  0  -0.311443  -0.530135  0  2.315468  0
O  O126  1  0.32938592  0.04462335  0.40809473  1  0  -0.618625  0  2.054203  0  0  -0.552035  0  2.305875  0  0  -0.580389  0  2.292582  0  -1.160451  0  -0.313109  -0.532274  0  2.314289  0
O  O127  1  0.95475706  0.67006555  0.09179516  1  0  -0.616363  0  2.055943  0  0  -0.54989  0  2.307218  0  0  -0.578283  0  2.294082  0  -1.161524  0  -0.311453  -0.530089  0  2.315507  0
O  O128  1  0.41745216  0.83770793  0.59730706  1  0  -0.649528  0  2.063364  0  0  -0.587715  0  2.328424  0  0  -0.615098  0  2.31327  0  -1.178142  0  -0.326387  -0.568623  0  2.338213  0
O  O129  1  0.16243667  0.58270181  0.90247805  1  0  -0.648582  0  2.061311  0  0  -0.586645  0  2.326335  0  0  -0.614015  0  2.311175  0  -1.176486  0  -0.325918  -0.567566  0  2.336137  0
O  O130  1  0.58254956  0.16229348  0.40269337  1  0  -0.649542  0  2.063288  0  0  -0.587747  0  2.328376  0  0  -0.615128  0  2.31322  0  -1.178048  0  -0.326413  -0.568654  0  2.338165  0
O  O131  1  0.83756582  0.41729868  0.09752170  1  0  -0.648619  0  2.061387  0  0  -0.586656  0  2.326396  0  0  -0.614026  0  2.311235  0  -1.176488  0  -0.325915  -0.567579  0  2.336198  0
