# generated using pymatgen
data_CdH10C12S2N4O
_symmetry_space_group_name_H-M   'P 1'
_cell_length_a   7.54155881
_cell_length_b   11.42777173
_cell_length_c   16.52090198
_cell_angle_alpha   98.09166352
_cell_angle_beta   89.99919094
_cell_angle_gamma   90.00023108
_symmetry_Int_Tables_number   1
_chemical_formula_structural   CdH10C12S2N4O
_chemical_formula_sum   'Cd4 H40 C48 S8 N16 O4'
_cell_volume   1409.64902194
_cell_formula_units_Z   4
loop_
 _symmetry_equiv_pos_site_id
 _symmetry_equiv_pos_as_xyz
  1  'x, y, z'
loop_
 _atom_site_type_symbol
 _atom_site_label
 _atom_site_symmetry_multiplicity
 _atom_site_fract_x
 _atom_site_fract_y
 _atom_site_fract_z
 _atom_site_occupancy
 _atom_site_hle17_bader_spin_density
 _atom_site_hle17_ddec_charge
 _atom_site_hle17_ddec_spin_density
 _atom_site_hle17_ddec_sum_bond_order
 _atom_site_hle17_magmom
 _atom_site_hse06_10hf_bader_charge
 _atom_site_hse06_10hf_bader_spin_density
 _atom_site_hse06_10hf_ddec_charge
 _atom_site_hse06_10hf_ddec_spin_density
 _atom_site_hse06_10hf_ddec_sum_bond_order
 _atom_site_hse06_10hf_magmom
 _atom_site_hse06_bader_spin_density
 _atom_site_hse06_ddec_charge
 _atom_site_hse06_ddec_spin_density
 _atom_site_hse06_ddec_sum_bond_order
 _atom_site_hse06_magmom
 _atom_site_pbe_bader_spin_density
 _atom_site_pbe_cm5_charge
 _atom_site_pbe_ddec_charge
 _atom_site_pbe_ddec_spin_density
 _atom_site_pbe_ddec_sum_bond_order
 _atom_site_pbe_magmom
Cd  Cd0  1  0.17989698  0.49013316  0.23623716  1  0  1.004518  0  1.917862  0  1.186967  0  0.830787  0  2.397478  0  0  0.875983  0  2.355214  0  0  0.710267  0.800036  0  2.424767  0
Cd  Cd1  1  0.67991681  0.00987407  0.76376333  1  0  1.004447  0  1.917904  0  1.186949  0  0.830706  0  2.39752  0  0  0.875894  0  2.355262  0  0  0.710245  0.799955  0  2.424812  0
Cd  Cd2  1  0.82009883  0.50987458  0.76376088  1  0  1.004473  0  1.917932  0  1.187058  0  0.83076  0  2.397517  0  0  0.875954  0  2.355259  0  0  0.710277  0.800011  0  2.424813  0
Cd  Cd3  1  0.32009095  0.99014164  0.23623666  1  0  1.004441  0  1.917949  0  1.187083  0  0.830722  0  2.397564  0  0  0.875917  0  2.355304  0  0  0.710302  0.79997  0  2.424852  0
H  H4  1  0.67590536  0.12999407  0.19924615  1  0  0.319667  0  0.934273  0  0.598407  0  0.292277  0  1.009065  0  0  0.301636  0  1.001354  0  0  0.315393  0.285186  0  1.015161  0
H  H5  1  0.17590876  0.36999729  0.80075712  1  0  0.319564  0  0.934423  0  0.598294  0  0.292208  0  1.009171  0  0  0.301565  0  1.001469  0  0  0.315349  0.285118  0  1.015266  0
H  H6  1  0.32410107  0.87000043  0.80075186  1  0  0.319627  0  0.93431  0  0.598463  0  0.29225  0  1.009078  0  0  0.301608  0  1.001369  0  0  0.315384  0.285159  0  1.015174  0
H  H7  1  0.82409236  0.62999814  0.19924583  1  0  0.31973  0  0.934227  0  0.598454  0  0.292371  0  1.008967  0  0  0.301727  0  1.001257  0  0  0.315418  0.285282  0  1.015062  0
H  H8  1  0.71477700  0.40952699  0.05458036  1  0  0.150558  0  0.971915  0  0.106815  0  0.156888  0  1.035979  0  0  0.160705  0  1.035505  0  0  0.102234  0.154116  0  1.036571  0
H  H9  1  0.21477967  0.09046623  0.94542586  1  0  0.150457  0  0.971983  0  0.106725  0  0.156845  0  1.035992  0  0  0.160675  0  1.035484  0  0  0.102187  0.154072  0  1.036583  0
H  H10  1  0.28522412  0.59047021  0.94542275  1  0  0.150514  0  0.97181  0  0.106799  0  0.156868  0  1.03586  0  0  0.160696  0  1.035359  0  0  0.102238  0.154098  0  1.036452  0
H  H11  1  0.78522676  0.90952388  0.05457477  1  0  0.150504  0  0.971953  0  0.106815  0  0.156882  0  1.035974  0  0  0.1607  0  1.035497  0  0  0.102232  0.154111  0  1.036567  0
H  H12  1  0.68284456  0.11189361  0.00023821  1  0  0.123893  0  0.949484  0  0.076382  0  0.140461  0  1.016351  0  0  0.143005  0  1.015171  0  0  0.090831  0.138639  0  1.017258  0
H  H13  1  0.18283406  0.38810132  0.99976777  1  0  0.12392  0  0.949481  0  0.076392  0  0.140467  0  1.016377  0  0  0.143016  0  1.015192  0  0  0.090838  0.138649  0  1.017278  0
H  H14  1  0.31716716  0.88810706  0.99975856  1  0  0.123919  0  0.949499  0  0.07646  0  0.140482  0  1.016366  0  0  0.143026  0  1.015185  0  0  0.090845  0.138668  0  1.017265  0
H  H15  1  0.81715380  0.61188970  0.00023537  1  0  0.123823  0  0.949528  0  0.076294  0  0.140377  0  1.016405  0  0  0.142925  0  1.015223  0  0  0.09079  0.138556  0  1.017309  0
H  H16  1  0.49578799  0.20514045  0.00208381  1  0  0.13006  0  0.945883  0  0.048106  0  0.150978  0  1.001936  0  0  0.152162  0  1.003087  0  0  0.096388  0.150101  0  1.00118  0
H  H17  1  0.99578113  0.29485052  0.99791915  1  0  0.130077  0  0.945735  0  0.047894  0  0.150949  0  1.001867  0  0  0.152133  0  1.00302  0  0  0.096375  0.150073  0  1.00111  0
H  H18  1  0.50421844  0.79486465  0.99791338  1  0  0.130073  0  0.945824  0  0.048124  0  0.150978  0  1.001898  0  0  0.152162  0  1.00305  0  0  0.096378  0.1501  0  1.00115  0
H  H19  1  0.00420938  0.70513340  0.00208091  1  0  0.13009  0  0.945847  0  0.04816  0  0.150984  0  1.001934  0  0  0.152168  0  1.003087  0  0  0.096374  0.150103  0  1.001181  0
H  H20  1  0.50226147  0.09239017  0.06641221  1  0  0.11692  0  0.96166  0  0.054955  0  0.133756  0  1.028401  0  0  0.13584  0  1.027746  0  0  0.091561  0.13214  0  1.029071  0
H  H21  1  0.00226105  0.40760004  0.93359088  1  0  0.117002  0  0.961583  0  0.054811  0  0.133848  0  1.028313  0  0  0.135932  0  1.027657  0  0  0.091599  0.132226  0  1.02899  0
H  H22  1  0.49773965  0.90760606  0.93358112  1  0  0.116927  0  0.961703  0  0.055046  0  0.13377  0  1.028424  0  0  0.135854  0  1.027769  0  0  0.091572  0.132165  0  1.029084  0
H  H23  1  0.99773344  0.59239184  0.06641053  1  0  0.116942  0  0.961678  0  0.054535  0  0.133799  0  1.02839  0  0  0.135884  0  1.027734  0  0  0.09157  0.132173  0  1.029072  0
H  H24  1  0.74656720  0.48058070  0.34993222  1  0  0.10423  0  0.980777  0  0.13072  0  0.111951  0  1.048498  0  0  0.114916  0  1.047011  0  0  0.099726  0.109731  0  1.049805  0
H  H25  1  0.24657844  0.01942051  0.65007392  1  0  0.104214  0  0.980797  0  0.130781  0  0.111865  0  1.048623  0  0  0.11482  0  1.047142  0  0  0.09969  0.109649  0  1.049929  0
H  H26  1  0.25343127  0.51941734  0.65006673  1  0  0.104241  0  0.980757  0  0.13078  0  0.111947  0  1.048508  0  0  0.114907  0  1.047021  0  0  0.099754  0.109729  0  1.049816  0
H  H27  1  0.75342135  0.98057753  0.34992442  1  0  0.104228  0  0.980778  0  0.130694  0  0.111878  0  1.04859  0  0  0.114833  0  1.04711  0  0  0.099692  0.109669  0  1.049904  0
H  H28  1  0.83245837  0.47617830  0.49409033  1  0  0.085708  0  0.978754  0  0.087502  0  0.095624  0  1.042094  0  0  0.098233  0  1.041454  0  0  0.091656  0.093728  0  1.042628  0
H  H29  1  0.33245547  0.02382476  0.50591119  1  0  0.085819  0  0.978758  0  0.087595  0  0.095629  0  1.042187  0  0  0.098272  0  1.041511  0  0  0.091656  0.093741  0  1.0427  0
H  H30  1  0.16754540  0.52382858  0.50590944  1  0  0.085825  0  0.978743  0  0.087582  0  0.095648  0  1.042156  0  0  0.098269  0  1.041504  0  0  0.091686  0.093764  0  1.04267  0
H  H31  1  0.66754433  0.97617416  0.49408724  1  0  0.085838  0  0.978744  0  0.087635  0  0.095632  0  1.042178  0  0  0.098291  0  1.041486  0  0  0.091671  0.093743  0  1.042698  0
H  H32  1  0.96226193  0.29326692  0.53602020  1  0  0.094822  0  0.961005  0  0.086344  0  0.107221  0  1.017982  0  0  0.10937  0  1.018087  0  0  0.097781  0.105707  0  1.017874  0
H  H33  1  0.46225209  0.20673899  0.46398073  1  0  0.094733  0  0.961058  0  0.086401  0  0.10713  0  1.018038  0  0  0.109281  0  1.01814  0  0  0.097722  0.105596  0  1.017958  0
H  H34  1  0.03774317  0.70673999  0.46398199  1  0  0.094809  0  0.961072  0  0.086374  0  0.107212  0  1.018037  0  0  0.109362  0  1.018141  0  0  0.097786  0.105705  0  1.017922  0
H  H35  1  0.53774373  0.79325994  0.53601951  1  0  0.094835  0  0.961002  0  0.086367  0  0.107236  0  1.017963  0  0  0.109386  0  1.018068  0  0  0.097808  0.105706  0  1.017888  0
H  H36  1  0.00063155  0.11446421  0.43296773  1  0  0.085132  0  0.970907  0  0.084344  0  0.096303  0  1.03246  0  0  0.098889  0  1.031739  0  0  0.09103  0.094405  0  1.033158  0
H  H37  1  0.50062905  0.38553657  0.56703332  1  0  0.085139  0  0.970929  0  0.084335  0  0.096308  0  1.03248  0  0  0.098893  0  1.031759  0  0  0.09104  0.094416  0  1.033173  0
H  H38  1  0.99936692  0.88553651  0.56703510  1  0  0.08512  0  0.970911  0  0.084411  0  0.096295  0  1.03246  0  0  0.09888  0  1.031741  0  0  0.091033  0.094402  0  1.033158  0
H  H39  1  0.49936809  0.61446413  0.43296648  1  0  0.085104  0  0.970938  0  0.084337  0  0.096273  0  1.032494  0  0  0.098857  0  1.031773  0  0  0.091024  0.094375  0  1.033189  0
H  H40  1  0.92062130  0.11968518  0.28740005  1  0  0.090469  0  0.979695  0  0.09025  0  0.094056  0  1.058144  0  0  0.097364  0  1.056173  0  0  0.094553  0.09167  0  1.059602  0
H  H41  1  0.42063009  0.38031715  0.71260325  1  0  0.090513  0  0.97954  0  0.090753  0  0.094074  0  1.058032  0  0  0.097387  0  1.056055  0  0  0.094547  0.091691  0  1.059491  0
H  H42  1  0.07937585  0.88031201  0.71260245  1  0  0.090484  0  0.979684  0  0.090298  0  0.094086  0  1.058115  0  0  0.097396  0  1.056144  0  0  0.094565  0.091703  0  1.059574  0
H  H43  1  0.57936705  0.61968091  0.28739752  1  0  0.09049  0  0.979526  0  0.090693  0  0.093996  0  1.058121  0  0  0.097305  0  1.056148  0  0  0.09452  0.091609  0  1.059577  0
C  C44  1  0.15954899  0.20587793  0.14348280  1  0  0.320997  0  3.971783  0  0.615979  0  0.29902  0  4.270603  0  0  0.320456  0  4.286209  0  0  0.158202  0.284526  0  4.259302  0
C  C45  1  0.65955173  0.29413012  0.85651245  1  0  0.321021  0  3.97194  0  0.615821  0  0.299049  0  4.270731  0  0  0.320483  0  4.286336  0  0  0.158216  0.284554  0  4.259421  0
C  C46  1  0.84044418  0.79412712  0.85650954  1  0  0.320979  0  3.971883  0  0.616287  0  0.299008  0  4.27067  0  0  0.32044  0  4.286275  0  0  0.158204  0.284522  0  4.259365  0
C  C47  1  0.34044939  0.70589618  0.14348610  1  0  0.320953  0  3.972145  0  0.616657  0  0.298966  0  4.270971  0  0  0.320402  0  4.286576  0  0  0.158157  0.284473  0  4.259672  0
C  C48  1  0.14958707  0.77579039  0.32612456  1  0  0.330202  0  3.966204  0  0.628788  0  0.304783  0  4.270321  0  0  0.326948  0  4.284997  0  0  0.164541  0.289978  0  4.260178  0
C  C49  1  0.64959894  0.72421677  0.67387567  1  0  0.330108  0  3.966142  0  0.628905  0  0.304683  0  4.270287  0  0  0.326847  0  4.284963  0  0  0.164467  0.289884  0  4.260137  0
C  C50  1  0.85041405  0.22421389  0.67388042  1  0  0.330126  0  3.965964  0  0.629022  0  0.304703  0  4.270104  0  0  0.326869  0  4.284781  0  0  0.164476  0.289905  0  4.259953  0
C  C51  1  0.35040351  0.27578221  0.32612942  1  0  0.330164  0  3.965738  0  0.628775  0  0.304736  0  4.269878  0  0  0.326905  0  4.284557  0  0  0.16448  0.289935  0  4.259722  0
C  C52  1  0.79806814  0.39765253  0.18244742  1  0  0.463617  0  3.87945  0  1.112141  0  0.41128  0  4.173954  0  0  0.437664  0  4.178819  0  0  0.191385  0.393587  0  4.170096  0
C  C53  1  0.29807875  0.10234609  0.81755693  1  0  0.463389  0  3.879489  0  1.112871  0  0.411086  0  4.173944  0  0  0.437465  0  4.178816  0  0  0.191301  0.393388  0  4.170088  0
C  C54  1  0.20192768  0.60234290  0.81755552  1  0  0.463425  0  3.879682  0  1.112839  0  0.41116  0  4.174081  0  0  0.437545  0  4.178948  0  0  0.191376  0.393465  0  4.170223  0
C  C55  1  0.70191839  0.89765018  0.18244185  1  0  0.463416  0  3.879276  0  1.113093  0  0.411139  0  4.173713  0  0  0.437522  0  4.17858  0  0  0.191313  0.393443  0  4.169857  0
C  C56  1  0.66487093  0.24326337  0.10579025  1  0  0.330152  0  3.742918  0  0.443524  0  0.316053  0  4.012324  0  0  0.331602  0  4.02683  0  0  0.11708  0.305979  0  4.002143  0
C  C57  1  0.16487613  0.25672623  0.89421535  1  0  0.329849  0  3.743402  0  0.443706  0  0.316082  0  4.012352  0  0  0.331642  0  4.026844  0  0  0.117193  0.306011  0  4.00217  0
C  C58  1  0.33513152  0.75673024  0.89420707  1  0  0.330072  0  3.743358  0  0.443524  0  0.316147  0  4.012508  0  0  0.331719  0  4.026982  0  0  0.117177  0.306073  0  4.002333  0
C  C59  1  0.83512764  0.74326301  0.10578642  1  0  0.330009  0  3.743296  0  0.443455  0  0.316063  0  4.012511  0  0  0.331638  0  4.026972  0  0  0.117049  0.305988  0  4.002329  0
C  C60  1  0.72299852  0.35888168  0.10512323  1  0  -0.402741  0  3.702433  0  0.028918  0  -0.42536  0  3.967776  0  0  -0.440862  0  3.983253  0  0  -0.137248  -0.415084  0  3.957196  0
C  C61  1  0.22299507  0.14111592  0.89487850  1  0  -0.402431  0  3.702875  0  0.028857  0  -0.425234  0  3.96807  0  0  -0.440736  0  3.983551  0  0  -0.137203  -0.414958  0  3.957486  0
C  C62  1  0.27700923  0.64112255  0.89487630  1  0  -0.402543  0  3.702849  0  0.028912  0  -0.425265  0  3.968092  0  0  -0.440772  0  3.983568  0  0  -0.137211  -0.414985  0  3.957507  0
C  C63  1  0.77700075  0.85887505  0.10511919  1  0  -0.402602  0  3.702609  0  0.028832  0  -0.425341  0  3.967872  0  0  -0.440849  0  3.983345  0  0  -0.137206  -0.415061  0  3.957294  0
C  C64  1  0.58150960  0.15850128  0.04048541  1  0  -0.361383  0  3.693875  0  -0.011618  0  -0.43365  0  3.922831  0  0  -0.437716  0  3.928171  0  0  -0.235998  -0.430604  0  3.919081  0
C  C65  1  0.08150668  0.34149084  0.95951916  1  0  -0.361409  0  3.69379  0  -0.011167  0  -0.433754  0  3.922695  0  0  -0.437827  0  3.928025  0  0  -0.236091  -0.43071  0  3.918947  0
C  C66  1  0.41849550  0.84149939  0.95951076  1  0  -0.361469  0  3.693808  0  -0.011736  0  -0.433804  0  3.922773  0  0  -0.437876  0  3.928104  0  0  -0.236086  -0.430771  0  3.919012  0
C  C67  1  0.91848251  0.65850017  0.04048338  1  0  -0.361319  0  3.694123  0  -0.011184  0  -0.4336  0  3.922966  0  0  -0.437682  0  3.928292  0  0  -0.235915  -0.430541  0  3.919226  0
C  C68  1  0.82757042  0.30042941  0.31027784  1  0  0.158092  0  3.796835  0  0.250418  0  0.150138  0  4.049821  0  0  0.155009  0  4.072261  0  0  0.086962  0.146819  0  4.034902  0
C  C69  1  0.32758947  0.19957368  0.68972734  1  0  0.158039  0  3.796858  0  0.250188  0  0.15028  0  4.049557  0  0  0.155157  0  4.07199  0  0  0.087042  0.146962  0  4.034651  0
C  C70  1  0.17242274  0.69957043  0.68972490  1  0  0.158107  0  3.796747  0  0.250369  0  0.150215  0  4.049633  0  0  0.15509  0  4.072067  0  0  0.087  0.146899  0  4.034719  0
C  C71  1  0.67241033  0.80042612  0.31027117  1  0  0.157999  0  3.796821  0  0.25013  0  0.150204  0  4.049551  0  0  0.155079  0  4.071986  0  0  0.087042  0.146884  0  4.03464  0
C  C72  1  0.80308683  0.40099440  0.36825059  1  0  -0.149146  0  3.758533  0  -0.014124  0  -0.172345  0  4.013151  0  0  -0.175245  0  4.032937  0  0  -0.096537  -0.170257  0  3.999812  0
C  C73  1  0.30310573  0.09900335  0.63175426  1  0  -0.149063  0  3.75857  0  -0.014323  0  -0.172275  0  4.013112  0  0  -0.175165  0  4.032896  0  0  -0.096502  -0.170182  0  3.99976  0
C  C74  1  0.19690766  0.59900367  0.63175139  1  0  -0.149101  0  3.75847  0  -0.014368  0  -0.172318  0  4.013041  0  0  -0.175208  0  4.032818  0  0  -0.096519  -0.170236  0  3.999713  0
C  C75  1  0.69689937  0.90099469  0.36824530  1  0  -0.149165  0  3.758469  0  -0.013993  0  -0.172366  0  4.013043  0  0  -0.175257  0  4.032831  0  0  -0.096579  -0.170287  0  3.999707  0
C  C76  1  0.85152518  0.39770836  0.44921272  1  0  -0.059321  0  3.779852  0  -0.131136  0  -0.068986  0  4.024475  0  0  -0.070802  0  4.045536  0  0  -0.092693  -0.067577  0  4.010026  0
C  C77  1  0.35153197  0.10229478  0.55079292  1  0  -0.059399  0  3.780258  0  -0.130913  0  -0.06897  0  4.024857  0  0  -0.070816  0  4.04591  0  0  -0.092664  -0.067555  0  4.010391  0
C  C78  1  0.14847329  0.60229415  0.55079149  1  0  -0.059417  0  3.780039  0  -0.131003  0  -0.068994  0  4.024646  0  0  -0.07082  0  4.045702  0  0  -0.092732  -0.067578  0  4.010184  0
C  C79  1  0.64847180  0.89770415  0.44920611  1  0  -0.059395  0  3.780182  0  -0.131157  0  -0.068941  0  4.024776  0  0  -0.070797  0  4.045821  0  0  -0.092672  -0.067531  0  4.010324  0
C  C80  1  0.92306145  0.29497795  0.47276996  1  0  -0.068682  0  3.751717  0  0.029067  0  -0.085555  0  3.999348  0  0  -0.087344  0  4.020948  0  0  -0.092856  -0.08423  0  3.984551  0
C  C81  1  0.42305365  0.20502083  0.52723057  1  0  -0.068578  0  3.751724  0  0.029138  0  -0.085443  0  3.999302  0  0  -0.087233  0  4.020912  0  0  -0.092805  -0.084099  0  3.984507  0
C  C82  1  0.07694232  0.70502098  0.52722968  1  0  -0.068702  0  3.751749  0  0.029106  0  -0.085577  0  3.999344  0  0  -0.087367  0  4.020947  0  0  -0.092865  -0.084247  0  3.98454  0
C  C83  1  0.57694747  0.79497811  0.47276967  1  0  -0.068701  0  3.751705  0  0.029134  0  -0.08557  0  3.999299  0  0  -0.087363  0  4.020913  0  0  -0.092884  -0.084243  0  3.984506  0
C  C84  1  0.94501109  0.19479840  0.41474710  1  0  -0.05446  0  3.771335  0  -0.070181  0  -0.064263  0  4.014835  0  0  -0.066346  0  4.037171  0  0  -0.092444  -0.062783  0  3.999741  0
C  C85  1  0.44501271  0.30520574  0.58525560  1  0  -0.054549  0  3.771454  0  -0.0702  0  -0.064365  0  4.014976  0  0  -0.066447  0  4.03731  0  0  -0.092484  -0.062882  0  3.999877  0
C  C86  1  0.05499003  0.80520586  0.58525545  1  0  -0.054436  0  3.771391  0  -0.070274  0  -0.064251  0  4.01491  0  0  -0.066334  0  4.037245  0  0  -0.092449  -0.062768  0  3.999813  0
C  C87  1  0.55498575  0.69479585  0.41474429  1  0  -0.054548  0  3.771454  0  -0.070165  0  -0.06436  0  4.014966  0  0  -0.06644  0  4.037299  0  0  -0.092515  -0.062876  0  3.999865  0
C  C88  1  0.89892372  0.19689897  0.33317718  1  0  -0.146237  0  3.737747  0  -0.003789  0  -0.166676  0  3.990701  0  0  -0.17046  0  4.011745  0  0  -0.096962  -0.164136  0  3.976662  0
C  C89  1  0.39893346  0.30309802  0.66682454  1  0  -0.146203  0  3.737947  0  -0.004347  0  -0.166686  0  3.990845  0  0  -0.170472  0  4.011886  0  0  -0.096942  -0.164143  0  3.976811  0
C  C90  1  0.10107475  0.80309730  0.66682160  1  0  -0.146317  0  3.738029  0  -0.003809  0  -0.166791  0  3.990963  0  0  -0.170576  0  4.012005  0  0  -0.096991  -0.164251  0  3.976926  0
C  C91  1  0.60106236  0.69690090  0.33317388  1  0  -0.146107  0  3.737787  0  -0.004268  0  -0.166556  0  3.990684  0  0  -0.170342  0  4.011728  0  0  -0.096874  -0.164011  0  3.97664  0
S  S92  1  0.11949087  0.06425937  0.12195638  1  0  -0.333438  0  2.170931  0  0.057995  0  -0.292972  0  2.505353  0  0  -0.311378  0  2.498033  0  0  -0.122441  -0.279865  0  2.509818  0
S  S93  1  0.61948451  0.43574951  0.87804042  1  0  -0.333431  0  2.170789  0  0.05778  0  -0.292989  0  2.505241  0  0  -0.31139  0  2.497915  0  0  -0.122428  -0.279878  0  2.5097  0
S  S94  1  0.88051423  0.93574657  0.87803725  1  0  -0.333413  0  2.170782  0  0.057465  0  -0.292968  0  2.505248  0  0  -0.311371  0  2.497921  0  0  -0.122391  -0.279843  0  2.509706  0
S  S95  1  0.38050733  0.56427243  0.12196378  1  0  -0.333562  0  2.170647  0  0.057965  0  -0.293051  0  2.505023  0  0  -0.311457  0  2.497702  0  0  -0.122493  -0.279928  0  2.509482  0
S  S96  1  0.17184361  0.91600253  0.36129462  1  0  -0.312069  0  2.213902  0  0.08821  0  -0.268041  0  2.555528  0  0  -0.287799  0  2.549395  0  0  -0.105437  -0.25516  0  2.559093  0
S  S97  1  0.67184646  0.58400290  0.63870652  1  0  -0.312026  0  2.213919  0  0.088348  0  -0.268  0  2.555544  0  0  -0.287766  0  2.54943  0  0  -0.105411  -0.255109  0  2.559105  0
S  S98  1  0.82815883  0.08400434  0.63870394  1  0  -0.311991  0  2.214013  0  0.088257  0  -0.267969  0  2.555662  0  0  -0.287735  0  2.549552  0  0  -0.105384  -0.255084  0  2.559223  0
S  S99  1  0.32813875  0.41598895  0.36129065  1  0  -0.312001  0  2.214059  0  0.088625  0  -0.267959  0  2.55567  0  0  -0.287719  0  2.549548  0  0  -0.105369  -0.255074  0  2.559228  0
N  N100  1  0.18741467  0.30842883  0.15712217  1  0  -0.533006  0  2.883135  0  -1.309696  0  -0.472414  0  3.155172  0  0  -0.494568  0  3.163834  0  0  -0.385915  -0.457095  0  3.148771  0
N  N101  1  0.68740795  0.19158195  0.84287799  1  0  -0.533061  0  2.883443  0  -1.309266  0  -0.472465  0  3.155491  0  0  -0.494616  0  3.164153  0  0  -0.385944  -0.457141  0  3.149083  0
N  N102  1  0.81259175  0.69158068  0.84287603  1  0  -0.532984  0  2.883415  0  -1.309442  0  -0.472386  0  3.155454  0  0  -0.494536  0  3.164115  0  0  -0.385914  -0.457054  0  3.149049  0
N  N103  1  0.31257461  0.80843818  0.15712180  1  0  -0.532834  0  2.883679  0  -1.310282  0  -0.472216  0  3.155696  0  0  -0.49437  0  3.164357  0  0  -0.385785  -0.456887  0  3.149292  0
N  N104  1  0.12861133  0.67395361  0.30423405  1  0  -0.521522  0  2.874275  0  -1.321872  0  -0.462275  0  3.153694  0  0  -0.484104  0  3.159961  0  0  -0.384495  -0.447487  0  3.148462  0
N  N105  1  0.62862977  0.82605438  0.69576397  1  0  -0.52145  0  2.874182  0  -1.322075  0  -0.462173  0  3.15354  0  0  -0.483998  0  3.15981  0  0  -0.384429  -0.447382  0  3.148307  0
N  N106  1  0.87139111  0.32605590  0.69576294  1  0  -0.521496  0  2.87391  0  -1.322067  0  -0.462234  0  3.153304  0  0  -0.484061  0  3.159573  0  0  -0.38446  -0.44744  0  3.148068  0
N  N107  1  0.37138727  0.17393751  0.30423804  1  0  -0.521533  0  2.873775  0  -1.322192  0  -0.462254  0  3.153152  0  0  -0.484086  0  3.159425  0  0  -0.384504  -0.447459  0  3.147908  0
N  N108  1  0.77779020  0.30523069  0.22807469  1  0  -0.06996  0  3.474499  0  -0.835357  0  -0.000507  0  3.696349  0  0  -0.014938  0  3.720579  0  0  -0.137033  0.0089  0  3.680223  0
N  N109  1  0.27780407  0.19476703  0.77193032  1  0  -0.06995  0  3.474498  0  -0.835736  0  -0.000592  0  3.696297  0  0  -0.015027  0  3.720533  0  0  -0.137089  0.008816  0  3.680176  0
N  N110  1  0.22220561  0.69476384  0.77192696  1  0  -0.069845  0  3.474433  0  -0.836225  0  -0.00043  0  3.696217  0  0  -0.014861  0  3.720451  0  0  -0.137022  0.008973  0  3.680094  0
N  N111  1  0.72219705  0.80522838  0.22806959  1  0  -0.069804  0  3.474405  0  -0.836002  0  -0.000352  0  3.69612  0  0  -0.014788  0  3.720353  0  0  -0.136982  0.009054  0  3.679997  0
N  N112  1  0.69983463  0.21233077  0.17984128  1  0  -0.260845  0  3.340025  0  -0.874812  0  -0.216112  0  3.577111  0  0  -0.231089  0  3.592607  0  0  -0.278324  -0.206043  0  3.567189  0
N  N113  1  0.19984492  0.28766595  0.82016475  1  0  -0.2607  0  3.339956  0  -0.875045  0  -0.216064  0  3.57686  0  0  -0.231053  0  3.592368  0  0  -0.278296  -0.205996  0  3.566932  0
N  N114  1  0.30016649  0.78766374  0.82015795  1  0  -0.260856  0  3.340026  0  -0.874929  0  -0.216196  0  3.577036  0  0  -0.231188  0  3.592534  0  0  -0.278422  -0.206129  0  3.567116  0
N  N115  1  0.80015885  0.71233035  0.17983706  1  0  -0.26087  0  3.339878  0  -0.874867  0  -0.216261  0  3.576952  0  0  -0.231238  0  3.592426  0  0  -0.278384  -0.206191  0  3.567027  0
O  O116  1  0.87940528  0.49423881  0.21135293  1  0  -0.636231  0  2.130041  0  -1.233381  0  -0.562424  0  2.388326  0  0  -0.587144  0  2.377634  0  0  -0.341247  -0.544987  0  2.395599  0
O  O117  1  0.37942018  0.00575816  0.78865013  1  0  -0.636074  0  2.129884  0  -1.23349  0  -0.562245  0  2.388071  0  0  -0.586951  0  2.377369  0  0  -0.341209  -0.544805  0  2.395343  0
O  O118  1  0.12059054  0.50575663  0.78865122  1  0  -0.636098  0  2.130099  0  -1.23328  0  -0.562328  0  2.38833  0  0  -0.587051  0  2.377639  0  0  -0.341243  -0.544889  0  2.395603  0
O  O119  1  0.62058889  0.99423635  0.21134909  1  0  -0.636143  0  2.129963  0  -1.233514  0  -0.562403  0  2.388258  0  0  -0.587124  0  2.377568  0  0  -0.341272  -0.544958  0  2.395525  0
