# generated using pymatgen
data_CuH34C50(NO)6
_symmetry_space_group_name_H-M   'P 1'
_cell_length_a   7.02857855
_cell_length_b   10.90473828
_cell_length_c   13.76877694
_cell_angle_alpha   82.58130495
_cell_angle_beta   89.68290360
_cell_angle_gamma   73.36613366
_symmetry_Int_Tables_number   1
_chemical_formula_structural   CuH34C50(NO)6
_chemical_formula_sum   'Cu1 H34 C50 N6 O6'
_cell_volume   1002.13166541
_cell_formula_units_Z   1
loop_
 _symmetry_equiv_pos_site_id
 _symmetry_equiv_pos_as_xyz
  1  'x, y, z'
loop_
 _atom_site_type_symbol
 _atom_site_label
 _atom_site_symmetry_multiplicity
 _atom_site_fract_x
 _atom_site_fract_y
 _atom_site_fract_z
 _atom_site_occupancy
 _atom_site_hle17_ddec_charge
 _atom_site_hle17_ddec_spin_density
 _atom_site_hle17_ddec_sum_bond_order
 _atom_site_hle17_magmom
 _atom_site_hse06_10hf_ddec_charge
 _atom_site_hse06_10hf_ddec_spin_density
 _atom_site_hse06_10hf_ddec_sum_bond_order
 _atom_site_hse06_10hf_magmom
 _atom_site_hse06_ddec_charge
 _atom_site_hse06_ddec_spin_density
 _atom_site_hse06_ddec_sum_bond_order
 _atom_site_hse06_magmom
 _atom_site_pbe_cm5_charge
 _atom_site_pbe_ddec_charge
 _atom_site_pbe_ddec_spin_density
 _atom_site_pbe_ddec_sum_bond_order
 _atom_site_pbe_magmom
Cu  Cu0  1  0.49999902  0.99999963  0.00000011  1  0.844115  -0.696624  1.825845  -0.508  0.811527  -0.773161  2.216378  -0.615  0.900692  -0.838339  2.148532  -0.697  0.754531  0.758739  -0.728261  2.261309  -0.562
H  H1  1  0.14449461  0.03585131  0.92106565  1  0.380554  0.000213  0.916385  0.0  0.351211  0.000189  0.996539  0.0  0.363315  0.000217  0.983518  0.0  0.292011  0.34254  0.000145  1.005931  0.0
H  H2  1  0.85550966  0.96415264  0.07892919  1  0.380679  0.000213  0.916203  0.0  0.351329  0.000189  0.996355  0.0  0.363433  0.000217  0.983329  0.0  0.292064  0.342651  0.000145  1.005755  0.0
H  H3  1  0.28222227  0.89262385  0.48826193  1  0.111474  -7e-05  0.967621  0.0  0.117224  -2.6e-05  1.039629  0.0  0.121354  -1.7e-05  1.036629  0.0  0.10546  0.112825  -3.2e-05  1.044442  0.0
H  H4  1  0.71778048  0.10737719  0.51173757  1  0.111499  -7e-05  0.967561  0.0  0.11726  -2.6e-05  1.039554  0.0  0.12138  -1.7e-05  1.03658  0.0  0.105449  0.112855  -3.2e-05  1.044375  0.0
H  H5  1  0.20810927  0.53970329  0.63993509  1  0.101298  -4.1e-05  0.959779  0.0  0.112975  3e-06  1.020759  0.0  0.116486  5e-06  1.018774  0.0  0.104724  0.110386  1e-06  1.022508  0.0
H  H6  1  0.79188822  0.46029678  0.36006380  1  0.101286  -4.1e-05  0.959722  0.0  0.112968  3e-06  1.02071  0.0  0.116481  5e-06  1.018725  0.0  0.104722  0.110389  1e-06  1.022447  0.0
H  H7  1  0.35426660  0.98167588  0.36087904  1  0.109418  -0.000413  0.988891  0.0  0.112602  -0.000399  1.062198  0.0  0.116421  -0.000294  1.060216  0.0  0.10694  0.109765  -0.000483  1.064075  -0.001
H  H8  1  0.64574727  0.01831937  0.63912317  1  0.109397  -0.000414  0.988872  0.0  0.112529  -0.000399  1.062231  0.0  0.116349  -0.000294  1.060249  0.0  0.106991  0.109746  -0.000483  1.064056  -0.001
H  H9  1  0.43582853  0.07680804  0.19749257  1  0.083251  -0.000836  0.956527  -0.002  0.089832  -0.000653  1.023777  -0.001  0.091842  -0.000449  1.021601  -0.001  0.117611  0.088191  -0.000821  1.025535  -0.002
H  H10  1  0.56417651  0.92319107  0.80250856  1  0.083201  -0.000835  0.956535  -0.002  0.089809  -0.000652  1.023768  -0.001  0.091821  -0.000449  1.021587  -0.001  0.117603  0.088161  -0.000821  1.025534  -0.002
H  H11  1  0.41376041  0.75914371  0.06878633  1  0.087863  -0.000833  0.941804  -0.002  0.095234  -0.000704  1.005403  -0.001  0.097463  -0.000508  1.003073  -0.001  0.121131  0.093378  -0.000859  1.007323  -0.001
H  H12  1  0.58623196  0.24085829  0.93121384  1  0.087856  -0.000832  0.941782  -0.002  0.095206  -0.000704  1.005409  -0.001  0.097424  -0.000508  1.003092  -0.001  0.121113  0.093353  -0.000859  1.007331  -0.001
H  H13  1  0.33355967  0.64750898  0.22852888  1  0.105905  -0.000465  0.968207  -0.001  0.111563  -0.000438  1.036884  -0.001  0.115668  -0.000319  1.033615  0.0  0.106249  0.108381  -0.000537  1.039696  -0.001
H  H14  1  0.66643925  0.35249109  0.77147146  1  0.105886  -0.000465  0.968274  -0.001  0.111543  -0.000438  1.036957  -0.001  0.115648  -0.000319  1.033688  0.0  0.106237  0.108361  -0.000537  1.039768  -0.001
H  H15  1  0.21538244  0.35336871  0.63104985  1  0.103063  1.2e-05  0.942263  0.0  0.117754  7e-06  0.994757  0.0  0.120931  6e-06  0.993668  0.0  0.10706  0.115388  8e-06  0.995893  0.0
H  H16  1  0.78461960  0.64662751  0.36894941  1  0.103134  1.2e-05  0.942204  0.0  0.117763  7e-06  0.994771  0.0  0.120938  6e-06  0.993683  0.0  0.107064  0.115401  8e-06  0.995912  0.0
H  H17  1  0.22266115  0.13300650  0.60691292  1  0.061552  -2.9e-05  0.96736  0.0  0.071063  -9e-06  1.033349  0.0  0.072787  -1.2e-05  1.032717  0.0  0.105401  0.069897  -7e-06  1.033717  0.0
H  H18  1  0.77733947  0.86698972  0.39308562  1  0.061459  -2.9e-05  0.967459  0.0  0.070992  -9e-06  1.033435  0.0  0.072711  -1.2e-05  1.032811  0.0  0.105385  0.069829  -7e-06  1.033806  0.0
H  H19  1  0.26480861  0.21023273  0.30652609  1  0.064372  -4e-06  0.941863  0.0  0.077006  -5e-06  1.000817  0.0  0.079008  -5e-06  0.999906  0.0  0.109119  0.075593  -7e-06  1.001422  0.0
H  H20  1  0.73518460  0.78976733  0.69347283  1  0.064401  -4e-06  0.941828  0.0  0.077031  -5e-06  1.000776  0.0  0.079032  -5e-06  0.999865  0.0  0.109112  0.075596  -7e-06  1.001414  0.0
H  H21  1  0.26957567  0.43540585  0.31875421  1  0.102411  2e-06  0.962638  0.0  0.108576  -7e-06  1.03051  0.0  0.112582  -4e-06  1.027864  0.0  0.103296  0.105412  -8e-06  1.033026  0.0
H  H22  1  0.73042083  0.56459325  0.68124551  1  0.102392  3e-06  0.962646  0.0  0.108569  -7e-06  1.030509  0.0  0.112575  -4e-06  1.027864  0.0  0.103286  0.105401  -8e-06  1.033021  0.0
H  H23  1  0.08193100  0.97383003  0.60287154  1  0.09074  9e-06  0.958104  0.0  0.101477  4e-06  1.023279  0.0  0.104066  5e-06  1.021441  0.0  0.100556  0.099263  4e-06  1.025407  0.0
H  H24  1  0.91806391  0.02617584  0.39712677  1  0.090771  8e-06  0.958065  0.0  0.101461  3e-06  1.023299  0.0  0.104059  5e-06  1.021433  0.0  0.100548  0.099247  4e-06  1.025425  0.0
H  H25  1  0.06390521  0.06965601  0.75798498  1  0.11514  3.3e-05  0.957066  0.0  0.127207  1.9e-05  1.013805  0.0  0.13042  1.9e-05  1.013053  0.0  0.103135  0.124935  2e-05  1.014363  0.0
H  H26  1  0.93608958  0.93034696  0.24201653  1  0.11513  3.4e-05  0.95712  0.0  0.1272  1.9e-05  1.013861  0.0  0.130419  1.9e-05  1.01309  0.0  0.103143  0.12493  2e-05  1.014427  0.0
H  H27  1  0.33185027  0.69209407  0.91606049  1  0.107059  -1.3e-05  0.945045  0.0  0.120509  -2e-05  1.001039  0.0  0.123688  -1.5e-05  1.000152  0.0  0.102888  0.118156  -2.3e-05  1.001933  0.0
H  H28  1  0.66813970  0.30790696  0.08394125  1  0.107049  -1.2e-05  0.945171  0.0  0.120508  -2e-05  1.001146  0.0  0.123689  -1.5e-05  1.00026  0.0  0.102883  0.118155  -2.3e-05  1.002036  0.0
H  H29  1  0.35527151  0.59655888  0.76124318  1  0.085222  -2e-06  0.953544  0.0  0.099672  -6e-06  1.009312  0.0  0.102427  -4e-06  1.00759  0.0  0.098398  0.097709  -7e-06  1.010548  0.0
H  H30  1  0.64472028  0.40344118  0.23875574  1  0.085196  -3e-06  0.953586  0.0  0.099656  -6e-06  1.00934  0.0  0.102412  -4e-06  1.007616  0.0  0.098388  0.097696  -7e-06  1.010576  0.0
H  H31  1  0.72533556  0.64126359  0.88785420  1  0.098226  -0.000441  0.957485  0.0  0.106959  -0.000345  1.021422  0.0  0.110253  -0.000225  1.019679  0.0  0.100539  0.10463  -0.000464  1.022636  0.0
H  H32  1  0.27466907  0.35873649  0.11214829  1  0.098246  -0.00044  0.957377  0.0  0.106967  -0.000345  1.021339  0.0  0.11026  -0.000225  1.019596  0.0  0.100546  0.104639  -0.000464  1.022559  0.0
H  H33  1  0.87743623  0.40758207  0.86563622  1  0.095349  2.1e-05  0.965186  0.0  0.104184  3e-06  1.02916  0.0  0.107475  5e-06  1.026921  0.0  0.100177  0.101763  -1e-05  1.030972  0.0
H  H34  1  0.12256596  0.59241703  0.13436492  1  0.095319  2.1e-05  0.96522  0.0  0.10415  3e-06  1.029199  0.0  0.107442  5e-06  1.02696  0.0  0.100164  0.10173  -1e-05  1.031012  0.0
C  C35  1  0.24154454  0.72363672  0.57718227  1  0.118735  -0.000967  3.785152  -0.001  0.130622  -0.000144  4.020424  0.0  0.135822  -0.000211  4.042615  0.0  0.01133  0.127372  -6.9e-05  4.004847  0.0
C  C36  1  0.75845294  0.27636335  0.42281589  1  0.118685  -0.000962  3.785292  -0.001  0.130714  -0.000146  4.020373  0.0  0.135916  -0.000209  4.04256  0.0  0.011314  0.127463  -6.9e-05  4.004797  0.0
C  C37  1  0.27041514  0.79501062  0.48869164  1  -0.182589  0.003524  3.638608  0.002  -0.210107  0.001085  3.886774  0.001  -0.217041  0.001246  3.906856  0.001  -0.079951  -0.204786  0.000898  3.873565  0.0
C  C38  1  0.72958889  0.20498752  0.51130814  1  -0.182676  0.003516  3.638528  0.002  -0.210247  0.00109  3.886684  0.001  -0.217183  0.001242  3.906759  0.001  -0.079998  -0.204908  0.000898  3.873494  0.0
C  C39  1  0.29365296  0.73738229  0.40261258  1  0.198569  -0.001827  3.80587  -0.002  0.199886  -0.000374  4.051829  -0.001  0.205846  -0.000409  4.071146  -0.001  0.113658  0.195975  -0.000321  4.038067  -0.001
C  C40  1  0.70635393  0.26261586  0.59738864  1  0.198663  -0.001823  3.805785  -0.002  0.199965  -0.000376  4.051795  -0.001  0.205931  -0.000408  4.071098  -0.001  0.113721  0.196  -0.000321  4.038095  -0.001
C  C41  1  0.25342385  0.54754511  0.48389353  1  0.210068  -0.000861  3.796335  -0.001  0.20822  -0.000137  4.048067  0.0  0.215468  -0.000188  4.066365  0.0  0.116669  0.203407  -6.8e-05  4.035419  0.0
C  C42  1  0.74657878  0.45245303  0.51610771  1  0.210086  -0.000859  3.796374  -0.001  0.208264  -0.000138  4.048115  0.0  0.215513  -0.000187  4.066409  0.0  0.116697  0.203451  -6.9e-05  4.035463  0.0
C  C43  1  0.23406853  0.59723679  0.57335705  1  -0.178705  0.00303  3.657301  0.002  -0.209505  0.000962  3.91227  0.001  -0.216068  0.00111  3.931555  0.001  -0.080363  -0.205453  0.000803  3.89963  0.0
C  C44  1  0.76592954  0.40276521  0.42664455  1  -0.178722  0.003024  3.657281  0.002  -0.209573  0.000971  3.912216  0.001  -0.216135  0.001103  3.9315  0.001  -0.080391  -0.20553  0.000804  3.899573  0.0
C  C45  1  0.33879142  0.80396408  0.30842028  1  0.074984  0.012578  3.742622  0.008  0.086784  0.004629  3.968362  0.003  0.091733  0.005213  3.989123  0.003  0.015139  0.083639  0.004161  3.953905  0.002
C  C46  1  0.66121588  0.19603310  0.69157886  1  0.075015  0.012572  3.742557  0.008  0.08678  0.004631  3.968338  0.003  0.091727  0.005211  3.989096  0.003  0.015136  0.083654  0.004162  3.95389  0.002
C  C47  1  0.36789176  0.92695246  0.29894823  1  -0.15346  -0.010233  3.695729  -0.011  -0.169352  -0.003898  3.941122  -0.005  -0.178247  -0.003603  3.962035  -0.004  -0.079248  -0.163375  -0.004074  3.92664  -0.005
C  C48  1  0.63212026  0.07304376  0.70105389  1  -0.153455  -0.010225  3.695728  -0.011  -0.169272  -0.003897  3.941141  -0.005  -0.178165  -0.003602  3.962053  -0.004  -0.079299  -0.163342  -0.004073  3.926623  -0.005
C  C49  1  0.41292783  0.98151375  0.20815252  1  0.134544  0.011356  3.683228  0.008  0.105796  0.002559  3.936083  0.001  0.115931  0.004223  3.953898  0.003  0.04798  0.09926  0.001283  3.924255  0.0
C  C50  1  0.58707991  0.01848247  0.79184744  1  0.13464  0.011346  3.683117  0.008  0.105863  0.002559  3.935985  0.001  0.116  0.004224  3.953799  0.003  0.047993  0.099321  0.001284  3.924158  0.0
C  C51  1  0.40134095  0.80304282  0.13593586  1  0.142319  0.011494  3.691986  0.008  0.113183  0.002704  3.944754  0.002  0.123279  0.004352  3.962018  0.003  0.048896  0.106746  0.001426  3.933341  0.001
C  C52  1  0.59865996  0.19695918  0.86406499  1  0.142309  0.011483  3.692002  0.008  0.113202  0.002702  3.944786  0.002  0.123307  0.004352  3.962051  0.003  0.048883  0.106759  0.001426  3.933373  0.001
C  C53  1  0.35646274  0.74252224  0.22397913  1  -0.142477  -0.009935  3.705789  -0.011  -0.161693  -0.00374  3.953889  -0.004  -0.168928  -0.003492  3.971599  -0.004  -0.079666  -0.156832  -0.003876  3.941867  -0.005
C  C54  1  0.64353676  0.25747976  0.77602319  1  -0.142471  -0.009928  3.705759  -0.011  -0.161673  -0.003738  3.953858  -0.004  -0.168906  -0.003491  3.971562  -0.004  -0.079634  -0.156815  -0.003876  3.941834  -0.005
C  C55  1  0.24488049  0.41484697  0.47585305  1  0.061437  0.000291  3.750476  0.0  0.074085  5e-05  3.979577  0.0  0.076324  8.4e-05  4.002007  0.0  0.007574  0.073087  3e-05  3.963776  0.0
C  C56  1  0.75512070  0.58515117  0.52414675  1  0.061496  0.000296  3.750356  0.0  0.07408  5e-05  3.979551  0.0  0.076324  7.9e-05  4.001968  0.0  0.00759  0.073084  3e-05  3.963737  0.0
C  C57  1  0.22780094  0.32735948  0.55703499  1  -0.148422  -0.000176  3.713242  0.0  -0.168137  -8e-06  3.960197  0.0  -0.174525  -2.2e-05  3.981596  0.0  -0.085547  -0.164173  -2e-06  3.945843  0.0
C  C58  1  0.77219925  0.67263770  0.44296491  1  -0.148529  -0.00018  3.71327  0.0  -0.168178  -8e-06  3.960245  0.0  -0.174568  -2e-05  3.981644  0.0  -0.085599  -0.164221  -2e-06  3.945906  0.0
C  C59  1  0.23112481  0.20232804  0.54358669  1  0.114619  0.000159  3.751579  0.0  0.090478  2.9e-05  4.012981  0.0  0.095863  3.3e-05  4.03104  0.0  0.036242  0.087008  1e-05  4.00079  0.0
C  C60  1  0.76887494  0.79767010  0.45641166  1  0.11468  0.000165  3.751637  0.0  0.090526  2.8e-05  4.013034  0.0  0.095913  3.1e-05  4.031093  0.0  0.036265  0.087046  1e-05  4.000863  0.0
C  C61  1  0.25702038  0.24452922  0.37798148  1  0.115335  0.000161  3.754992  0.0  0.092187  3.1e-05  4.011829  0.0  0.09702  3.5e-05  4.030776  0.0  0.038687  0.089223  1.7e-05  3.998442  0.0
C  C62  1  0.74297426  0.75547085  0.62201742  1  0.115284  0.000166  3.755035  0.0  0.092154  2.9e-05  4.011853  0.0  0.096984  3.4e-05  4.030806  0.0  0.038674  0.0892  1.7e-05  3.998448  0.0
C  C63  1  0.25740986  0.37073063  0.38409318  1  -0.149592  -0.000168  3.721166  0.0  -0.168286  -1.1e-05  3.969319  0.0  -0.174735  -2.5e-05  3.990206  0.0  -0.08496  -0.163716  4e-06  3.955162  0.0
C  C64  1  0.74258621  0.62926944  0.61590644  1  -0.149569  -0.000172  3.721135  0.0  -0.168264  -1e-05  3.96931  0.0  -0.174716  -2.4e-05  3.990201  0.0  -0.08494  -0.163687  4e-06  3.955129  0.0
C  C65  1  0.22340911  0.77857647  0.66980930  1  -0.001287  -1.2e-05  3.818337  0.0  0.012251  7.3e-05  4.052159  0.0  0.008029  0.000101  4.077808  0.0  -0.02994  0.014951  2.3e-05  4.034459  0.0
C  C66  1  0.77658468  0.22142553  0.33019086  1  -0.00147  -2.6e-05  3.818549  0.0  0.012059  6e-05  4.052288  0.0  0.007825  0.000106  4.077956  0.0  -0.03002  0.014761  2.3e-05  4.034605  0.0
C  C67  1  0.14159728  0.91205884  0.67102303  1  -0.074817  -5.7e-05  3.761595  0.0  -0.095874  -2.6e-05  4.014018  0.0  -0.094691  -4.1e-05  4.034218  0.0  -0.088793  -0.096055  8e-06  3.999804  0.0
C  C68  1  0.85839850  0.08794510  0.32897765  1  -0.074765  -4.5e-05  3.761511  0.0  -0.095794  -2.3e-05  4.01395  0.0  -0.094605  -4.1e-05  4.034149  0.0  -0.088768  -0.095971  8e-06  3.99974  0.0
C  C69  1  0.12900733  0.96621236  0.75756725  1  -0.223014  -0.000123  3.766985  0.0  -0.241052  1.7e-05  4.016362  0.0  -0.248731  4.9e-05  4.038034  0.0  -0.114639  -0.235881  -3e-05  4.001365  0.0
C  C70  1  0.87098874  0.03378772  0.24243237  1  -0.222998  -0.000134  3.766897  0.0  -0.241048  2.3e-05  4.016281  0.0  -0.248725  4.6e-05  4.037953  0.0  -0.114619  -0.235874  -3.1e-05  4.001291  0.0
C  C71  1  0.19906924  0.88741938  0.84671724  1  0.355262  3.7e-05  3.820073  0.0  0.349557  0.000204  4.077691  0.0  0.362188  0.000124  4.093614  0.0  0.08517  0.340616  0.000253  4.067131  0.0
C  C72  1  0.80092525  0.11257780  0.15327979  1  0.355383  4.9e-05  3.819873  0.0  0.349649  0.000197  4.077535  0.0  0.362281  0.000128  4.093455  0.0  0.085192  0.340695  0.000253  4.066994  0.0
C  C73  1  0.27822260  0.75328890  0.84700982  1  -0.193817  -6.8e-05  3.74754  0.0  -0.21298  -1.7e-05  3.998358  0.0  -0.219715  5e-06  4.018933  0.0  -0.109629  -0.208573  -5.6e-05  3.984755  0.0
C  C74  1  0.72176562  0.24671599  0.15298935  1  -0.193925  -8e-05  3.747522  0.0  -0.213099  -1e-05  3.998374  0.0  -0.219835  1e-06  4.018949  0.0  -0.109655  -0.208677  -5.6e-05  3.984771  0.0
C  C75  1  0.28939559  0.70045639  0.75984345  1  -0.092113  -0.000116  3.785631  0.0  -0.110096  -4e-06  4.031456  0.0  -0.109536  -1.5e-05  4.05251  0.0  -0.091194  -0.110289  1.9e-05  4.017128  0.0
C  C76  1  0.71059634  0.29954657  0.24015590  1  -0.091977  -0.000105  3.785564  0.0  -0.109972  -1e-06  4.031388  0.0  -0.109408  -1.5e-05  4.052438  0.0  -0.091149  -0.11017  1.9e-05  4.017073  0.0
C  C77  1  0.82813762  0.76850061  0.02673842  1  0.641679  0.006054  3.881747  0.007  0.596533  0.000991  4.183438  0.002  0.633815  0.001587  4.176065  0.002  0.211095  0.571267  0.000402  4.1878  0.002
C  C78  1  0.17186170  0.23149850  0.97325839  1  0.64183  0.006055  3.881689  0.007  0.596697  0.000993  4.183344  0.002  0.633979  0.001586  4.175967  0.002  0.211137  0.571434  0.000404  4.187702  0.002
C  C79  1  0.91650599  0.62978993  0.01234816  1  -0.051895  -0.008093  3.752568  -0.009  -0.030391  -0.005215  3.982494  -0.006  -0.03742  -0.003706  4.005395  -0.005  -0.016071  -0.025732  -0.006399  3.966946  -0.007
C  C80  1  0.08349622  0.37020918  0.98765517  1  -0.051805  -0.00809  3.75255  -0.009  -0.030257  -0.005216  3.982399  -0.006  -0.037285  -0.003701  4.005299  -0.005  -0.015965  -0.025601  -0.006399  3.966853  -0.007
C  C81  1  0.84569525  0.57848779  0.93651008  1  -0.078732  0.000312  3.743532  0.0  -0.100061  -0.000199  3.988261  0.0  -0.100943  -2e-05  4.009154  0.0  -0.088343  -0.099321  -0.000374  3.973934  0.0
C  C82  1  0.15430312  0.42151034  0.06349191  1  -0.07877  0.000305  3.743381  0.0  -0.100097  -0.000198  3.988097  0.0  -0.100978  -2.8e-05  4.008988  0.0  -0.088376  -0.09936  -0.000374  3.973781  0.0
C  C83  1  0.92897262  0.44953835  0.92433437  1  -0.079323  -0.000125  3.748829  -0.001  -0.101539  -0.000367  3.994669  -0.001  -0.103539  -0.00017  4.016656  -0.001  -0.087403  -0.100086  -0.000531  3.979706  -0.001
C  C84  1  0.07102916  0.55046172  0.07566814  1  -0.079256  -0.000117  3.748664  -0.001  -0.101456  -0.000367  3.994507  -0.001  -0.103455  -0.000163  4.016492  -0.001  -0.087367  -0.100005  -0.000531  3.979549  -0.001
N  N85  1  0.28352923  0.61652118  0.40020547  1  -0.387823  0.002161  3.07674  0.002  -0.357548  0.000593  3.340266  0.0  -0.369216  0.000799  3.354747  0.001  -0.315519  -0.348967  0.000376  3.33031  0.0
N  N86  1  0.71647723  0.38347794  0.59979493  1  -0.387852  0.002154  3.076697  0.002  -0.35757  0.000592  3.340218  0.0  -0.36924  0.000802  3.354698  0.001  -0.315533  -0.348965  0.000376  3.33027  0.0
N  N87  1  0.43062080  0.92061484  0.12808826  1  -0.291434  -0.077555  3.335785  -0.099  -0.240401  -0.052367  3.624734  -0.071  -0.269934  -0.043388  3.644405  -0.063  -0.353142  -0.222909  -0.057387  3.613267  -0.075
N  N88  1  0.56938140  0.07938427  0.87191288  1  -0.291414  -0.07755  3.335631  -0.099  -0.240414  -0.052367  3.624631  -0.071  -0.269948  -0.043388  3.644299  -0.063  -0.353104  -0.222908  -0.057391  3.613141  -0.075
N  N89  1  0.24709999  0.15898702  0.45604716  1  -0.321914  -0.000239  3.072705  0.0  -0.283273  -9e-05  3.34495  0.0  -0.294095  -6.5e-05  3.360019  0.0  -0.323883  -0.275599  -0.000129  3.335749  0.0
N  N90  1  0.75289464  0.84101305  0.54395029  1  -0.321866  -0.000241  3.072651  0.0  -0.283229  -8.9e-05  3.344893  0.0  -0.294049  -6.5e-05  3.359963  0.0  -0.323846  -0.275554  -0.000129  3.335701  0.0
O  O91  1  0.67231553  0.83008862  0.97257107  1  -0.604752  -0.091205  2.096826  -0.124  -0.579178  -0.060345  2.386274  -0.09  -0.622509  -0.045864  2.379398  -0.074  -0.323191  -0.550358  -0.070263  2.390593  -0.1
O  O92  1  0.32768427  0.16990952  0.02743237  1  -0.604882  -0.091227  2.096714  -0.124  -0.579288  -0.060359  2.38617  -0.09  -0.622618  -0.045873  2.379285  -0.074  -0.323211  -0.550471  -0.070281  2.390492  -0.1
O  O93  1  0.90711000  0.81462480  0.08971454  1  -0.597631  0.000924  1.982378  -0.001  -0.555176  0.000803  2.206564  -0.001  -0.580658  0.001579  2.198672  0.0  -0.311264  -0.537531  0.000191  2.211589  -0.001
O  O94  1  0.09290620  0.18538109  0.91028003  1  -0.597633  0.000927  1.98251  -0.001  -0.555205  0.000804  2.206695  -0.001  -0.580683  0.001581  2.198797  0.0  -0.311258  -0.537562  0.000193  2.211716  -0.001
O  O95  1  0.19369718  0.93656550  0.93202326  1  -0.538793  0.000859  2.15768  0.0  -0.495852  0.001183  2.390484  0.0  -0.517428  0.001449  2.379103  0.0  -0.35174  -0.480587  0.000893  2.398098  0.0
O  O96  1  0.80629903  0.06343747  0.06797680  1  -0.538911  0.00086  2.157657  0.0  -0.495914  0.00118  2.390426  0.0  -0.517507  0.001449  2.379076  0.0  -0.351749  -0.480663  0.000893  2.398099  0.0
