# generated using pymatgen
data_Cu3H34C20S2I3(NO)2
_symmetry_space_group_name_H-M   'P 1'
_cell_length_a   11.02959893
_cell_length_b   11.27866915
_cell_length_c   12.40990000
_cell_angle_alpha   117.40538951
_cell_angle_beta   104.75578880
_cell_angle_gamma   89.68461945
_symmetry_Int_Tables_number   1
_chemical_formula_structural   Cu3H34C20S2I3(NO)2
_chemical_formula_sum   'Cu6 H68 C40 S4 I6 N4 O4'
_cell_volume   1314.05442174
_cell_formula_units_Z   2
loop_
 _symmetry_equiv_pos_site_id
 _symmetry_equiv_pos_as_xyz
  1  'x, y, z'
loop_
 _atom_site_type_symbol
 _atom_site_label
 _atom_site_symmetry_multiplicity
 _atom_site_fract_x
 _atom_site_fract_y
 _atom_site_fract_z
 _atom_site_occupancy
 _atom_site_hle17_bader_spin_density
 _atom_site_hle17_ddec_charge
 _atom_site_hle17_ddec_spin_density
 _atom_site_hle17_ddec_sum_bond_order
 _atom_site_hle17_magmom
 _atom_site_hse06_10hf_bader_spin_density
 _atom_site_hse06_10hf_ddec_charge
 _atom_site_hse06_10hf_ddec_spin_density
 _atom_site_hse06_10hf_ddec_sum_bond_order
 _atom_site_hse06_10hf_magmom
 _atom_site_hse06_bader_spin_density
 _atom_site_hse06_ddec_charge
 _atom_site_hse06_ddec_spin_density
 _atom_site_hse06_ddec_sum_bond_order
 _atom_site_hse06_magmom
 _atom_site_pbe_bader_charge
 _atom_site_pbe_bader_spin_density
 _atom_site_pbe_cm5_charge
 _atom_site_pbe_ddec_charge
 _atom_site_pbe_ddec_spin_density
 _atom_site_pbe_ddec_sum_bond_order
 _atom_site_pbe_magmom
Cu  Cu0  1  0.58171179  0.95701872  0.08192377  1  0  0.123384  0  2.299096  0  0  0.057959  0  2.771188  0  0  0.068924  0  2.719762  0  0.32608  0  0.185649  0.0523  0  2.805995  0
Cu  Cu1  1  0.91876381  0.87604852  0.91813043  1  0  0.121747  0  2.304787  0  0  0.056712  0  2.77625  0  0  0.067689  0  2.724814  0  0.323891  0  0.185447  0.051111  0  2.810668  0
Cu  Cu2  1  0.41828395  0.04297459  0.91806425  1  0  0.123367  0  2.299175  0  0  0.057953  0  2.771269  0  0  0.068919  0  2.719844  0  0.326071  0  0.185641  0.052288  0  2.806065  0
Cu  Cu3  1  0.08123455  0.12395084  0.08186635  1  0  0.121763  0  2.3048  0  0  0.056713  0  2.776266  0  0  0.06769  0  2.724834  0  0.323866  0  0.185429  0.051114  0  2.810672  0
Cu  Cu4  1  0.74969710  0.01693842  0.00040525  1  0  0.195949  0  2.161754  0  0  0.12521  0  2.639301  0  0  0.149957  0  2.569363  0  0.266234  0  0.160123  0.110341  0  2.685672  0
Cu  Cu5  1  0.25030794  0.98306195  0.99959024  1  0  0.195972  0  2.161844  0  0  0.125211  0  2.639392  0  0  0.149965  0  2.569453  0  0.266323  0  0.160157  0.110354  0  2.68575  0
H  H6  1  0.37750480  0.83182087  0.14549113  1  0  0.043463  0  0.996732  0  0  0.053722  0  1.068768  0  0  0.054219  0  1.069642  0  0.067111  0  0.071211  0.053447  0  1.068192  0
H  H7  1  0.12283408  0.68662650  0.85292717  1  0  0.044066  0  0.997305  0  0  0.053959  0  1.069542  0  0  0.05445  0  1.070423  0  0.08263  0  0.071676  0.053834  0  1.068494  0
H  H8  1  0.62249531  0.16817748  0.85450240  1  0  0.043447  0  0.996665  0  0  0.053715  0  1.068704  0  0  0.054221  0  1.06957  0  0.066869  0  0.071226  0.053444  0  1.068137  0
H  H9  1  0.87716402  0.31337084  0.14707112  1  0  0.044073  0  0.997354  0  0  0.053938  0  1.069607  0  0  0.054444  0  1.070475  0  0.082583  0  0.071689  0.053809  0  1.06856  0
H  H10  1  0.56091634  0.70510304  0.10806499  1  0  0.062891  0  0.973522  0  0  0.073937  0  1.050452  0  0  0.075571  0  1.049451  0  0.01183  0  0.073271  0.072764  0  1.051348  0
H  H11  1  0.93920774  0.59950988  0.89004913  1  0  0.062163  0  0.976619  0  0  0.073595  0  1.052949  0  0  0.075213  0  1.051977  0  0.031353  0  0.072282  0.07248  0  1.053761  0
H  H12  1  0.43908283  0.29489532  0.89192752  1  0  0.062963  0  0.973494  0  0  0.073975  0  1.050427  0  0  0.075604  0  1.049424  0  0.011956  0  0.073295  0.072803  0  1.051325  0
H  H13  1  0.06079236  0.40048848  0.10995005  1  0  0.062156  0  0.976619  0  0  0.073595  0  1.052924  0  0  0.075212  0  1.051952  0  0.031325  0  0.072268  0.072479  0  1.05374  0
H  H14  1  0.60017866  0.72495955  0.26376647  1  0  0.072175  0  0.931884  0  0  0.092803  0  0.989911  0  0  0.093613  0  0.990423  0  0.006226  0  0.089491  0.092273  0  0.989651  0
H  H15  1  0.90036888  0.46198090  0.73441749  1  0  0.07257  0  0.93041  0  0  0.093219  0  0.987929  0  0  0.094101  0  0.988363  0  0.034892  0  0.089565  0.092593  0  0.987787  0
H  H16  1  0.39982051  0.27503881  0.73622604  1  0  0.072161  0  0.931942  0  0  0.092799  0  0.989924  0  0  0.093605  0  0.990437  0  0.00613  0  0.089469  0.092271  0  0.989668  0
H  H17  1  0.09963097  0.53801543  0.26558079  1  0  0.072528  0  0.930437  0  0  0.09317  0  0.987965  0  0  0.094051  0  0.988397  0  0.034922  0  0.089536  0.092546  0  0.987823  0
H  H18  1  0.47975461  0.49846458  0.10954351  1  0  0.062489  0  0.943983  0  0  0.080426  0  1.007578  0  0  0.081039  0  1.008474  0  0.030981  0  0.081952  0.079857  0  1.007203  0
H  H19  1  0.02069375  0.39070779  0.88881678  1  0  0.064109  0  0.941302  0  0  0.081918  0  1.004147  0  0  0.082627  0  1.004941  0  0.022607  0  0.0825  0.0812  0  1.00398  0
H  H20  1  0.52024187  0.50153477  0.89045043  1  0  0.062532  0  0.944009  0  0  0.08045  0  1.007623  0  0  0.081062  0  1.00852  0  0.030953  0  0.081982  0.079884  0  1.007242  0
H  H21  1  0.97930742  0.60929157  0.11118305  1  0  0.064048  0  0.941252  0  0  0.081863  0  1.004093  0  0  0.082571  0  1.004886  0  0.022598  0  0.082461  0.081144  0  1.003927  0
H  H22  1  0.35504962  0.57220654  0.05226159  1  0  0.059425  0  0.936407  0  0  0.079474  0  0.997654  0  0  0.080129  0  0.998209  0  0.002067  0  0.083371  0.078868  0  0.997492  0
H  H23  1  0.14502523  0.52169951  0.94673139  1  0  0.059072  0  0.938418  0  0  0.07884  0  0.999812  0  0  0.079574  0  1.000254  0  -0.00217  0  0.082885  0.078234  0  0.999597  0
H  H24  1  0.64494779  0.42779281  0.94773175  1  0  0.059454  0  0.936509  0  0  0.079541  0  0.997702  0  0  0.080201  0  0.99825  0  0.002121  0  0.08337  0.078933  0  0.997544  0
H  H25  1  0.85497643  0.47830388  0.05327024  1  0  0.059096  0  0.93839  0  0  0.078853  0  0.999796  0  0  0.079588  0  1.000237  0  -0.002177  0  0.082892  0.078247  0  0.999581  0
H  H26  1  0.30130395  0.51178083  0.20509705  1  0  0.056458  0  0.96964  0  0  0.073667  0  1.036754  0  0  0.0744  0  1.037122  0  0.032692  0  0.076339  0.073079  0  1.036557  0
H  H27  1  0.20005862  0.30643270  0.79428047  1  0  0.056151  0  0.969376  0  0  0.073178  0  1.036798  0  0  0.073937  0  1.037157  0  0.017485  0  0.076346  0.072621  0  1.036553  0
H  H28  1  0.69869290  0.48822155  0.79489904  1  0  0.056443  0  0.969625  0  0  0.073641  0  1.036772  0  0  0.07438  0  1.037133  0  0.032685  0  0.076335  0.073052  0  1.036579  0
H  H29  1  0.79994467  0.69356867  0.20572230  1  0  0.05613  0  0.969322  0  0  0.07314  0  1.036776  0  0  0.073897  0  1.037139  0  0.017465  0  0.076337  0.072585  0  1.036526  0
H  H30  1  0.44356999  0.60545283  0.32119355  1  0  0.053774  0  0.949452  0  0  0.073246  0  1.011845  0  0  0.073925  0  1.012375  0  -0.001188  0  0.081816  0.072824  0  1.011426  0
H  H31  1  0.05799831  0.28350096  0.67776154  1  0  0.053999  0  0.950253  0  0  0.073331  0  1.012861  0  0  0.074027  0  1.013407  0  0.003791  0  0.081779  0.072914  0  1.012407  0
H  H32  1  0.55643011  0.39454552  0.67879998  1  0  0.053809  0  0.949442  0  0  0.073294  0  1.011854  0  0  0.073976  0  1.01238  0  -0.001327  0  0.081819  0.07287  0  1.011436  0
H  H33  1  0.94200298  0.71649940  0.32223874  1  0  0.054005  0  0.950266  0  0  0.073352  0  1.012835  0  0  0.074049  0  1.013383  0  0.003953  0  0.081789  0.072935  0  1.012382  0
H  H34  1  0.26718397  0.73921759  0.36405081  1  0  0.068846  0  0.962159  0  0  0.086557  0  1.025584  0  0  0.087772  0  1.025559  0  0.048051  0  0.085842  0.085658  0  1.025728  0
H  H35  1  0.23458383  0.37284972  0.63569463  1  0  0.07082  0  0.960172  0  0  0.087993  0  1.023994  0  0  0.08932  0  1.023814  0  0.049576  0  0.086408  0.087097  0  1.024096  0
H  H36  1  0.73281944  0.26078479  0.63594676  1  0  0.068857  0  0.96215  0  0  0.086563  0  1.025553  0  0  0.087778  0  1.025528  0  0.047945  0  0.08586  0.085666  0  1.025695  0
H  H37  1  0.76541852  0.62715165  0.36430793  1  0  0.070794  0  0.960134  0  0  0.087986  0  1.023972  0  0  0.089312  0  1.023794  0  0.049663  0  0.086399  0.08709  0  1.024074  0
H  H38  1  0.22420225  0.72045801  0.20887600  1  0  0.054853  0  0.958075  0  0  0.074105  0  1.022982  0  0  0.07485  0  1.023383  0  0.012125  0  0.074368  0.073517  0  1.022942  0
H  H39  1  0.27632789  0.51110494  0.79070029  1  0  0.055403  0  0.958096  0  0  0.074227  0  1.023369  0  0  0.074993  0  1.023768  0  0.020415  0  0.074356  0.073752  0  1.023163  0
H  H40  1  0.77579578  0.27954638  0.79112362  1  0  0.054796  0  0.958003  0  0  0.074025  0  1.022945  0  0  0.074777  0  1.023337  0  0.012128  0  0.074329  0.07344  0  1.022903  0
H  H41  1  0.72367259  0.48889643  0.20930104  1  0  0.055334  0  0.958131  0  0  0.07421  0  1.023368  0  0  0.074973  0  1.023772  0  0.020434  0  0.074348  0.073734  0  1.023162  0
H  H42  1  0.47304223  0.87066360  0.41599973  1  0  0.067309  0  0.939942  0  0  0.086309  0  1.003129  0  0  0.086768  0  1.003875  0  0.002051  0  0.085773  0.085911  0  1.002681  0
H  H43  1  0.02780901  0.45233620  0.58258991  1  0  0.067165  0  0.941388  0  0  0.086242  0  1.004559  0  0  0.086678  0  1.00533  0  0.007134  0  0.086034  0.086177  0  1.003334  0
H  H44  1  0.52696212  0.12933878  0.58399565  1  0  0.067311  0  0.939926  0  0  0.086316  0  1.003115  0  0  0.086776  0  1.003855  0  0.002039  0  0.085747  0.085917  0  1.002669  0
H  H45  1  0.97219390  0.54766215  0.41741151  1  0  0.067189  0  0.941342  0  0  0.086257  0  1.004506  0  0  0.086694  0  1.005277  0  0.007075  0  0.086048  0.086194  0  1.003283  0
H  H46  1  0.34551286  0.94391099  0.36075071  1  0  0.071084  0  0.960271  0  0  0.086373  0  1.028478  0  0  0.087391  0  1.028588  0  0.047063  0  0.084263  0.085546  0  1.028637  0
H  H47  1  0.15483004  0.58075432  0.63773939  1  0  0.070498  0  0.958939  0  0  0.08537  0  1.0281  0  0  0.086364  0  1.028222  0  0.025764  0  0.083992  0.084455  0  1.028327  0
H  H48  1  0.65448868  0.05609139  0.63924483  1  0  0.071165  0  0.960202  0  0  0.086432  0  1.028421  0  0  0.087447  0  1.028533  0  0.046877  0  0.084277  0.085606  0  1.028576  0
H  H49  1  0.84516819  0.41924403  0.36226016  1  0  0.070493  0  0.958979  0  0  0.085357  0  1.028127  0  0  0.08635  0  1.028251  0  0.025718  0  0.083997  0.084444  0  1.02835  0
H  H50  1  0.41936361  0.12802730  0.24938554  1  0  0.111533  0  0.95849  0  0  0.118679  0  1.037605  0  0  0.122551  0  1.033022  0  0.083438  0  0.091044  0.115634  0  1.041307  0
H  H51  1  0.08016011  0.88047854  0.75128727  1  0  0.110862  0  0.958373  0  0  0.117915  0  1.038074  0  0  0.121839  0  1.033425  0  0.075301  0  0.090634  0.115014  0  1.04148  0
H  H52  1  0.58063849  0.87197206  0.75060564  1  0  0.111569  0  0.958429  0  0  0.118625  0  1.037654  0  0  0.122534  0  1.03304  0  0.083472  0  0.091039  0.11558  0  1.041358  0
H  H53  1  0.91984194  0.11951276  0.24870859  1  0  0.110862  0  0.958378  0  0  0.117903  0  1.038088  0  0  0.121827  0  1.033444  0  0.075041  0  0.090613  0.115024  0  1.041437  0
H  H54  1  0.43706556  0.12048882  0.39205582  1  0  0.133677  0  0.937023  0  0  0.148448  0  0.994686  0  0  0.151811  0  0.992564  0  0.10074  0  0.11098  0.14614  0  0.996114  0
H  H55  1  0.06409272  0.72934927  0.60837017  1  0  0.133374  0  0.937153  0  0  0.148267  0  0.9949  0  0  0.151679  0  0.992704  0  0.094645  0  0.110868  0.145916  0  0.996196  0
H  H56  1  0.56292618  0.87950248  0.60793126  1  0  0.133657  0  0.937077  0  0  0.148444  0  0.994675  0  0  0.151809  0  0.992555  0  0.100287  0  0.110965  0.146136  0  0.996103  0
H  H57  1  0.93589915  0.27064304  0.39162058  1  0  0.133364  0  0.937179  0  0  0.148282  0  0.994899  0  0  0.151703  0  0.99269  0  0.094658  0  0.110883  0.145927  0  0.996197  0
H  H58  1  0.61678519  0.52105385  0.40726634  1  0  0.070032  0  0.919805  0  0  0.087555  0  0.981166  0  0  0.087793  0  0.981075  0  0.044539  0  0.105304  0.087322  0  0.981323  0
H  H59  1  0.88253235  0.11495583  0.59272843  1  0  0.070292  0  0.919449  0  0  0.086698  0  0.981221  0  0  0.086892  0  0.981134  0  0.053136  0  0.105407  0.08653  0  0.981329  0
H  H60  1  0.38321324  0.47893846  0.59272750  1  0  0.070031  0  0.919865  0  0  0.087532  0  0.981261  0  0  0.087769  0  0.981173  0  0.044615  0  0.105329  0.087296  0  0.981413  0
H  H61  1  0.11746674  0.88504957  0.40727830  1  0  0.070144  0  0.919592  0  0  0.086624  0  0.981348  0  0  0.086818  0  0.981259  0  0.053235  0  0.105389  0.086456  0  0.981457  0
H  H62  1  0.72199699  0.47658646  0.51382059  1  0  0.085594  0  0.950029  0  0  0.094511  0  1.023149  0  0  0.096282  0  1.021374  0  0.102165  0  0.110288  0.093144  0  1.024499  0
H  H63  1  0.77789443  0.96365166  0.48502430  1  0  0.086096  0  0.949069  0  0  0.094636  0  1.021602  0  0  0.096366  0  1.019848  0  0.09985  0  0.110404  0.093309  0  1.022941  0
H  H64  1  0.27799993  0.52340887  0.48617338  1  0  0.08549  0  0.950007  0  0  0.094428  0  1.023117  0  0  0.096197  0  1.021343  0  0.101979  0  0.110248  0.093059  0  1.024471  0
H  H65  1  0.22210654  0.03635374  0.51498366  1  0  0.085984  0  0.948999  0  0  0.094573  0  1.021568  0  0  0.096298  0  1.019818  0  0.099922  0  0.110376  0.093245  0  1.022909  0
H  H66  1  0.34708575  0.29605671  0.38320770  1  0  0.092076  0  0.967356  0  0  0.106428  0  1.034132  0  0  0.106787  0  1.034384  0  0.126531  0  0.110201  0.106008  0  1.03407  0
H  H67  1  0.15299305  0.91196007  0.61592337  1  0  0.092511  0  0.968437  0  0  0.107342  0  1.034507  0  0  0.107689  0  1.034874  0  0.110842  0  0.110197  0.106913  0  1.034455  0
H  H68  1  0.65291317  0.70393963  0.61678472  1  0  0.092065  0  0.967207  0  0  0.106443  0  1.033981  0  0  0.106803  0  1.034228  0  0.12644  0  0.110178  0.106023  0  1.033917  0
H  H69  1  0.84700674  0.08804332  0.38408348  1  0  0.092542  0  0.968463  0  0  0.107329  0  1.034628  0  0  0.107672  0  1.035002  0  0.110538  0  0.110178  0.106901  0  1.034577  0
H  H70  1  0.37960077  0.40147158  0.31997200  1  0  0.066784  0  0.945664  0  0  0.076786  0  1.021126  0  0  0.077016  0  1.021544  0  0.057129  0  0.096615  0.076372  0  1.021435  0
H  H71  1  0.11990407  0.08157860  0.68026128  1  0  0.066284  0  0.946298  0  0  0.076212  0  1.022193  0  0  0.076386  0  1.022713  0  0.050143  0  0.096289  0.075845  0  1.022455  0
H  H72  1  0.62039896  0.59852375  0.68002180  1  0  0.066754  0  0.945779  0  0  0.076767  0  1.021227  0  0  0.076993  0  1.021648  0  0.057219  0  0.096602  0.076354  0  1.021534  0
H  H73  1  0.88009734  0.91842277  0.31974509  1  0  0.066307  0  0.946298  0  0  0.076236  0  1.022188  0  0  0.076415  0  1.022702  0  0.050211  0  0.096283  0.07587  0  1.02245  0
C  C74  1  0.45303425  0.83962931  0.22688313  1  0  -0.003852  0  3.595895  0  0  -0.000762  0  3.834601  0  0  -0.001132  0  3.852728  0  -0.096285  0  -0.084249  -0.000488  0  3.822431  0
C  C75  1  0.04734411  0.61287044  0.77148292  1  0  -0.006715  0  3.596641  0  0  -0.003373  0  3.835893  0  0  -0.003686  0  3.853916  0  -0.113121  0  -0.086394  -0.003258  0  3.823686  0
C  C76  1  0.54696528  0.16037207  0.77311154  1  0  -0.003801  0  3.595983  0  0  -0.000756  0  3.834722  0  0  -0.001133  0  3.852834  0  -0.096086  0  -0.084247  -0.000517  0  3.822612  0
C  C77  1  0.95265493  0.38712691  0.22851559  1  0  -0.006788  0  3.596869  0  0  -0.003452  0  3.836108  0  0  -0.003777  0  3.854125  0  -0.113115  0  -0.08642  -0.003328  0  3.823899  0
C  C78  1  0.52066855  0.71386133  0.18356295  1  0  -0.140233  0  3.673385  0  0  -0.179046  0  3.924922  0  0  -0.180836  0  3.939278  0  -0.000857  0  -0.172278  -0.177569  0  3.91481  0
C  C79  1  0.97971197  0.53152150  0.81469817  1  0  -0.139483  0  3.673586  0  0  -0.178101  0  3.924459  0  0  -0.179915  0  3.938779  0  -0.033569  0  -0.172567  -0.176518  0  3.914139  0
C  C80  1  0.47933050  0.28613601  0.81642911  1  0  -0.140346  0  3.673553  0  0  -0.179074  0  3.924996  0  0  -0.180884  0  3.939408  0  -0.000878  0  -0.17229  -0.177572  0  3.914844  0
C  C81  1  0.02028802  0.46847584  0.18530055  1  0  -0.139473  0  3.673625  0  0  -0.178079  0  3.924478  0  0  -0.179897  0  3.938815  0  -0.033612  0  -0.172566  -0.176502  0  3.914163  0
C  C82  1  0.42946496  0.58768642  0.13779348  1  0  -0.094351  0  3.675734  0  0  -0.132345  0  3.934325  0  0  -0.133559  0  3.949302  0  -0.017546  0  -0.168203  -0.131398  0  3.923659  0
C  C83  1  0.07106494  0.45108616  0.86089003  1  0  -0.096068  0  3.677238  0  0  -0.133548  0  3.934953  0  0  -0.134835  0  3.949971  0  -7.2e-05  0  -0.168409  -0.132559  0  3.924237  0
C  C84  1  0.57053258  0.41231394  0.86219951  1  0  -0.094474  0  3.675876  0  0  -0.132501  0  3.934472  0  0  -0.13372  0  3.949445  0  -0.017454  0  -0.168232  -0.131552  0  3.923809  0
C  C85  1  0.92893728  0.54891420  0.13911208  1  0  -0.095992  0  3.677185  0  0  -0.133467  0  3.934874  0  0  -0.134754  0  3.949892  0  -3.1e-05  0  -0.168355  -0.132478  0  3.924159  0
C  C86  1  0.36939595  0.60130988  0.24042014  1  0  -0.107846  0  3.689787  0  0  -0.145313  0  3.946958  0  0  -0.146276  0  3.961361  0  -0.017025  0  -0.175359  -0.144415  0  3.936845  0
C  C87  1  0.13182983  0.36063444  0.75868641  1  0  -0.107722  0  3.687634  0  0  -0.145183  0  3.944254  0  0  -0.146212  0  3.958713  0  -0.019938  0  -0.174936  -0.144304  0  3.934136  0
C  C88  1  0.63060346  0.39869048  0.75957407  1  0  -0.107803  0  3.689611  0  0  -0.14531  0  3.946853  0  0  -0.146277  0  3.961254  0  -0.016997  0  -0.175374  -0.144413  0  3.936745  0
C  C89  1  0.86817333  0.63936593  0.24131591  1  0  -0.107735  0  3.687548  0  0  -0.145189  0  3.944206  0  0  -0.14622  0  3.958671  0  -0.019977  0  -0.174954  -0.144308  0  3.934087  0
C  C90  1  0.30506307  0.72864518  0.28673801  1  0  -0.106598  0  3.675217  0  0  -0.144281  0  3.930945  0  0  -0.146004  0  3.945961  0  -0.038887  0  -0.173681  -0.143141  0  3.920643  0
C  C91  1  0.19598791  0.44069506  0.71253378  1  0  -0.109984  0  3.675748  0  0  -0.146813  0  3.930908  0  0  -0.148634  0  3.94593  0  -0.050144  0  -0.174284  -0.14557  0  3.920449  0
C  C92  1  0.69493846  0.27135720  0.71325833  1  0  -0.106526  0  3.675132  0  0  -0.144135  0  3.930828  0  0  -0.145864  0  3.945843  0  -0.038771  0  -0.173627  -0.142999  0  3.920529  0
C  C93  1  0.80401351  0.55930631  0.28746857  1  0  -0.109885  0  3.675653  0  0  -0.146808  0  3.930866  0  0  -0.14863  0  3.945896  0  -0.050345  0  -0.174291  -0.145565  0  3.920407  0
C  C94  1  0.39633693  0.85523409  0.33210673  1  0  -0.139838  0  3.675235  0  0  -0.183176  0  3.931704  0  0  -0.184901  0  3.947416  0  -0.028948  0  -0.172606  -0.181716  0  3.921049  0
C  C95  1  0.10425610  0.52150208  0.66643784  1  0  -0.137259  0  3.675302  0  0  -0.180441  0  3.931291  0  0  -0.18218  0  3.947146  0  -0.015367  0  -0.171726  -0.178912  0  3.919982  0
C  C96  1  0.60366460  0.14476829  0.66788881  1  0  -0.139945  0  3.675309  0  0  -0.183278  0  3.931774  0  0  -0.184997  0  3.947482  0  -0.028777  0  -0.17263  -0.181809  0  3.921127  0
C  C97  1  0.89574495  0.47849627  0.33356316  1  0  -0.137227  0  3.6753  0  0  -0.180338  0  3.931225  0  0  -0.18208  0  3.947088  0  -0.015225  0  -0.171693  -0.178816  0  3.919918  0
C  C98  1  0.48912946  0.12654761  0.32972358  1  0  -0.287591  0  3.617957  0  0  -0.324534  0  3.869761  0  0  -0.329005  0  3.876011  0  -0.157833  0  -0.151421  -0.321407  0  3.865176  0
C  C99  1  0.01115530  0.79811225  0.67031033  1  0  -0.285897  0  3.611338  0  0  -0.324135  0  3.864503  0  0  -0.328656  0  3.87074  0  -0.138559  0  -0.151314  -0.320753  0  3.859048  0
C  C100  1  0.51086840  0.87344772  0.67026898  1  0  -0.28759  0  3.617921  0  0  -0.324472  0  3.869706  0  0  -0.328985  0  3.875941  0  -0.157399  0  -0.151412  -0.321348  0  3.865122  0
C  C101  1  0.98884513  0.20188107  0.32968842  1  0  -0.285937  0  3.611171  0  0  -0.324134  0  3.864275  0  0  -0.328663  0  3.870519  0  -0.138404  0  -0.151279  -0.320778  0  3.858907  0
C  C102  1  0.58678067  0.25253013  0.40104557  1  0  0.535208  0  3.803782  0  0  0.490833  0  4.09648  0  0  0.519312  0  4.097803  0  1.403279  0  0.230289  0.471597  0  4.094875  0
C  C103  1  0.91335854  0.85297979  0.59901237  1  0  0.534484  0  3.80255  0  0  0.491468  0  4.093893  0  0  0.520011  0  4.095179  0  1.381505  0  0.230418  0.472588  0  4.091357  0
C  C104  1  0.41322314  0.74746017  0.59895268  1  0  0.535077  0  3.80391  0  0  0.490741  0  4.096505  0  0  0.51922  0  4.097833  0  1.403131  0  0.230246  0.471506  0  4.0949  0
C  C105  1  0.08664618  0.14702561  0.40099725  1  0  0.534581  0  3.802523  0  0  0.491511  0  4.093918  0  0  0.520053  0  4.095205  0  1.382011  0  0.230438  0.472626  0  4.091381  0
C  C106  1  0.62487872  0.49561096  0.48447429  1  0  -0.00541  0  3.636222  0  0  -0.070422  0  3.90357  0  0  -0.065457  0  3.913302  0  0.297401  0  -0.059862  -0.07372  0  3.896744  0
C  C107  1  0.87500036  0.01175496  0.51512552  1  0  -0.00701  0  3.635026  0  0  -0.068509  0  3.898941  0  0  -0.063405  0  3.908546  0  0.289385  0  -0.060155  -0.0719  0  3.892233  0
C  C108  1  0.37512052  0.50438034  0.51552013  1  0  -0.005124  0  3.635944  0  0  -0.070169  0  3.903209  0  0  -0.065206  0  3.912947  0  0.297887  0  -0.059729  -0.073457  0  3.896373  0
C  C109  1  0.12500036  0.98824843  0.48488154  1  0  -0.006646  0  3.634894  0  0  -0.068376  0  3.899056  0  0  -0.063271  0  3.908661  0  0.289149  0  -0.060133  -0.071767  0  3.892345  0
C  C110  1  0.40529949  0.38652959  0.40428566  1  0  -0.030444  0  3.65871  0  0  -0.095418  0  3.923279  0  0  -0.091916  0  3.936529  0  0.264672  0  -0.06507  -0.097686  0  3.914178  0
C  C111  1  0.09453769  0.98189451  0.59543663  1  0  -0.030283  0  3.657819  0  0  -0.096076  0  3.922809  0  0  -0.092522  0  3.93581  0  0.289209  0  -0.065437  -0.098488  0  3.914068  0
C  C112  1  0.59470000  0.61346373  0.59570724  1  0  -0.03033  0  3.658591  0  0  -0.095404  0  3.923255  0  0  -0.091906  0  3.936516  0  0.264833  0  -0.064992  -0.097673  0  3.914159  0
C  C113  1  0.90546303  0.01810888  0.40457043  1  0  -0.030367  0  3.657815  0  0  -0.096219  0  3.922757  0  0  -0.092662  0  3.935752  0  0.289533  0  -0.065485  -0.098626  0  3.914003  0
S  S114  1  0.57175832  0.98014587  0.27244104  1  0  0.073274  0  2.735224  0  0  0.099438  0  3.142668  0  0  0.09741  0  3.132643  0  0.013205  0  -0.011921  0.10077  0  3.148973  0
S  S115  1  0.92855959  0.70873730  0.72616531  1  0  0.072865  0  2.729548  0  0  0.099291  0  3.136407  0  0  0.097142  0  3.126607  0  0.014301  0  -0.011984  0.100619  0  3.141922  0
S  S116  1  0.42823922  0.01985450  0.72755275  1  0  0.073301  0  2.735203  0  0  0.099465  0  3.142632  0  0  0.097438  0  3.132624  0  0.013217  0  -0.011881  0.10081  0  3.148938  0
S  S117  1  0.07143933  0.29125903  0.27383033  1  0  0.07288  0  2.729518  0  0  0.09929  0  3.136385  0  0  0.097141  0  3.126598  0  0.014335  0  -0.01199  0.100616  0  3.141901  0
I  I118  1  0.61783536  0.20075090  0.10668172  1  0  -0.229987  0  1.855311  0  0  -0.168836  0  2.307299  0  0  -0.184567  0  2.265754  0  -0.33992  0  -0.112132  -0.159718  0  2.338698  0
I  I119  1  0.88019785  0.09524235  0.89525477  1  0  -0.228326  0  1.860776  0  0  -0.16733  0  2.312503  0  0  -0.183125  0  2.271151  0  -0.336502  0  -0.11146  -0.158716  0  2.34333  0
I  I120  1  0.38216406  0.79924947  0.89331411  1  0  -0.230005  0  1.85548  0  0  -0.168826  0  2.307448  0  0  -0.184573  0  2.265927  0  -0.339919  0  -0.112141  -0.159707  0  2.338846  0
I  I121  1  0.11980343  0.90475801  0.10474471  1  0  -0.228381  0  1.860769  0  0  -0.16737  0  2.312458  0  0  -0.183165  0  2.271106  0  -0.336631  0  -0.111464  -0.158756  0  2.34328  0
I  I122  1  0.75140821  0.79073996  0.00020196  1  0  -0.273409  0  1.774878  0  0  -0.215961  0  2.219239  0  0  -0.230865  0  2.177673  0  -0.351515  0  -0.134105  -0.208567  0  2.253073  0
I  I123  1  0.24859764  0.20925939  0.99979813  1  0  -0.273426  0  1.774962  0  0  -0.215933  0  2.219266  0  0  -0.230841  0  2.1777  0  -0.351503  0  -0.1341  -0.208538  0  2.253094  0
N  N124  1  0.53976450  0.37224334  0.43565243  1  0  -0.221162  0  3.383231  0  0  -0.133556  0  3.621546  0  0  -0.155027  0  3.643618  0  -1.191275  0  -0.284658  -0.11873  0  3.605976  0
N  N125  1  0.96014085  0.93666462  0.56368432  1  0  -0.221051  0  3.380914  0  0  -0.134913  0  3.619351  0  0  -0.156454  0  3.64133  0  -1.181609  0  -0.284478  -0.12009  0  3.603704  0
N  N126  1  0.46023417  0.62775098  0.56434232  1  0  -0.221194  0  3.383299  0  0  -0.133487  0  3.621557  0  0  -0.154958  0  3.643618  0  -1.191584  0  -0.284657  -0.118663  0  3.605988  0
N  N127  1  0.03985999  0.06333978  0.43632238  1  0  -0.221176  0  3.380918  0  0  -0.13498  0  3.619428  0  0  -0.156521  0  3.641397  0  -1.181923  0  -0.284493  -0.120153  0  3.603783  0
O  O128  1  0.70238452  0.24461291  0.42555157  1  0  -0.557254  0  1.941529  0  0  -0.517236  0  2.170749  0  0  -0.537468  0  2.164741  0  -1.147058  0  -0.308421  -0.503301  0  2.174501  0
O  O129  1  0.79778396  0.82190823  0.57522003  1  0  -0.557043  0  1.940832  0  0  -0.517548  0  2.169398  0  0  -0.537814  0  2.163442  0  -1.144171  0  -0.308557  -0.503643  0  2.172636  0
O  O130  1  0.29761534  0.75538343  0.57444993  1  0  -0.557294  0  1.941376  0  0  -0.517327  0  2.170591  0  0  -0.537551  0  2.164569  0  -1.146979  0  -0.308502  -0.503394  0  2.17435  0
O  O131  1  0.20221525  0.17809818  0.42478473  1  0  -0.557022  0  1.9409  0  0  -0.517479  0  2.169465  0  0  -0.537743  0  2.163507  0  -1.144207  0  -0.308541  -0.503572  0  2.172705  0
