# generated using pymatgen
data_CdP2H9C7NO7
_symmetry_space_group_name_H-M   'P 1'
_cell_length_a   5.66835274
_cell_length_b   12.74598133
_cell_length_c   15.98109752
_cell_angle_alpha   90.00062555
_cell_angle_beta   90.00031795
_cell_angle_gamma   102.10111950
_symmetry_Int_Tables_number   1
_chemical_formula_structural   CdP2H9C7NO7
_chemical_formula_sum   'Cd4 P8 H36 C28 N4 O28'
_cell_volume   1128.95729963
_cell_formula_units_Z   4
loop_
 _symmetry_equiv_pos_site_id
 _symmetry_equiv_pos_as_xyz
  1  'x, y, z'
loop_
 _atom_site_type_symbol
 _atom_site_label
 _atom_site_symmetry_multiplicity
 _atom_site_fract_x
 _atom_site_fract_y
 _atom_site_fract_z
 _atom_site_occupancy
 _atom_site_hle17_bader_spin_density
 _atom_site_hle17_ddec_charge
 _atom_site_hle17_ddec_spin_density
 _atom_site_hle17_ddec_sum_bond_order
 _atom_site_hle17_magmom
 _atom_site_hse06_10hf_bader_spin_density
 _atom_site_hse06_10hf_ddec_charge
 _atom_site_hse06_10hf_ddec_spin_density
 _atom_site_hse06_10hf_ddec_sum_bond_order
 _atom_site_hse06_10hf_magmom
 _atom_site_hse06_bader_spin_density
 _atom_site_hse06_ddec_charge
 _atom_site_hse06_ddec_spin_density
 _atom_site_hse06_ddec_sum_bond_order
 _atom_site_hse06_magmom
 _atom_site_pbe_bader_spin_density
 _atom_site_pbe_cm5_charge
 _atom_site_pbe_ddec_charge
 _atom_site_pbe_ddec_spin_density
 _atom_site_pbe_ddec_sum_bond_order
 _atom_site_pbe_magmom
Cd  Cd0  1  0.80630125  0.04023994  0.42030559  1  0  1.352234  0  1.62366  0  0  1.186375  0  2.078401  0  0  1.237067  0  2.01834  0  0  0.815235  1.149695  0  2.119997  0
Cd  Cd1  1  0.19371314  0.45975347  0.92030948  1  0  1.352246  0  1.623648  0  0  1.186415  0  2.07838  0  0  1.237105  0  2.018323  0  0  0.815238  1.149738  0  2.119978  0
Cd  Cd2  1  0.19371743  0.95976271  0.57970306  1  0  1.35219  0  1.623608  0  0  1.186368  0  2.078291  0  0  1.237055  0  2.018242  0  0  0.815203  1.14968  0  2.119907  0
Cd  Cd3  1  0.80628133  0.54024166  0.07969666  1  0  1.352212  0  1.623568  0  0  1.186401  0  2.078249  0  0  1.237089  0  2.0182  0  0  0.815245  1.149734  0  2.119816  0
P  P4  1  0.25410839  0.90429411  0.36936500  1  0  1.39641  0  4.97785  0  0  1.23208  0  5.48024  0  0  1.282523  0  5.446025  0  0  0.312818  1.196929  0  5.50284  0
P  P5  1  0.74589947  0.59570684  0.86935852  1  0  1.396268  0  4.97784  0  0  1.23205  0  5.48024  0  0  1.282497  0  5.446003  0  0  0.31276  1.196908  0  5.502828  0
P  P6  1  0.74591997  0.09570628  0.63063551  1  0  1.396573  0  4.977386  0  0  1.232363  0  5.479706  0  0  1.282808  0  5.445469  0  0  0.312936  1.197215  0  5.5023  0
P  P7  1  0.25407500  0.40429120  0.13064262  1  0  1.396654  0  4.977587  0  0  1.232488  0  5.47995  0  0  1.282946  0  5.445712  0  0  0.312922  1.197345  0  5.502541  0
P  P8  1  0.31996920  0.14498981  0.33251815  1  0  1.439011  0  4.822322  0  0  1.277093  0  5.321587  0  0  1.32694  0  5.28467  0  0  0.343775  1.242278  0  5.346472  0
P  P9  1  0.68003807  0.35501172  0.83251886  1  0  1.438951  0  4.822133  0  0  1.277122  0  5.321459  0  0  1.326971  0  5.284536  0  0  0.343827  1.242306  0  5.34635  0
P  P10  1  0.68006141  0.85500742  0.66748236  1  0  1.439166  0  4.821753  0  0  1.277326  0  5.320977  0  0  1.327179  0  5.284058  0  0  0.343976  1.242515  0  5.345857  0
P  P11  1  0.31995317  0.64498416  0.16748040  1  0  1.438948  0  4.821745  0  0  1.277255  0  5.321007  0  0  1.327109  0  5.284082  0  0  0.344057  1.242425  0  5.3459  0
H  H12  1  0.46270687  0.26184608  0.95913471  1  0  0.318044  0  0.928214  0  0  0.293114  0  0.993269  0  0  0.30295  0  0.985619  0  0  0.310528  0.286211  0  0.998643  0
H  H13  1  0.53727878  0.23816187  0.45913209  1  0  0.318212  0  0.927964  0  0  0.293069  0  0.99335  0  0  0.302901  0  0.985705  0  0  0.310603  0.286173  0  0.998715  0
H  H14  1  0.53725679  0.73816457  0.04086079  1  0  0.318256  0  0.927946  0  0  0.293154  0  0.993288  0  0  0.302982  0  0.985645  0  0  0.310637  0.286256  0  0.998655  0
H  H15  1  0.46274523  0.76184085  0.54085715  1  0  0.318274  0  0.927969  0  0  0.293122  0  0.993382  0  0  0.302955  0  0.985735  0  0  0.310614  0.286225  0  0.998752  0
H  H16  1  0.27966444  0.75435109  0.27695268  1  0  0.43753  0  0.875293  0  0  0.401334  0  0.946555  0  0  0.413825  0  0.929143  0  0  0.298099  0.392622  0  0.958647  0
H  H17  1  0.72035442  0.74565498  0.77694874  1  0  0.437521  0  0.875299  0  0  0.401318  0  0.946572  0  0  0.413805  0  0.929165  0  0  0.298096  0.392603  0  0.95867  0
H  H18  1  0.72036829  0.24565574  0.72304658  1  0  0.437459  0  0.875369  0  0  0.401261  0  0.946638  0  0  0.413745  0  0.929236  0  0  0.298026  0.392543  0  0.958743  0
H  H19  1  0.27961681  0.25434381  0.22304614  1  0  0.437463  0  0.875375  0  0  0.401247  0  0.946674  0  0  0.413738  0  0.92926  0  0  0.298023  0.392524  0  0.958784  0
H  H20  1  0.94013420  0.90791804  0.26093942  1  0  0.385227  0  0.828184  0  0  0.370091  0  0.883691  0  0  0.379505  0  0.873265  0  0  0.321468  0.363356  0  0.891194  0
H  H21  1  0.05987668  0.59208209  0.76093979  1  0  0.385257  0  0.828197  0  0  0.37013  0  0.883691  0  0  0.379551  0  0.873247  0  0  0.321478  0.363397  0  0.891187  0
H  H22  1  0.05988124  0.09207658  0.73906673  1  0  0.385277  0  0.828083  0  0  0.370164  0  0.883572  0  0  0.379588  0  0.873118  0  0  0.321462  0.363426  0  0.891086  0
H  H23  1  0.94012409  0.40791552  0.23907261  1  0  0.385293  0  0.828065  0  0  0.370072  0  0.883704  0  0  0.379491  0  0.873264  0  0  0.321439  0.363335  0  0.891209  0
H  H24  1  0.05543621  0.00795786  0.10090492  1  0  0.112887  0  0.959192  0  0  0.12013  0  1.02363  0  0  0.123512  0  1.022632  0  0  0.10982  0.11767  0  1.024564  0
H  H25  1  0.94457547  0.49204737  0.60090546  1  0  0.112925  0  0.959229  0  0  0.120165  0  1.023669  0  0  0.12352  0  1.0227  0  0  0.109828  0.11772  0  1.024591  0
H  H26  1  0.94456891  0.99203742  0.89909559  1  0  0.112855  0  0.959053  0  0  0.120114  0  1.023496  0  0  0.123469  0  1.022527  0  0  0.109818  0.117657  0  1.024432  0
H  H27  1  0.05542673  0.50794069  0.39909755  1  0  0.112858  0  0.959267  0  0  0.120148  0  1.02364  0  0  0.123517  0  1.022656  0  0  0.109868  0.117687  0  1.024574  0
H  H28  1  0.09738629  0.14001558  0.98080506  1  0  0.090438  0  0.928686  0  0  0.103017  0  0.985787  0  0  0.105265  0  0.983902  0  0  0.131235  0.101324  0  0.987227  0
H  H29  1  0.90261651  0.35999454  0.48080169  1  0  0.090495  0  0.928725  0  0  0.103059  0  0.985862  0  0  0.105307  0  0.983974  0  0  0.131235  0.101369  0  0.987295  0
H  H30  1  0.90262900  0.85998304  0.01920045  1  0  0.090561  0  0.928564  0  0  0.103132  0  0.98569  0  0  0.105381  0  0.983801  0  0  0.131276  0.101437  0  0.987127  0
H  H31  1  0.09739684  0.64000803  0.51919569  1  0  0.090367  0  0.928787  0  0  0.102942  0  0.985889  0  0  0.105187  0  0.984005  0  0  0.131223  0.10125  0  0.987327  0
H  H32  1  0.81064831  0.26741986  0.04005800  1  0  0.112934  0  0.94042  0  0  0.117239  0  1.007713  0  0  0.120444  0  1.004373  0  0  0.131299  0.114677  0  1.01044  0
H  H33  1  0.18932205  0.23258625  0.54003984  1  0  0.112836  0  0.940544  0  0  0.117212  0  1.007789  0  0  0.12038  0  1.004492  0  0  0.131257  0.114649  0  1.010511  0
H  H34  1  0.18928985  0.73258007  0.95994877  1  0  0.112965  0  0.940471  0  0  0.11711  0  1.007941  0  0  0.120408  0  1.004484  0  0  0.131254  0.114556  0  1.010644  0
H  H35  1  0.81069116  0.76742908  0.45994753  1  0  0.112927  0  0.940442  0  0  0.117125  0  1.007856  0  0  0.120376  0  1.004451  0  0  0.131251  0.114573  0  1.010565  0
H  H36  1  0.80101734  0.14289608  0.16152844  1  0  0.141774  0  0.935452  0  0  0.148564  0  0.994964  0  0  0.152346  0  0.99369  0  0  0.118361  0.145811  0  0.996135  0
H  H37  1  0.19896144  0.35710802  0.66151704  1  0  0.141818  0  0.935387  0  0  0.148627  0  0.994856  0  0  0.152397  0  0.993598  0  0  0.118397  0.145873  0  0.996031  0
H  H38  1  0.19893292  0.85710322  0.83847582  1  0  0.141779  0  0.935249  0  0  0.148615  0  0.994705  0  0  0.152364  0  0.993477  0  0  0.118367  0.14586  0  0.995886  0
H  H39  1  0.80103563  0.64290230  0.33847909  1  0  0.141761  0  0.935522  0  0  0.148552  0  0.995003  0  0  0.152331  0  0.993734  0  0  0.118374  0.1458  0  0.996171  0
H  H40  1  0.59654834  0.99674280  0.24019750  1  0  0.10847  0  0.956275  0  0  0.122322  0  1.021534  0  0  0.124169  0  1.020174  0  0  0.105692  0.120923  0  1.022588  0
H  H41  1  0.40343865  0.50326466  0.74019395  1  0  0.108547  0  0.956447  0  0  0.122391  0  1.021679  0  0  0.124229  0  1.02034  0  0  0.105738  0.121022  0  1.022693  0
H  H42  1  0.40344727  0.00326829  0.75978800  1  0  0.10854  0  0.956345  0  0  0.122409  0  1.021592  0  0  0.124248  0  1.020241  0  0  0.105731  0.121047  0  1.022596  0
H  H43  1  0.59654162  0.49673028  0.25979905  1  0  0.108489  0  0.956432  0  0  0.122321  0  1.021693  0  0  0.124161  0  1.02034  0  0  0.105726  0.120948  0  1.022711  0
H  H44  1  0.35382871  0.90608311  0.19385400  1  0  0.116137  0  0.924137  0  0  0.131185  0  0.983574  0  0  0.133546  0  0.981753  0  0  0.108626  0.129451  0  0.984909  0
H  H45  1  0.64620313  0.59391071  0.69384419  1  0  0.116078  0  0.924265  0  0  0.131138  0  0.983644  0  0  0.133494  0  0.981838  0  0  0.108638  0.129406  0  0.984979  0
H  H46  1  0.64620803  0.09391182  0.80614339  1  0  0.11608  0  0.924246  0  0  0.131154  0  0.98367  0  0  0.133509  0  0.981858  0  0  0.108606  0.129421  0  0.985012  0
H  H47  1  0.35381086  0.40608469  0.30614944  1  0  0.116118  0  0.924196  0  0  0.131179  0  0.983578  0  0  0.133533  0  0.981767  0  0  0.108662  0.129441  0  0.98492  0
C  C48  1  0.42695769  0.06280067  0.14033834  1  0  0.199245  0  3.659063  0  0  0.211475  0  3.898194  0  0  0.218972  0  3.918061  0  0  0.029614  0.206479  0  3.884837  0
C  C49  1  0.57302913  0.43720243  0.64032770  1  0  0.199483  0  3.658911  0  0  0.211566  0  3.898122  0  0  0.219163  0  3.917854  0  0  0.029679  0.206563  0  3.884788  0
C  C50  1  0.57301129  0.93720129  0.85967782  1  0  0.199462  0  3.659336  0  0  0.211713  0  3.898391  0  0  0.219222  0  3.918231  0  0  0.029744  0.206684  0  3.885092  0
C  C51  1  0.42698713  0.56279859  0.35966968  1  0  0.199574  0  3.658827  0  0  0.211703  0  3.897987  0  0  0.219265  0  3.917765  0  0  0.029765  0.206704  0  3.884635  0
C  C52  1  0.22741500  0.06152528  0.08786428  1  0  -0.169026  0  3.686143  0  0  -0.19196  0  3.946838  0  0  -0.201123  0  3.967953  0  0  -0.080362  -0.186179  0  3.932932  0
C  C53  1  0.77258959  0.43848045  0.58785840  1  0  -0.169316  0  3.686303  0  0  -0.192204  0  3.947074  0  0  -0.201377  0  3.968173  0  0  -0.080497  -0.186443  0  3.933175  0
C  C54  1  0.77257899  0.93847303  0.91214186  1  0  -0.169117  0  3.686239  0  0  -0.192071  0  3.946953  0  0  -0.201218  0  3.968076  0  0  -0.080469  -0.186293  0  3.933068  0
C  C55  1  0.22740488  0.56151469  0.41214023  1  0  -0.169067  0  3.685805  0  0  -0.192025  0  3.946565  0  0  -0.201198  0  3.967662  0  0  -0.080428  -0.186249  0  3.932662  0
C  C56  1  0.24658515  0.13324899  0.02197991  1  0  0.143244  0  3.652009  0  0  0.101592  0  3.908729  0  0  0.11055  0  3.924667  0  0  0.064674  0.095868  0  3.897965  0
C  C57  1  0.75343914  0.36675601  0.52197398  1  0  0.143552  0  3.652081  0  0  0.101888  0  3.908756  0  0  0.110849  0  3.924693  0  0  0.064863  0.096156  0  3.897998  0
C  C58  1  0.75344353  0.86675220  0.97802498  1  0  0.143386  0  3.652092  0  0  0.101735  0  3.908814  0  0  0.110698  0  3.924742  0  0  0.064778  0.096015  0  3.898044  0
C  C59  1  0.24658744  0.63324436  0.47801965  1  0  0.143416  0  3.651873  0  0  0.101784  0  3.908575  0  0  0.110751  0  3.924503  0  0  0.06471  0.096057  0  3.897814  0
C  C60  1  0.65255051  0.20561070  0.05502526  1  0  0.175021  0  3.588631  0  0  0.129815  0  3.849945  0  0  0.140268  0  3.863069  0  0  0.072581  0.123021  0  3.841352  0
C  C61  1  0.34742842  0.29438540  0.55502045  1  0  0.17524  0  3.588207  0  0  0.129903  0  3.84954  0  0  0.140385  0  3.86268  0  0  0.072642  0.12311  0  3.840934  0
C  C62  1  0.34739199  0.79437812  0.94497900  1  0  0.175067  0  3.587945  0  0  0.130004  0  3.849147  0  0  0.140397  0  3.86222  0  0  0.072612  0.123208  0  3.840556  0
C  C63  1  0.65260188  0.70561981  0.44497568  1  0  0.1751  0  3.588022  0  0  0.13001  0  3.849174  0  0  0.14044  0  3.862278  0  0  0.072617  0.123204  0  3.840598  0
C  C64  1  0.64264612  0.13575823  0.12169746  1  0  -0.149858  0  3.641506  0  0  -0.171371  0  3.898055  0  0  -0.180318  0  3.917328  0  0  -0.068641  -0.165809  0  3.885496  0
C  C65  1  0.35734976  0.36424630  0.62168954  1  0  -0.150087  0  3.641505  0  0  -0.171496  0  3.898049  0  0  -0.180465  0  3.917295  0  0  -0.068653  -0.165936  0  3.885497  0
C  C66  1  0.35734432  0.86424880  0.87831744  1  0  -0.150014  0  3.641927  0  0  -0.171488  0  3.898293  0  0  -0.180419  0  3.917615  0  0  -0.068616  -0.165922  0  3.885753  0
C  C67  1  0.64266860  0.63575555  0.37830910  1  0  -0.149973  0  3.641783  0  0  -0.171424  0  3.898226  0  0  -0.180395  0  3.9175  0  0  -0.068637  -0.165863  0  3.88567  0
C  C68  1  0.41421524  0.98986742  0.21465462  1  0  -0.202489  0  3.695576  0  0  -0.251583  0  3.934791  0  0  -0.252672  0  3.944994  0  0  -0.156635  -0.250512  0  3.927703  0
C  C69  1  0.58576499  0.51013317  0.71464897  1  0  -0.202608  0  3.695654  0  0  -0.251566  0  3.934862  0  0  -0.252691  0  3.945069  0  0  -0.156725  -0.250518  0  3.927766  0
C  C70  1  0.58576890  0.01012836  0.78534964  1  0  -0.202541  0  3.69567  0  0  -0.251695  0  3.93497  0  0  -0.252778  0  3.945178  0  0  -0.156711  -0.250638  0  3.927883  0
C  C71  1  0.41422674  0.48986830  0.28534967  1  0  -0.202635  0  3.695701  0  0  -0.25157  0  3.934941  0  0  -0.252664  0  3.945131  0  0  -0.156779  -0.250513  0  3.927838  0
C  C72  1  0.24383979  0.00728740  0.28686603  1  0  -0.233405  0  3.619856  0  0  -0.191565  0  3.869268  0  0  -0.199966  0  3.879539  0  0  0.044574  -0.185978  0  3.862267  0
C  C73  1  0.75615848  0.49271570  0.78686248  1  0  -0.233124  0  3.619359  0  0  -0.191596  0  3.869232  0  0  -0.200001  0  3.879511  0  0  0.044637  -0.185998  0  3.862211  0
C  C74  1  0.75616275  0.99271024  0.71313823  1  0  -0.233354  0  3.619623  0  0  -0.19169  0  3.86936  0  0  -0.200101  0  3.879639  0  0  0.04466  -0.186096  0  3.862357  0
C  C75  1  0.24381808  0.50728317  0.21313991  1  0  -0.233199  0  3.619425  0  0  -0.191846  0  3.869619  0  0  -0.200263  0  3.879898  0  0  0.044674  -0.186244  0  3.862588  0
N  N76  1  0.45619900  0.20231368  0.00687256  1  0  -0.215649  0  3.449794  0  0  -0.142175  0  3.673102  0  0  -0.158014  0  3.688191  0  0  -0.339069  -0.131853  0  3.662997  0
N  N77  1  0.54381266  0.29768693  0.50686501  1  0  -0.215972  0  3.449281  0  0  -0.142361  0  3.672786  0  0  -0.158197  0  3.68786  0  0  -0.339258  -0.132037  0  3.662676  0
N  N78  1  0.54381435  0.79768890  0.99313671  1  0  -0.215944  0  3.448815  0  0  -0.142422  0  3.672265  0  0  -0.158263  0  3.687376  0  0  -0.339195  -0.132103  0  3.662159  0
N  N79  1  0.45620199  0.70231886  0.49313175  1  0  -0.215969  0  3.448911  0  0  -0.142427  0  3.672342  0  0  -0.158271  0  3.687437  0  0  -0.339212  -0.132108  0  3.662247  0
O  O80  1  0.51469914  0.90375269  0.39314770  1  0  -0.854923  0  2.01158  0  0  -0.767218  0  2.297944  0  0  -0.797164  0  2.278027  0  0  -0.386764  -0.745839  0  2.310972  0
O  O81  1  0.48529992  0.59624293  0.89313950  1  0  -0.854889  0  2.011361  0  0  -0.76724  0  2.297738  0  0  -0.797187  0  2.277826  0  0  -0.386824  -0.745864  0  2.31076  0
O  O82  1  0.48532454  0.09624923  0.60685031  1  0  -0.854901  0  2.011417  0  0  -0.767231  0  2.297765  0  0  -0.797176  0  2.277853  0  0  -0.386733  -0.745857  0  2.310797  0
O  O83  1  0.51467357  0.40375271  0.10685976  1  0  -0.854954  0  2.011365  0  0  -0.767273  0  2.297717  0  0  -0.79722  0  2.2778  0  0  -0.386821  -0.745901  0  2.310749  0
O  O84  1  0.12454694  0.79977379  0.32713202  1  0  -0.809979  0  1.9242  0  0  -0.730903  0  2.157333  0  0  -0.757702  0  2.140101  0  0  -0.37219  -0.711819  0  2.168691  0
O  O85  1  0.87547603  0.70022274  0.82712984  1  0  -0.809964  0  1.924171  0  0  -0.730981  0  2.157404  0  0  -0.757752  0  2.140147  0  0  -0.372232  -0.711907  0  2.168762  0
O  O86  1  0.87550030  0.20022527  0.67286849  1  0  -0.810063  0  1.924013  0  0  -0.731069  0  2.157227  0  0  -0.757837  0  2.139973  0  0  -0.372276  -0.711984  0  2.168584  0
O  O87  1  0.12449697  0.29976730  0.17287443  1  0  -0.810101  0  1.924121  0  0  -0.731077  0  2.157294  0  0  -0.757865  0  2.140041  0  0  -0.372217  -0.711995  0  2.168656  0
O  O88  1  0.10093237  0.93340367  0.44280425  1  0  -0.912241  0  2.087633  0  0  -0.810805  0  2.383998  0  0  -0.842054  0  2.359269  0  0  -0.38989  -0.788419  0  2.400251  0
O  O89  1  0.89906790  0.56660150  0.94280154  1  0  -0.912231  0  2.087651  0  0  -0.810791  0  2.383953  0  0  -0.84205  0  2.359245  0  0  -0.389857  -0.788411  0  2.400204  0
O  O90  1  0.89911246  0.06661131  0.55719439  1  0  -0.912272  0  2.087417  0  0  -0.810958  0  2.383983  0  0  -0.842206  0  2.359249  0  0  -0.389976  -0.788567  0  2.400227  0
O  O91  1  0.10091414  0.43339346  0.05719772  1  0  -0.912327  0  2.087617  0  0  -0.81096  0  2.384056  0  0  -0.842212  0  2.35932  0  0  -0.389902  -0.788584  0  2.40032  0
O  O92  1  0.53370288  0.14745570  0.39202929  1  0  -0.858786  0  2.026848  0  0  -0.77231  0  2.298289  0  0  -0.800149  0  2.276104  0  0  -0.378014  -0.752495  0  2.312989  0
O  O93  1  0.46630163  0.35254512  0.89202896  1  0  -0.858628  0  2.026959  0  0  -0.772298  0  2.298382  0  0  -0.800138  0  2.276192  0  0  -0.377991  -0.752477  0  2.313089  0
O  O94  1  0.46632000  0.85254861  0.60796622  1  0  -0.85883  0  2.026549  0  0  -0.772376  0  2.297975  0  0  -0.800218  0  2.27579  0  0  -0.378065  -0.752554  0  2.312674  0
O  O95  1  0.53366766  0.64744887  0.10795778  1  0  -0.85878  0  2.026795  0  0  -0.772365  0  2.298206  0  0  -0.800205  0  2.276019  0  0  -0.378085  -0.752534  0  2.312903  0
O  O96  1  0.09726440  0.17062787  0.37442882  1  0  -0.852371  0  1.934488  0  0  -0.770939  0  2.207777  0  0  -0.799111  0  2.185663  0  0  -0.395552  -0.750823  0  2.222338  0
O  O97  1  0.90273792  0.32937265  0.87443535  1  0  -0.852423  0  1.934519  0  0  -0.770962  0  2.20776  0  0  -0.799139  0  2.185653  0  0  -0.395573  -0.750853  0  2.222328  0
O  O98  1  0.90276073  0.82936450  0.62557169  1  0  -0.852463  0  1.934384  0  0  -0.771034  0  2.207637  0  0  -0.799207  0  2.185528  0  0  -0.395689  -0.750927  0  2.222205  0
O  O99  1  0.09722364  0.67062841  0.12557768  1  0  -0.852407  0  1.934164  0  0  -0.771012  0  2.20742  0  0  -0.799189  0  2.185314  0  0  -0.395729  -0.750904  0  2.221989  0
O  O100  1  0.41122246  0.22622071  0.26047661  1  0  -0.743579  0  2.043694  0  0  -0.664864  0  2.2687  0  0  -0.688684  0  2.246362  0  0  -0.377656  -0.64798  0  2.283783  0
O  O101  1  0.58877807  0.27378042  0.76047518  1  0  -0.743541  0  2.04378  0  0  -0.664834  0  2.268749  0  0  -0.688648  0  2.246414  0  0  -0.377622  -0.647946  0  2.28382  0
O  O102  1  0.58877362  0.77377843  0.73951890  1  0  -0.743632  0  2.043725  0  0  -0.664907  0  2.268721  0  0  -0.688734  0  2.24639  0  0  -0.377687  -0.648017  0  2.283774  0
O  O103  1  0.41123836  0.72622538  0.23951344  1  0  -0.743564  0  2.043745  0  0  -0.664962  0  2.268818  0  0  -0.688779  0  2.246474  0  0  -0.377781  -0.648081  0  2.283888  0
O  O104  1  0.99363494  0.98677477  0.25961388  1  0  -0.52642  0  2.088885  0  0  -0.479641  0  2.299944  0  0  -0.494852  0  2.290441  0  0  -0.373636  -0.468511  0  2.306288  0
O  O105  1  0.00637171  0.51322369  0.75961658  1  0  -0.526522  0  2.088804  0  0  -0.479674  0  2.29992  0  0  -0.494877  0  2.290415  0  0  -0.373662  -0.468557  0  2.306268  0
O  O106  1  0.00636921  0.01321811  0.74038163  1  0  -0.526467  0  2.088849  0  0  -0.4797  0  2.299972  0  0  -0.4949  0  2.290465  0  0  -0.373657  -0.468574  0  2.306321  0
O  O107  1  0.99361630  0.48677294  0.24039207  1  0  -0.526499  0  2.088781  0  0  -0.479528  0  2.300028  0  0  -0.494728  0  2.29053  0  0  -0.373604  -0.468408  0  2.306379  0
