# generated using pymatgen
data_CuH12C10S(NO3)2
_symmetry_space_group_name_H-M   'P 1'
_cell_length_a   7.10384900
_cell_length_b   9.70971543
_cell_length_c   9.72119459
_cell_angle_alpha   79.12310632
_cell_angle_beta   75.94585217
_cell_angle_gamma   76.06720601
_symmetry_Int_Tables_number   1
_chemical_formula_structural   CuH12C10S(NO3)2
_chemical_formula_sum   'Cu2 H24 C20 S2 N4 O12'
_cell_volume   625.25576715
_cell_formula_units_Z   2
loop_
 _symmetry_equiv_pos_site_id
 _symmetry_equiv_pos_as_xyz
  1  'x, y, z'
loop_
 _atom_site_type_symbol
 _atom_site_label
 _atom_site_symmetry_multiplicity
 _atom_site_fract_x
 _atom_site_fract_y
 _atom_site_fract_z
 _atom_site_occupancy
 _atom_site_pbe_bader_charge
 _atom_site_pbe_bader_spin_density
 _atom_site_pbe_cm5_charge
 _atom_site_pbe_ddec_charge
 _atom_site_pbe_ddec_spin_density
 _atom_site_pbe_ddec_sum_bond_order
 _atom_site_pbe_magmom
Cu  Cu0  1  0.24970478  0.27548355  0.22377112  1  1.103129  0.603857  0.754795  0.860973  0.757248  2.192393  0.602
Cu  Cu1  1  0.75029631  0.72451668  0.77622550  1  1.103128  0.603858  0.754797  0.860986  0.757248  2.192401  0.602
H  H2  1  0.30430814  0.03937521  0.04542872  1  0.103445  0.003207  0.121997  0.0972  0.001417  1.012963  0.003
H  H3  1  0.69569210  0.96062287  0.95457155  1  0.103432  0.003208  0.121988  0.09718  0.001418  1.012963  0.003
H  H4  1  0.32976773  0.77361202  0.09782536  1  0.135089  0.00132  0.114355  0.132652  0.000733  1.008809  0.001
H  H5  1  0.67023053  0.22638285  0.90217895  1  0.135247  0.00132  0.114336  0.13262  0.000733  1.00885  0.001
H  H6  1  0.31299360  0.65608079  0.35414455  1  0.073036  0.000373  0.111001  0.110704  0.000267  1.003644  0.0
H  H7  1  0.68701100  0.34391730  0.64586111  1  0.073104  0.000373  0.110988  0.110697  0.000267  1.003691  0.0
H  H8  1  0.26178487  0.80746408  0.54532229  1  0.170307  0.001529  0.111052  0.137114  0.000811  1.031332  0.001
H  H9  1  0.73821592  0.19253722  0.45468036  1  0.170352  0.00153  0.111037  0.137105  0.000811  1.031267  0.001
H  H10  1  0.23897947  0.95429543  0.69159901  1  0.171623  0.001532  0.111021  0.137455  0.000813  1.032058  0.001
H  H11  1  0.76101291  0.04570480  0.30840431  1  0.171598  0.001531  0.111042  0.137453  0.000813  1.032097  0.001
H  H12  1  0.18749620  0.14602380  0.84246521  1  0.087617  0.000384  0.110812  0.109877  0.000275  1.003931  0.0
H  H13  1  0.81250687  0.85397964  0.15752943  1  0.087646  0.000384  0.110832  0.109961  0.000275  1.003869  0.0
H  H14  1  0.16910232  0.40262249  0.72474021  1  0.147075  0.0013  0.113853  0.131878  0.000729  1.008638  0.001
H  H15  1  0.83091098  0.59737560  0.27525567  1  0.146991  0.0013  0.113893  0.131926  0.000729  1.008634  0.001
H  H16  1  0.19422284  0.45453012  0.45920523  1  0.140777  0.003146  0.121873  0.096846  0.001423  1.014045  0.003
H  H17  1  0.80578550  0.54547011  0.54079113  1  0.140781  0.003146  0.12188  0.096825  0.001423  1.014057  0.003
H  H18  1  0.10523546  0.31174714  0.01101653  1  0.644738  -0.000116  0.286962  0.375709  0.000184  0.979431  0.0
H  H19  1  0.89476974  0.68824880  0.98898223  1  0.644724  -0.000115  0.286968  0.375762  0.000184  0.979361  0.0
H  H20  1  0.30579232  0.37233870  0.95423417  1  0.634714  1.4e-05  0.290625  0.386706  0.000284  0.957189  0.0
H  H21  1  0.69421143  0.62765724  0.04576484  1  0.634611  1.4e-05  0.290635  0.386735  0.000285  0.957145  0.0
H  H22  1  0.39447447  0.48879991  0.18744428  1  0.645897  -0.000113  0.28714  0.375697  0.000193  0.979343  0.0
H  H23  1  0.60552081  0.51120032  0.81255543  1  0.64588  -0.000113  0.287121  0.375666  0.000193  0.979384  0.0
H  H24  1  0.19435272  0.54514277  0.12650938  1  0.650094  -1.9e-05  0.290777  0.386424  0.000287  0.957324  0.0
H  H25  1  0.80564401  0.45485745  0.87348905  1  0.650127  -1.9e-05  0.290785  0.386446  0.000287  0.957298  0.0
C  C26  1  0.29668654  0.98266414  0.15387871  1  0.490485  -0.001408  0.056257  0.105078  -0.001868  3.910392  -0.001
C  C27  1  0.70331485  0.01733501  0.84612115  1  0.490546  -0.001409  0.056273  0.105137  -0.001868  3.910422  -0.001
C  C28  1  0.31214909  0.83490222  0.18465141  1  -0.037719  0.007535  -0.072024  -0.103171  0.005058  3.911254  0.006
C  C29  1  0.68785085  0.16509693  0.81535179  1  -0.037867  0.007536  -0.07202  -0.103185  0.005059  3.911342  0.006
C  C30  1  0.30146103  0.77136682  0.32678462  1  0.010325  -0.003892  -0.060726  -0.011631  -0.004445  3.932331  -0.002
C  C31  1  0.69853716  0.22863340  0.67321972  1  0.009925  -0.003892  -0.060704  -0.011568  -0.004445  3.932485  -0.002
C  C32  1  0.27529374  0.85596173  0.43352984  1  -0.028094  0.004168  -0.075526  -0.149653  0.002842  3.90128  0.003
C  C33  1  0.72471200  0.14403742  0.56647336  1  -0.027782  0.004168  -0.075502  -0.149689  0.002841  3.901311  0.003
C  C34  1  0.26243360  0.00349851  0.39459778  1  0.487258  0.000901  0.118406  0.159858  -0.000166  4.00207  0.001
C  C35  1  0.73756749  0.99650171  0.60540193  1  0.487323  0.000901  0.118421  0.159919  -0.000166  4.002076  0.001
C  C36  1  0.23744275  0.10487414  0.49561855  1  0.44014  0.000908  0.11846  0.160305  -0.000166  4.002411  0.001
C  C37  1  0.76255338  0.89512823  0.50438061  1  0.440103  0.000908  0.118408  0.16028  -0.000166  4.002313  0.001
C  C38  1  0.22502108  0.06616543  0.64298945  1  -0.028808  0.004168  -0.075007  -0.149675  0.002855  3.901926  0.003
C  C39  1  0.77497389  0.93383586  0.35701012  1  -0.02872  0.004168  -0.075024  -0.149694  0.002855  3.901803  0.003
C  C40  1  0.19863528  0.17322372  0.72730270  1  0.024016  -0.003877  -0.060589  -0.010542  -0.004434  3.930401  -0.002
C  C41  1  0.80136961  0.82677329  0.27269488  1  0.024009  -0.003878  -0.060604  -0.010653  -0.004435  3.930379  -0.002
C  C42  1  0.18715684  0.31549533  0.66368362  1  -0.057121  0.007507  -0.071605  -0.10142  0.005065  3.90855  0.006
C  C43  1  0.81285447  0.68449954  0.33631425  1  -0.057115  0.007507  -0.071619  -0.101451  0.005065  3.908715  0.006
C  C44  1  0.20232110  0.34602739  0.51606521  1  0.431617  -0.001292  0.056715  0.104191  -0.001877  3.911114  -0.001
C  C45  1  0.79768663  0.65397498  0.48393188  1  0.431809  -0.001294  0.05669  0.104271  -0.001877  3.911214  -0.001
S  S46  1  0.74974981  0.34612717  0.15450001  1  3.787699  -0.000314  0.559571  1.416294  -0.000473  6.374832  0.0
S  S47  1  0.25024952  0.65387413  0.84549981  1  3.787777  -0.000313  0.559601  1.41635  -0.000472  6.374785  0.0
N  N48  1  0.27259697  0.06425151  0.25613752  1  -1.200297  0.100585  -0.341209  -0.26118  0.064768  3.589954  0.086
N  N49  1  0.72740412  0.93574871  0.74386425  1  -1.20037  0.100588  -0.341204  -0.261222  0.064769  3.589993  0.086
N  N50  1  0.22672413  0.24344885  0.43477567  1  -1.18969  0.100748  -0.341526  -0.260672  0.064854  3.591536  0.086
N  N51  1  0.77327955  0.75655245  0.56522337  1  -1.189976  0.100745  -0.341521  -0.260711  0.064852  3.591529  0.086
O  O52  1  0.87560691  0.32063069  0.26085427  1  -1.356917  -0.000395  -0.37041  -0.690218  -0.000855  2.217489  0.001
O  O53  1  0.12438860  0.67937382  0.73914768  1  -1.357004  -0.000394  -0.370398  -0.690227  -0.000855  2.217538  0.001
O  O54  1  0.61844975  0.49463872  0.15682289  1  -1.338576  0.001901  -0.362201  -0.665318  0.001034  2.227931  0.002
O  O55  1  0.38154728  0.50536043  0.84317672  1  -1.338546  0.001901  -0.362208  -0.665299  0.001033  2.227813  0.002
O  O56  1  0.88112382  0.34366400  0.00595192  1  -1.340182  0.0019  -0.36292  -0.665968  0.001032  2.229858  0.002
O  O57  1  0.11888270  0.65634266  0.99405075  1  -1.340166  0.001901  -0.362935  -0.666  0.001032  2.229844  0.002
O  O58  1  0.62390213  0.23937211  0.18047961  1  -1.358111  -0.000397  -0.370521  -0.690425  -0.00086  2.217698  0.001
O  O59  1  0.37609895  0.76062812  0.81951598  1  -1.358132  -0.000397  -0.370514  -0.69043  -0.00086  2.217714  0.001
O  O60  1  0.25110131  0.28957155  0.01657159  1  -1.212866  0.082445  -0.585392  -0.762494  0.051559  2.224487  0.072
O  O61  1  0.74890335  0.71042118  0.98342581  1  -1.212698  0.082443  -0.585401  -0.76255  0.051556  2.224452  0.072
O  O62  1  0.24873558  0.48284091  0.20922165  1  -1.230731  0.082395  -0.586025  -0.762613  0.051415  2.22641  0.072
O  O63  1  0.75126351  0.51715610  0.79077799  1  -1.230709  0.082396  -0.586033  -0.762622  0.051416  2.226372  0.072
