# generated using pymatgen
data_CdH9C11I2N3O
_symmetry_space_group_name_H-M   'P 1'
_cell_length_a   8.04845343
_cell_length_b   12.40900041
_cell_length_c   14.46020000
_cell_angle_alpha   90.00000000
_cell_angle_beta   90.00000000
_cell_angle_gamma   92.45567559
_symmetry_Int_Tables_number   1
_chemical_formula_structural   CdH9C11I2N3O
_chemical_formula_sum   'Cd4 H36 C44 I8 N12 O4'
_cell_volume   1442.86109680
_cell_formula_units_Z   4
loop_
 _symmetry_equiv_pos_site_id
 _symmetry_equiv_pos_as_xyz
  1  'x, y, z'
loop_
 _atom_site_type_symbol
 _atom_site_label
 _atom_site_symmetry_multiplicity
 _atom_site_fract_x
 _atom_site_fract_y
 _atom_site_fract_z
 _atom_site_occupancy
 _atom_site_hle17_bader_spin_density
 _atom_site_hle17_ddec_charge
 _atom_site_hle17_ddec_spin_density
 _atom_site_hle17_ddec_sum_bond_order
 _atom_site_hle17_magmom
 _atom_site_hse06_10hf_bader_spin_density
 _atom_site_hse06_10hf_ddec_charge
 _atom_site_hse06_10hf_ddec_spin_density
 _atom_site_hse06_10hf_ddec_sum_bond_order
 _atom_site_hse06_10hf_magmom
 _atom_site_hse06_bader_spin_density
 _atom_site_hse06_ddec_charge
 _atom_site_hse06_ddec_spin_density
 _atom_site_hse06_ddec_sum_bond_order
 _atom_site_hse06_magmom
 _atom_site_pbe_bader_charge
 _atom_site_pbe_bader_spin_density
 _atom_site_pbe_cm5_charge
 _atom_site_pbe_ddec_charge
 _atom_site_pbe_ddec_spin_density
 _atom_site_pbe_ddec_sum_bond_order
 _atom_site_pbe_magmom
Cd  Cd0  1  0.79700480  0.20639390  0.37080746  1  0  0.763483  0  2.060174  0  0  0.592572  0  2.526378  0  0  0.638831  0  2.491637  0  0.888764  0  0.533885  0.560956  0  2.549195  0
Cd  Cd1  1  0.70299532  0.29360591  0.87080746  1  0  0.763506  0  2.06017  0  0  0.592593  0  2.526376  0  0  0.638855  0  2.491633  0  0.888758  0  0.533898  0.560979  0  2.549193  0
Cd  Cd2  1  0.20299504  0.79360571  0.62919185  1  0  0.763496  0  2.060155  0  0  0.592569  0  2.526357  0  0  0.638831  0  2.491615  0  0.888765  0  0.533895  0.560957  0  2.549172  0
Cd  Cd3  1  0.29700452  0.70639371  0.12919185  1  0  0.763495  0  2.060172  0  0  0.592576  0  2.526372  0  0  0.638835  0  2.491631  0  0.88876  0  0.533901  0.560962  0  2.549188  0
H  H4  1  0.45819836  0.23214645  0.47995533  1  0  0.072065  0  0.971202  0  0  0.075705  0  1.049202  0  0  0.07913  0  1.045213  0  0.119036  0  0.100725  0.073243  0  1.052027  0
H  H5  1  0.04180342  0.26785335  0.97995463  1  0  0.072068  0  0.971188  0  0  0.075727  0  1.049183  0  0  0.079152  0  1.045193  0  0.119024  0  0.100722  0.073262  0  1.052012  0
H  H6  1  0.54180655  0.76785477  0.52004329  1  0  0.072047  0  0.971198  0  0  0.075737  0  1.04916  0  0  0.079161  0  1.045171  0  0.11907  0  0.10071  0.073271  0  1.051991  0
H  H7  1  0.95819144  0.73214626  0.02004467  1  0  0.07206  0  0.971187  0  0  0.075725  0  1.049188  0  0  0.07915  0  1.045199  0  0.119018  0  0.100708  0.073259  0  1.052019  0
H  H8  1  0.50430535  0.49470927  0.67579217  1  0  0.110716  0  0.930028  0  0  0.120434  0  0.99017  0  0  0.12345  0  0.988191  0  0.140846  0  0.111614  0.118187  0  0.99161  0
H  H9  1  0.99569383  0.00529538  0.17579632  1  0  0.110717  0  0.930069  0  0  0.120447  0  0.990197  0  0  0.123463  0  0.988221  0  0.140917  0  0.111603  0.118192  0  0.991645  0
H  H10  1  0.49569945  0.50529034  0.32420852  1  0  0.11077  0  0.929943  0  0  0.120467  0  0.990115  0  0  0.123485  0  0.98813  0  0.140898  0  0.111647  0.118232  0  0.991541  0
H  H11  1  0.00430351  0.99470423  0.82420298  1  0  0.11071  0  0.930067  0  0  0.120436  0  0.990201  0  0  0.123456  0  0.988214  0  0.140898  0  0.1116  0.118182  0  0.991648  0
H  H12  1  0.80732995  0.51564154  0.63164825  1  0  0.106759  0  0.979126  0  0  0.112499  0  1.04649  0  0  0.116711  0  1.04419  0  0.120665  0  0.093917  0.109419  0  1.048368  0
H  H13  1  0.69266934  0.98436030  0.13164894  1  0  0.106777  0  0.97911  0  0  0.112516  0  1.046479  0  0  0.116728  0  1.044177  0  0.120679  0  0.093922  0.109436  0  1.048356  0
H  H14  1  0.19267242  0.48435888  0.36835244  1  0  0.106777  0  0.979114  0  0  0.112517  0  1.046478  0  0  0.116734  0  1.044173  0  0.120694  0  0.09394  0.109438  0  1.048355  0
H  H15  1  0.30732914  0.01563770  0.86835106  1  0  0.106767  0  0.979089  0  0  0.112503  0  1.046455  0  0  0.11672  0  1.04415  0  0.120703  0  0.093926  0.109424  0  1.048333  0
H  H16  1  0.91501119  0.39550865  0.50780764  1  0  0.079968  0  0.934975  0  0  0.088163  0  1.000395  0  0  0.090761  0  0.997847  0  0.115618  0  0.112493  0.086206  0  1.002281  0
H  H17  1  0.58499135  0.10449034  0.00780625  1  0  0.079984  0  0.934959  0  0  0.088184  0  1.000371  0  0  0.090783  0  0.997822  0  0.115806  0  0.112533  0.086229  0  1.002254  0
H  H18  1  0.08499372  0.60449257  0.49219305  1  0  0.079996  0  0.934955  0  0  0.088185  0  1.000377  0  0  0.09078  0  0.99783  0  0.115685  0  0.112493  0.08623  0  1.002263  0
H  H19  1  0.41500464  0.89550765  0.99219375  1  0  0.079975  0  0.934933  0  0  0.088163  0  1.000353  0  0  0.090759  0  0.997803  0  0.115704  0  0.112484  0.086208  0  1.002238  0
H  H20  1  0.03974833  0.08146332  0.53845452  1  0  0.099196  0  0.969085  0  0  0.109459  0  1.033369  0  0  0.112313  0  1.031082  0  0.098886  0  0.095593  0.107318  0  1.035141  0
H  H21  1  0.46025102  0.41853730  0.03845313  1  0  0.099202  0  0.969065  0  0  0.109458  0  1.033354  0  0  0.112311  0  1.031069  0  0.098851  0  0.095594  0.107317  0  1.035127  0
H  H22  1  0.96024901  0.91853630  0.46154548  1  0  0.099223  0  0.969021  0  0  0.109485  0  1.033299  0  0  0.11234  0  1.031013  0  0.098903  0  0.095583  0.107343  0  1.035073  0
H  H23  1  0.53975017  0.58146393  0.96154756  1  0  0.099215  0  0.969012  0  0  0.109464  0  1.033315  0  0  0.112319  0  1.031028  0  0.09888  0  0.095584  0.107323  0  1.035088  0
H  H24  1  0.76844185  0.00400319  0.60262859  1  0  0.09788  0  0.986159  0  0  0.102071  0  1.057653  0  0  0.105739  0  1.055819  0  0.1126  0  0.08629  0.099383  0  1.059194  0
H  H25  1  0.73155837  0.49599823  0.10262790  1  0  0.097852  0  0.98617  0  0  0.102046  0  1.057665  0  0  0.105715  0  1.055831  0  0.112566  0  0.086273  0.099357  0  1.059208  0
H  H26  1  0.23155679  0.99599723  0.39737141  1  0  0.097875  0  0.986191  0  0  0.102068  0  1.057679  0  0  0.105736  0  1.055845  0  0.112612  0  0.086291  0.099379  0  1.05922  0
H  H27  1  0.26844157  0.50400300  0.89737279  1  0  0.097867  0  0.986165  0  0  0.102059  0  1.057663  0  0  0.105728  0  1.055828  0  0.112584  0  0.086262  0.09937  0  1.059205  0
H  H28  1  0.28027391  0.18906313  0.58132045  1  0  0.275958  0  0.937681  0  0  0.259609  0  1.006091  0  0  0.266792  0  1.000552  0  0.453929  0  0.287021  0.254503  0  1.010043  0
H  H29  1  0.21972549  0.31093829  0.08132045  1  0  0.275975  0  0.937614  0  0  0.25961  0  1.006062  0  0  0.266791  0  1.000525  0  0.453988  0  0.287031  0.254504  0  1.010014  0
H  H30  1  0.71972716  0.81093648  0.41867886  1  0  0.275935  0  0.937686  0  0  0.259595  0  1.006118  0  0  0.266778  0  1.000579  0  0.453939  0  0.287028  0.254489  0  1.01007  0
H  H31  1  0.78027196  0.68906294  0.91867955  1  0  0.275961  0  0.937691  0  0  0.25962  0  1.006077  0  0  0.266802  0  1.000537  0  0.454012  0  0.287032  0.254512  0  1.010031  0
H  H32  1  0.64116694  0.09571930  0.73732867  1  0  0.080647  0  0.966242  0  0  0.086311  0  1.037296  0  0  0.089695  0  1.033558  0  0.12292  0  0.099101  0.08382  0  1.040049  0
H  H33  1  0.85883204  0.40428212  0.23732867  1  0  0.080653  0  0.966252  0  0  0.086321  0  1.037297  0  0  0.089704  0  1.033559  0  0.122366  0  0.0991  0.08383  0  1.04005  0
H  H34  1  0.35883165  0.90428032  0.26267133  1  0  0.080602  0  0.966316  0  0  0.086294  0  1.037329  0  0  0.089677  0  1.033591  0  0.122357  0  0.099095  0.083803  0  1.040081  0
H  H35  1  0.14116909  0.59571829  0.76267202  1  0  0.080625  0  0.966289  0  0  0.086309  0  1.037309  0  0  0.089691  0  1.033573  0  0.122362  0  0.09912  0.083818  0  1.040062  0
H  H36  1  0.01905392  0.33517119  0.74163359  1  0  0.092504  0  0.985436  0  0  0.095375  0  1.059605  0  0  0.099083  0  1.05605  0  0.148423  0  0.101374  0.092682  0  1.062173  0
H  H37  1  0.48094667  0.16482942  0.24163220  1  0  0.092501  0  0.98542  0  0  0.095342  0  1.059604  0  0  0.099059  0  1.056041  0  0.148446  0  0.10138  0.09265  0  1.062173  0
H  H38  1  0.98094710  0.66482761  0.25836710  1  0  0.092482  0  0.985439  0  0  0.095312  0  1.059641  0  0  0.099029  0  1.056079  0  0.148465  0  0.101368  0.09262  0  1.06221  0
H  H39  1  0.51905197  0.83517100  0.75836780  1  0  0.092505  0  0.98542  0  0  0.095344  0  1.059604  0  0  0.099061  0  1.056041  0  0.148444  0  0.101382  0.092651  0  1.062174  0
C  C40  1  0.52946293  0.29667666  0.51554266  1  0  0.107665  0  3.669275  0  0  0.068636  0  3.914487  0  0  0.077187  0  3.932361  0  0.476886  0  0.043657  0.062685  0  3.90331  0
C  C41  1  0.97053848  0.20332395  0.01554335  1  0  0.10767  0  3.669271  0  0  0.068613  0  3.914476  0  0  0.077166  0  3.932346  0  0.476848  0  0.043667  0.062663  0  3.903298  0
C  C42  1  0.47054068  0.70332376  0.48445665  1  0  0.107685  0  3.669252  0  0  0.068589  0  3.914483  0  0  0.077143  0  3.932349  0  0.477062  0  0.043651  0.06264  0  3.903304  0
C  C43  1  0.02945882  0.79667485  0.98445595  1  0  0.107687  0  3.669222  0  0  0.06861  0  3.914429  0  0  0.077158  0  3.932305  0  0.476849  0  0.043687  0.062661  0  3.903249  0
C  C44  1  0.45765770  0.36199573  0.58211505  1  0  -0.09971  0  3.743552  0  0  -0.074761  0  3.978881  0  0  -0.086283  0  4.003257  0  -0.058427  0  -0.008278  -0.067609  0  3.962702  0
C  C45  1  0.04234056  0.13800730  0.08211643  1  0  -0.099767  0  3.743642  0  0  -0.074805  0  3.978976  0  0  -0.086325  0  4.003346  0  -0.058453  0  -0.008307  -0.067651  0  3.962792  0
C  C46  1  0.54234586  0.63800388  0.41788495  1  0  -0.099706  0  3.743633  0  0  -0.07481  0  3.978943  0  0  -0.086326  0  4.003314  0  -0.058457  0  -0.008302  -0.067658  0  3.962767  0
C  C47  1  0.95765435  0.86199312  0.91788288  1  0  -0.099803  0  3.743678  0  0  -0.074888  0  3.97902  0  0  -0.086402  0  4.003385  0  -0.058459  0  -0.008358  -0.067734  0  3.962837  0
C  C48  1  0.55842199  0.44314689  0.62375278  1  0  -0.004249  0  3.673307  0  0  -0.033883  0  3.920995  0  0  -0.028272  0  3.937766  0  -0.050193  0  -0.055331  -0.037056  0  3.909459  0
C  C49  1  0.94157720  0.05685776  0.12375555  1  0  -0.004209  0  3.673439  0  0  -0.03386  0  3.921114  0  0  -0.028255  0  3.937894  0  -0.050272  0  -0.055302  -0.037025  0  3.909578  0
C  C50  1  0.44158038  0.55685353  0.37624791  1  0  -0.00432  0  3.673301  0  0  -0.033939  0  3.921  0  0  -0.028331  0  3.937776  0  -0.050254  0  -0.055372  -0.037121  0  3.90946  0
C  C51  1  0.05842139  0.94314186  0.87624376  1  0  -0.004196  0  3.673443  0  0  -0.033844  0  3.921117  0  0  -0.028238  0  3.937898  0  -0.050261  0  -0.055289  -0.037009  0  3.909581  0
C  C52  1  0.72508322  0.45498708  0.59892256  1  0  -0.109452  0  3.719762  0  0  -0.120402  0  3.971249  0  0  -0.128826  0  3.992015  0  0.040582  0  -0.081331  -0.115129  0  3.957376  0
C  C53  1  0.77491705  0.04501515  0.09892394  1  0  -0.10948  0  3.719845  0  0  -0.120434  0  3.971348  0  0  -0.128858  0  3.992114  0  0.040616  0  -0.081345  -0.115163  0  3.957474  0
C  C54  1  0.27491915  0.54501334  0.40107744  1  0  -0.109438  0  3.719754  0  0  -0.12039  0  3.971239  0  0  -0.12882  0  3.992005  0  0.040587  0  -0.081346  -0.115118  0  3.957369  0
C  C55  1  0.22508149  0.95498366  0.90107467  1  0  -0.109457  0  3.719789  0  0  -0.120398  0  3.971277  0  0  -0.128826  0  3.99204  0  0.040624  0  -0.081339  -0.115125  0  3.957401  0
C  C56  1  0.78584929  0.38805399  0.53062267  1  0  0.150986  0  3.669207  0  0  0.116321  0  3.920676  0  0  0.125563  0  3.937574  0  0.453987  0  0.053177  0.110466  0  3.909063  0
C  C57  1  0.71415217  0.11194743  0.03062267  1  0  0.150958  0  3.669328  0  0  0.116289  0  3.920806  0  0  0.125532  0  3.937699  0  0.453827  0  0.053131  0.110433  0  3.909193  0
C  C58  1  0.21415437  0.61194724  0.46937663  1  0  0.150895  0  3.669224  0  0  0.116217  0  3.920707  0  0  0.125463  0  3.937602  0  0.453726  0  0.053143  0.110361  0  3.909094  0
C  C59  1  0.28584637  0.88805137  0.96937594  1  0  0.150943  0  3.669212  0  0  0.116267  0  3.920683  0  0  0.125515  0  3.937573  0  0.453711  0  0.05315  0.110412  0  3.909069  0
C  C60  1  0.27832945  0.35132189  0.61085116  1  0  0.548247  0  3.849043  0  0  0.499522  0  4.139766  0  0  0.529407  0  4.139187  0  1.412381  0  0.238523  0.479494  0  4.139516  0
C  C61  1  0.22166995  0.14867953  0.11085186  1  0  0.548219  0  3.84915  0  0  0.499478  0  4.139876  0  0  0.529361  0  4.139296  0  1.412402  0  0.238477  0.479449  0  4.139625  0
C  C62  1  0.72167287  0.64867772  0.38914884  1  0  0.548018  0  3.84932  0  0  0.499507  0  4.139748  0  0  0.529378  0  4.139192  0  1.412361  0  0.238523  0.479477  0  4.1395  0
C  C63  1  0.77832745  0.85132089  0.88914814  1  0  0.548185  0  3.849289  0  0  0.499565  0  4.139829  0  0  0.529439  0  4.139265  0  1.412349  0  0.238548  0.479534  0  4.139581  0
C  C64  1  0.05173967  0.21248459  0.63639922  1  0  0.210959  0  3.791101  0  0  0.208129  0  4.037638  0  0  0.212029  0  4.059495  0  0.354837  0  0.097385  0.205047  0  4.023137  0
C  C65  1  0.44826222  0.28751683  0.13639853  1  0  0.210916  0  3.791164  0  0  0.208101  0  4.037661  0  0  0.211999  0  4.05952  0  0.35515  0  0.097335  0.205018  0  4.02316  0
C  C66  1  0.94826141  0.78751502  0.36360078  1  0  0.210924  0  3.791098  0  0  0.208132  0  4.037628  0  0  0.212032  0  4.059487  0  0.354931  0  0.097384  0.20505  0  4.023128  0
C  C67  1  0.55173772  0.71248440  0.86360147  1  0  0.210945  0  3.791234  0  0  0.208131  0  4.037746  0  0  0.212029  0  4.059606  0  0.354926  0  0.097378  0.205047  0  4.023247  0
C  C68  1  0.97838145  0.11891974  0.59656091  1  0  -0.123453  0  3.734085  0  0  -0.145785  0  3.982811  0  0  -0.145891  0  4.002044  0  0.000441  0  -0.083372  -0.145454  0  3.969941  0
C  C69  1  0.52161753  0.38108167  0.09656021  1  0  -0.123411  0  3.734012  0  0  -0.145748  0  3.982745  0  0  -0.145853  0  4.001977  0  0.000566  0  -0.083314  -0.145418  0  3.969875  0
C  C70  1  0.02161838  0.88107987  0.40343909  1  0  -0.12344  0  3.733913  0  0  -0.145775  0  3.982646  0  0  -0.145884  0  4.001881  0  0.000464  0  -0.083324  -0.145444  0  3.969775  0
C  C71  1  0.47838117  0.61891955  0.90343979  1  0  -0.123468  0  3.733945  0  0  -0.145797  0  3.982677  0  0  -0.145905  0  4.001911  0  0.000479  0  -0.083355  -0.145467  0  3.969806  0
C  C72  1  0.82927973  0.07617197  0.63196498  1  0  -0.099894  0  3.768513  0  0  -0.110987  0  4.018812  0  0  -0.117369  0  4.041332  0  -0.015757  0  -0.092422  -0.10696  0  4.003803  0
C  C73  1  0.67072049  0.42382945  0.13196498  1  0  -0.099909  0  3.768442  0  0  -0.111006  0  4.018743  0  0  -0.117387  0  4.041263  0  -0.015777  0  -0.09245  -0.106974  0  4.003726  0
C  C74  1  0.17072134  0.92382764  0.36803433  1  0  -0.099908  0  3.76845  0  0  -0.111007  0  4.018772  0  0  -0.117388  0  4.041291  0  -0.015753  0  -0.092448  -0.106979  0  4.003762  0
C  C75  1  0.32927816  0.57617097  0.86803502  1  0  -0.099891  0  3.768354  0  0  -0.110995  0  4.01863  0  0  -0.117375  0  4.041148  0  -0.015569  0  -0.092408  -0.106966  0  4.003623  0
C  C76  1  0.75680060  0.12728346  0.70647916  1  0  0.118781  0  3.689879  0  0  0.08523  0  3.937844  0  0  0.092121  0  3.955577  0  0.453069  0  0.031943  0.080764  0  3.925814  0
C  C77  1  0.74319962  0.37271796  0.20647847  1  0  0.118736  0  3.689943  0  0  0.085191  0  3.937901  0  0  0.09208  0  3.955641  0  0.453621  0  0.031927  0.080725  0  3.925872  0
C  C78  1  0.24320048  0.87271615  0.29352153  1  0  0.118768  0  3.689928  0  0  0.08521  0  3.937889  0  0  0.092101  0  3.955623  0  0.453607  0  0.031926  0.080744  0  3.925859  0
C  C79  1  0.25680032  0.62728326  0.79352222  1  0  0.118824  0  3.690079  0  0  0.085275  0  3.938008  0  0  0.092167  0  3.955742  0  0.453408  0  0.031959  0.080809  0  3.925978  0
C  C80  1  0.96959924  0.26108511  0.70974675  1  0  0.03485  0  3.66108  0  0  -0.001896  0  3.909834  0  0  0.00315  0  3.926334  0  0.492013  0  0.033051  -0.005171  0  3.898846  0
C  C81  1  0.53040217  0.23891550  0.20974606  1  0  0.034896  0  3.661028  0  0  -0.00181  0  3.909774  0  0  0.00323  0  3.926267  0  0.491982  0  0.033102  -0.005086  0  3.898785  0
C  C82  1  0.03040302  0.73891370  0.29025325  1  0  0.034901  0  3.661029  0  0  -0.00178  0  3.909738  0  0  0.003258  0  3.926232  0  0.491867  0  0.033123  -0.005056  0  3.89875  0
C  C83  1  0.46959648  0.76108491  0.79025394  1  0  0.034879  0  3.661065  0  0  -0.00183  0  3.909798  0  0  0.003209  0  3.926292  0  0.491922  0  0.033094  -0.005106  0  3.89881  0
I  I84  1  0.13123765  0.24490214  0.35422124  1  0  -0.456501  0  1.044277  0  0  -0.400408  0  1.36795  0  0  -0.419721  0  1.347903  0  -0.485585  0  -0.223312  -0.386625  0  1.381348  0
I  I85  1  0.36876273  0.25509524  0.85422193  1  0  -0.456513  0  1.044268  0  0  -0.400423  0  1.367965  0  0  -0.41974  0  1.347914  0  -0.485584  0  -0.223321  -0.38664  0  1.381361  0
I  I86  1  0.86876326  0.75509505  0.64577876  1  0  -0.456498  0  1.044285  0  0  -0.400407  0  1.367966  0  0  -0.419723  0  1.347919  0  -0.485574  0  -0.223312  -0.386623  0  1.381363  0
I  I87  1  0.63123716  0.74490518  0.14577807  1  0  -0.456497  0  1.044266  0  0  -0.400403  0  1.367956  0  0  -0.419718  0  1.347906  0  -0.485572  0  -0.223313  -0.386618  0  1.38135  0
I  I88  1  0.62692835  0.01140462  0.37828730  1  0  -0.466072  0  1.148129  0  0  -0.409559  0  1.49647  0  0  -0.428465  0  1.473404  0  -0.492263  0  -0.20695  -0.395901  0  1.511905  0
I  I89  1  0.87307176  0.48859518  0.87828730  1  0  -0.466073  0  1.148123  0  0  -0.409561  0  1.496471  0  0  -0.428468  0  1.473402  0  -0.492254  0  -0.206949  -0.395901  0  1.511905  0
I  I90  1  0.37307148  0.98859499  0.62171270  1  0  -0.466072  0  1.148117  0  0  -0.409556  0  1.496463  0  0  -0.428463  0  1.473394  0  -0.492206  0  -0.206956  -0.395904  0  1.511909  0
I  I91  1  0.12692931  0.51140443  0.12171270  1  0  -0.466077  0  1.148135  0  0  -0.409542  0  1.496463  0  0  -0.428447  0  1.473396  0  -0.49221  0  -0.206951  -0.395894  0  1.511918  0
N  N92  1  0.68961082  0.31061887  0.48955339  1  0  -0.305722  0  3.260191  0  0  -0.220794  0  3.523329  0  0  -0.241612  0  3.542613  0  -1.24423  0  -0.330744  -0.206732  0  3.509796  0
N  N93  1  0.81038929  0.18938094  0.98955270  1  0  -0.305703  0  3.260309  0  0  -0.220766  0  3.523437  0  0  -0.241583  0  3.542721  0  -1.244241  0  -0.330731  -0.206704  0  3.509904  0
N  N94  1  0.31039414  0.68938316  0.51044591  1  0  -0.30566  0  3.260274  0  0  -0.220688  0  3.523376  0  0  -0.241507  0  3.542662  0  -1.244203  0  -0.330689  -0.206626  0  3.50984  0
N  N95  1  0.18960665  0.81061626  0.01044661  1  0  -0.305682  0  3.260289  0  0  -0.220716  0  3.523394  0  0  -0.241533  0  3.542676  0  -1.243955  0  -0.330699  -0.206654  0  3.509858  0
N  N96  1  0.20835108  0.24917878  0.60492386  1  0  -0.451415  0  3.424653  0  0  -0.39576  0  3.659756  0  0  -0.418236  0  3.669733  0  -1.25632  0  -0.405369  -0.380227  0  3.652576  0
N  N97  1  0.29164957  0.25082264  0.10492386  1  0  -0.451412  0  3.424714  0  0  -0.395736  0  3.65978  0  0  -0.41821  0  3.669758  0  -1.256817  0  -0.40535  -0.380202  0  3.652599  0
N  N98  1  0.79164994  0.75082003  0.39507614  1  0  -0.451273  0  3.424738  0  0  -0.395765  0  3.659828  0  0  -0.418239  0  3.669813  0  -1.256299  0  -0.405383  -0.38023  0  3.652648  0
N  N99  1  0.70834913  0.74917858  0.89507683  1  0  -0.451405  0  3.424901  0  0  -0.395783  0  3.659947  0  0  -0.418254  0  3.669928  0  -1.256399  0  -0.405411  -0.380247  0  3.652768  0
N  N100  1  0.82612347  0.21796146  0.74359483  1  0  -0.304739  0  3.321096  0  0  -0.217698  0  3.580902  0  0  -0.237757  0  3.602729  0  -1.265848  0  -0.341783  -0.20412  0  3.565794  0
N  N101  1  0.67387675  0.28203996  0.24359414  1  0  -0.304701  0  3.321101  0  0  -0.217678  0  3.580911  0  0  -0.237737  0  3.60274  0  -1.265808  0  -0.341789  -0.204099  0  3.565804  0
N  N102  1  0.17387637  0.78203816  0.25640586  1  0  -0.304716  0  3.321009  0  0  -0.217702  0  3.580828  0  0  -0.23776  0  3.602656  0  -1.265854  0  -0.341827  -0.204122  0  3.565719  0
N  N103  1  0.32612313  0.71796046  0.75640655  1  0  -0.304771  0  3.321258  0  0  -0.217738  0  3.581042  0  0  -0.237798  0  3.60287  0  -1.265869  0  -0.341832  -0.20416  0  3.565934  0
O  O104  1  0.20326898  0.43027747  0.63818758  1  0  -0.52946  0  1.896354  0  0  -0.488114  0  2.114192  0  0  -0.50954  0  2.110064  0  -1.13729  0  -0.290865  -0.473198  0  2.116515  0
O  O105  1  0.29673167  0.06972395  0.13818689  1  0  -0.529429  0  1.896375  0  0  -0.488077  0  2.114192  0  0  -0.509509  0  2.110081  0  -1.137262  0  -0.290833  -0.473165  0  2.116523  0
O  O106  1  0.79673458  0.56972214  0.36181242  1  0  -0.529374  0  1.89639  0  0  -0.488093  0  2.114121  0  0  -0.50951  0  2.109993  0  -1.137343  0  -0.290855  -0.473176  0  2.116446  0
O  O107  1  0.70326573  0.93027647  0.86181311  1  0  -0.529404  0  1.896408  0  0  -0.488091  0  2.114165  0  0  -0.509518  0  2.110054  0  -1.137298  0  -0.290846  -0.473177  0  2.116497  0
