# generated using pymatgen
data_ZnH19C27NO4
_symmetry_space_group_name_H-M   'P 1'
_cell_length_a   13.82114612
_cell_length_b   15.31498746
_cell_length_c   17.33115077
_cell_angle_alpha   89.26962991
_cell_angle_beta   82.62355095
_cell_angle_gamma   89.47914506
_symmetry_Int_Tables_number   1
_chemical_formula_structural   ZnH19C27NO4
_chemical_formula_sum   'Zn2 H38 C54 N2 O8'
_cell_volume   3637.73769518
_cell_formula_units_Z   2
loop_
 _symmetry_equiv_pos_site_id
 _symmetry_equiv_pos_as_xyz
  1  'x, y, z'
loop_
 _atom_site_type_symbol
 _atom_site_label
 _atom_site_symmetry_multiplicity
 _atom_site_fract_x
 _atom_site_fract_y
 _atom_site_fract_z
 _atom_site_occupancy
 _atom_site_pbe_bader_charge
 _atom_site_pbe_bader_spin_density
 _atom_site_pbe_cm5_charge
 _atom_site_pbe_ddec_charge
 _atom_site_pbe_ddec_spin_density
 _atom_site_pbe_ddec_sum_bond_order
 _atom_site_pbe_magmom
Zn  Zn0  1  0.39808050  0.49655826  0.50198512  1  1.28274  0  0.664212  0.811237  0  2.457379  0
Zn  Zn1  1  0.59876735  0.49642241  0.49600690  1  1.277987  0  0.662391  0.809311  0  2.431717  0
H  H2  1  0.23581504  0.39229881  0.57797191  1  0.119609  0  0.129848  0.109718  0  0.975638  0
H  H3  1  0.76072328  0.60007216  0.42360756  1  0.139808  0  0.129551  0.110416  0  0.981411  0
H  H4  1  0.25840618  0.59757093  0.41953089  1  0.141077  0  0.131335  0.111188  0  0.970167  0
H  H5  1  0.73778585  0.39364032  0.58083691  1  0.135096  0  0.130829  0.11081  0  0.969222  0
H  H6  1  0.10657673  0.66542624  0.37055671  1  0.095217  0  0.116129  0.119675  0  0.975703  0
H  H7  1  0.88959944  0.32803351  0.63262517  1  0.090539  0  0.115576  0.119059  0  0.976523  0
H  H8  1  0.92671399  0.66666531  0.37249927  1  0.089682  0  0.115086  0.117568  0  0.977776  0
H  H9  1  0.06922335  0.32701751  0.63088546  1  0.091483  0  0.114609  0.117385  0  0.978041  0
H  H10  1  0.63623013  0.61261381  0.25960528  1  0.083568  0  0.100061  0.102997  0  0.997331  0
H  H11  1  0.33709842  0.45740447  0.75832636  1  0.076007  0  0.10016  0.104335  0  1.000859  0
H  H12  1  0.58460432  0.61612269  0.99150365  1  0.043418  0  0.09795  0.097889  0  1.002866  0
H  H13  1  0.38701442  0.52212175  0.01087610  1  0.021122  0  0.096322  0.09138  0  1.015425  0
H  H14  1  0.32673521  0.47293395  0.90248599  1  0.050105  0  0.096705  0.095556  0  1.007244  0
H  H15  1  0.63290797  0.65354432  0.12024231  1  0.05635  0  0.096581  0.096534  0  1.004328  0
H  H16  1  0.42670638  0.44775815  0.10297029  1  0.047955  0  0.095644  0.095185  0  1.026236  0
H  H17  1  0.56087435  0.65795659  0.86894582  1  0.054853  0  0.097306  0.095933  0  1.038647  0
H  H18  1  0.34385030  0.21846011  0.52773638  1  0.085587  0  0.100675  0.103653  0  1.017269  0
H  H19  1  0.65622333  0.77468022  0.46702759  1  0.078734  0  0.100738  0.10466  0  1.016943  0
H  H20  1  0.65590790  0.21787686  0.47855844  1  0.096649  0  0.102328  0.109598  0  1.008615  0
H  H21  1  0.34446860  0.77551751  0.51744144  1  0.078727  0  0.10267  0.110695  0  1.008475  0
H  H22  1  0.74771576  0.07677134  0.45843344  1  0.057037  0  0.100841  0.102846  0  0.995497  0
H  H23  1  0.25259753  0.91650545  0.53618370  1  0.073751  0  0.101514  0.10334  0  0.994967  0
H  H24  1  0.74782418  0.91535381  0.45406750  1  0.060706  0  0.100211  0.101336  0  0.996272  0
H  H25  1  0.25229614  0.07803173  0.54016225  1  0.054403  0  0.099895  0.100766  0  0.997008  0
H  H26  1  0.75478405  0.75934138  0.65845644  1  0.004148  0  0.079123  0.100615  0  1.010606  0
H  H27  1  0.64938041  0.81691240  0.63689229  1  0.028123  0  0.081327  0.110599  0  1.024711  0
H  H28  1  0.71714213  0.85621593  0.70957337  1  -0.012077  0  0.081675  0.104889  0  1.008991  0
H  H29  1  0.56457486  0.78103978  0.77138162  1  0.028266  0  0.086878  0.075698  0  0.974708  0
H  H30  1  0.67014452  0.72558413  0.79348368  1  -0.001323  0  0.083562  0.067334  0  0.988972  0
H  H31  1  0.65511672  0.61841518  0.68744946  1  0.074948  0  0.092774  0.09893  0  0.975685  0
H  H32  1  0.55756635  0.67734071  0.65865038  1  0.010041  0  0.095017  0.102718  0  0.97979  0
H  H33  1  0.36380928  0.24972809  0.35602333  1  0.030707  0  0.080529  0.109435  0  1.014826  0
H  H34  1  0.36770325  0.20686890  0.26075656  1  0.04125  0  0.078856  0.100209  0  1.01134  0
H  H35  1  0.45907009  0.17713337  0.31986111  1  0.018007  0  0.083329  0.111666  0  1.007777  0
H  H36  1  0.52425761  0.28968599  0.21944013  1  0.017883  0  0.084411  0.070933  0  0.977017  0
H  H37  1  0.52022567  0.33066770  0.31425169  1  0.02913  0  0.087488  0.082566  0  0.989208  0
H  H38  1  0.36089497  0.40563994  0.30044405  1  0.040565  0  0.09082  0.100053  0  0.999067  0
H  H39  1  0.36524689  0.36437685  0.20484722  1  0.00641  0  0.086079  0.079999  0  0.989574  0
C  C40  1  0.50061233  0.66889086  0.49032451  1  1.556157  0  0.210788  0.586214  0  4.178689  0
C  C41  1  0.49881510  0.32477006  0.50580893  1  1.509216  0  0.215927  0.596089  0  4.161679  0
C  C42  1  0.41177239  0.18139085  0.51670670  1  -0.137512  0  -0.082727  -0.146009  0  3.951116  0
C  C43  1  0.58845942  0.81197643  0.47830856  1  0.001883  0  -0.084754  -0.149855  0  3.956466  0
C  C44  1  0.49986327  0.22680494  0.50415061  1  0.055521  0  -0.018967  -0.027005  0  4.003548  0
C  C45  1  0.50029207  0.76676221  0.49147152  1  0.009131  0  -0.02102  -0.028699  0  4.015476  0
C  C46  1  0.58818766  0.18111378  0.48867383  1  0.000264  0  -0.083227  -0.146639  0  3.938854  0
C  C47  1  0.41203404  0.81245908  0.50694266  1  -0.008093  0  -0.083639  -0.145703  0  3.938456  0
C  C48  1  0.59011155  0.08963365  0.48528890  1  -0.018846  0  -0.009718  0.072952  0  4.047516  0
C  C49  1  0.41014730  0.90389361  0.50970993  1  -0.02917  0  -0.00963  0.075084  0  4.04632  0
C  C50  1  0.50009668  0.04307510  0.49870902  1  0.052021  0  0.003681  0.004013  0  3.910047  0
C  C51  1  0.50016719  0.95038063  0.49607753  1  -0.028473  0  0.004008  0.00455  0  3.907625  0
C  C52  1  0.40996934  0.08999839  0.51474745  1  -0.013728  0  -0.009008  0.073481  0  4.046977  0
C  C53  1  0.59028591  0.90342230  0.47999517  1  -0.037126  0  -0.009724  0.07189  0  4.05103  0
C  C54  1  0.67935210  0.04081343  0.46894298  1  0.006762  0  -0.093169  -0.136364  0  4.027966  0
C  C55  1  0.32083811  0.95262854  0.52575648  1  -0.122215  0  -0.094045  -0.137213  0  4.029541  0
C  C56  1  0.67942196  0.95172268  0.46648190  1  -0.11233  0  -0.093296  -0.136036  0  4.03028  0
C  C57  1  0.32074923  0.04170386  0.52803306  1  -0.010296  0  -0.093433  -0.135054  0  4.027412  0
C  C58  1  0.19586923  0.43721465  0.54401252  1  0.526143  0  0.065754  0.051945  0  3.861544  0
C  C59  1  0.80056360  0.55519916  0.45768838  1  0.529956  0  0.065475  0.050773  0  3.862035  0
C  C60  1  0.20869143  0.55318118  0.45445064  1  0.513779  0  0.067135  0.052501  0  3.861914  0
C  C61  1  0.78742999  0.43879938  0.54679898  1  0.470608  0  0.066951  0.051253  0  3.859322  0
C  C62  1  0.46898293  0.51981954  0.64936610  1  1.563691  0  0.212583  0.598359  0  4.168132  0
C  C63  1  0.52491864  0.49853211  0.34649867  1  1.549799  0  0.215031  0.599711  0  4.174535  0
C  C64  1  0.10753759  0.55714783  0.45313586  1  -0.008329  0  0.00282  0.036758  0  4.040227  0
C  C65  1  0.88845240  0.43570652  0.54932244  1  0.036972  0  0.002764  0.03621  0  4.038295  0
C  C66  1  0.04934090  0.49622209  0.50087265  1  -0.012749  0  0.015719  0.021771  0  3.936701  0
C  C67  1  0.94677377  0.49684927  0.50188803  1  -0.029332  0  0.015716  0.021335  0  3.937201  0
C  C68  1  0.09407603  0.43456942  0.54747434  1  -0.024994  0  0.002107  0.03617  0  4.040726  0
C  C69  1  0.90219227  0.55847468  0.45515569  1  -0.01997  0  0.002387  0.036836  0  4.042836  0
C  C70  1  0.06111319  0.61901572  0.40678661  1  -0.05732  0  -0.074352  -0.114485  0  3.985065  0
C  C71  1  0.93495822  0.37431598  0.59618903  1  -0.014976  0  -0.075273  -0.115075  0  3.983322  0
C  C72  1  0.96203065  0.61972022  0.40786097  1  -0.027101  0  -0.075234  -0.114457  0  3.987168  0
C  C73  1  0.03405944  0.37375065  0.59522727  1  -0.048176  0  -0.075422  -0.115599  0  3.985639  0
C  C74  1  0.45916286  0.54306621  0.73359029  1  -0.012711  0  -0.019521  -0.087294  0  3.926297  0
C  C75  1  0.52882249  0.51201652  0.26040813  1  -0.003559  0  -0.017017  -0.081139  0  3.922011  0
C  C76  1  0.52130627  0.60359754  0.76385324  1  -0.027836  0  0.000735  0.114613  0  3.919593  0
C  C77  1  0.46924234  0.46395799  0.21592884  1  0.000704  0  -0.00363  0.110543  0  3.949543  0
C  C78  1  0.51363865  0.61194255  0.84454918  1  -0.022838  0  -0.09579  -0.195798  0  3.929108  0
C  C79  1  0.46992819  0.48690419  0.13785762  1  -0.052266  0  -0.095241  -0.194704  0  3.942798  0
C  C80  1  0.44782139  0.56221761  0.89586823  1  -0.0015  0  -0.015701  0.117717  0  4.075179  0
C  C81  1  0.52541798  0.55653674  0.10200205  1  -0.055927  0  -0.016357  0.117043  0  4.070861  0
C  C82  1  0.38087503  0.50934581  0.86373378  1  -0.083095  0  -0.10038  -0.151153  0  4.015595  0
C  C83  1  0.58728811  0.60053859  0.14669867  1  -0.011525  0  -0.100469  -0.152308  0  4.007965  0
C  C84  1  0.38684934  0.50012096  0.78372373  1  -0.045368  0  -0.092555  -0.094196  0  4.036054  0
C  C85  1  0.58906432  0.57793610  0.22461325  1  -0.094236  0  -0.092266  -0.096726  0  4.0258  0
C  C86  1  0.44950557  0.55642325  0.97951798  1  -0.082741  0  -0.094939  -0.132781  0  4.010392  0
C  C87  1  0.52201328  0.57989240  0.02046051  1  0.018552  0  -0.094779  -0.134976  0  3.995298  0
C  C88  1  0.59199685  0.65909307  0.71046772  1  0.004771  0  -0.16213  -0.193151  0  3.947934  0
C  C89  1  0.62773416  0.74209711  0.74556623  1  -0.013662  0  -0.166497  -0.089651  0  3.985231  0
C  C90  1  0.69068866  0.79683250  0.68441675  1  -0.034717  0  -0.24649  -0.349735  0  3.986208  0
C  C91  1  0.41055902  0.38624190  0.24866725  1  0.011067  0  -0.164386  -0.201909  0  3.96377  0
C  C92  1  0.47394702  0.30919196  0.27100504  1  -0.019218  0  -0.164933  -0.083364  0  3.950592  0
C  C93  1  0.41285092  0.23136655  0.30358731  1  -0.091446  0  -0.247686  -0.352654  0  3.986655  0
N  N94  1  0.25011519  0.49497369  0.49881927  1  -1.223304  0  -0.314384  -0.176515  0  3.560471  0
N  N95  1  0.74622737  0.49671535  0.50192615  1  -1.242543  0  -0.31473  -0.17546  0  3.557545  0
O  O96  1  0.41806512  0.63119124  0.49769301  1  -1.170376  0  -0.319448  -0.550744  0  2.317651  0
O  O97  1  0.58059848  0.36310100  0.50467118  1  -1.172203  0  -0.320141  -0.554149  0  2.318111  0
O  O98  1  0.58361365  0.63094040  0.48299583  1  -1.176992  0  -0.318135  -0.550324  0  2.336608  0
O  O99  1  0.41605463  0.36243514  0.50755356  1  -1.166707  0  -0.317983  -0.550667  0  2.328467  0
O  O100  1  0.39084315  0.50371866  0.62037183  1  -1.163109  0  -0.325195  -0.551959  0  2.310153  0
O  O101  1  0.60462229  0.49411658  0.37584895  1  -1.15267  0  -0.321427  -0.549086  0  2.291664  0
O  O102  1  0.55511518  0.51528493  0.61291482  1  -1.165232  0  -0.315834  -0.554948  0  2.346226  0
O  O103  1  0.43954270  0.49530695  0.38455180  1  -1.168769  0  -0.315935  -0.552939  0  2.353242  0
