# generated using pymatgen
data_AgH6C5N7O3
_symmetry_space_group_name_H-M   'P 1'
_cell_length_a   7.25019665
_cell_length_b   9.00328159
_cell_length_c   14.29441769
_cell_angle_alpha   90.00012517
_cell_angle_beta   89.99997047
_cell_angle_gamma   89.99982826
_symmetry_Int_Tables_number   1
_chemical_formula_structural   AgH6C5N7O3
_chemical_formula_sum   'Ag4 H24 C20 N28 O12'
_cell_volume   933.07614858
_cell_formula_units_Z   4
loop_
 _symmetry_equiv_pos_site_id
 _symmetry_equiv_pos_as_xyz
  1  'x, y, z'
loop_
 _atom_site_type_symbol
 _atom_site_label
 _atom_site_symmetry_multiplicity
 _atom_site_fract_x
 _atom_site_fract_y
 _atom_site_fract_z
 _atom_site_occupancy
 _atom_site_hle17_bader_spin_density
 _atom_site_hle17_ddec_charge
 _atom_site_hle17_ddec_spin_density
 _atom_site_hle17_ddec_sum_bond_order
 _atom_site_hle17_magmom
 _atom_site_hse06_10hf_bader_spin_density
 _atom_site_hse06_10hf_ddec_charge
 _atom_site_hse06_10hf_ddec_spin_density
 _atom_site_hse06_10hf_ddec_sum_bond_order
 _atom_site_hse06_10hf_magmom
 _atom_site_hse06_bader_spin_density
 _atom_site_hse06_ddec_charge
 _atom_site_hse06_ddec_spin_density
 _atom_site_hse06_ddec_sum_bond_order
 _atom_site_hse06_magmom
 _atom_site_pbe_bader_spin_density
 _atom_site_pbe_cm5_charge
 _atom_site_pbe_ddec_charge
 _atom_site_pbe_ddec_spin_density
 _atom_site_pbe_ddec_sum_bond_order
 _atom_site_pbe_magmom
Ag  Ag0  1  0.11773118  0.99872683  0.65438270  1  0  0.546104  0  1.43214  0  0  0.404673  0  1.872338  0  0  0.429767  0  1.831215  0  0  0.472237  0.387628  0  1.901336  0
Ag  Ag1  1  0.88226739  0.49872990  0.34561697  1  0  0.546105  0  1.432156  0  0  0.404661  0  1.872358  0  0  0.429755  0  1.831237  0  0  0.472236  0.387619  0  1.901358  0
Ag  Ag2  1  0.38227001  0.49873018  0.15438294  1  0  0.546159  0  1.43214  0  0  0.404717  0  1.872343  0  0  0.429814  0  1.831216  0  0  0.47225  0.387677  0  1.901342  0
Ag  Ag3  1  0.61772994  0.99872766  0.84561673  1  0  0.546123  0  1.432141  0  0  0.404677  0  1.872338  0  0  0.429773  0  1.831213  0  0  0.472243  0.387634  0  1.901335  0
H  H4  1  0.02172478  0.59381826  0.84932846  1  0  0.107761  0  0.917555  0  0  0.111057  0  0.99304  0  0  0.112322  0  0.990351  0  0  0.135155  0.11007  0  0.994222  0
H  H5  1  0.97827666  0.09381819  0.15067134  1  0  0.107741  0  0.917581  0  0  0.111037  0  0.993071  0  0  0.112301  0  0.990385  0  0  0.135138  0.11005  0  0.994254  0
H  H6  1  0.47827633  0.09382026  0.34932798  1  0  0.107739  0  0.917563  0  0  0.111034  0  0.993054  0  0  0.112299  0  0.990367  0  0  0.135137  0.110047  0  0.994237  0
H  H7  1  0.52172511  0.59381842  0.65067253  1  0  0.10777  0  0.917542  0  0  0.111062  0  0.993029  0  0  0.112328  0  0.990337  0  0  0.135149  0.110075  0  0.994212  0
H  H8  1  0.10589098  0.45632176  0.92922878  1  0  0.112916  0  0.957187  0  0  0.121415  0  1.024558  0  0  0.122692  0  1.022359  0  0  0.141312  0.12028  0  1.025651  0
H  H9  1  0.89411050  0.95632034  0.07077223  1  0  0.112922  0  0.957181  0  0  0.121421  0  1.024557  0  0  0.122698  0  1.022359  0  0  0.141304  0.120285  0  1.02565  0
H  H10  1  0.39411009  0.95632268  0.42922761  1  0  0.112933  0  0.957186  0  0  0.12143  0  1.024562  0  0  0.122707  0  1.022365  0  0  0.141309  0.120294  0  1.025655  0
H  H11  1  0.60589278  0.45632275  0.57077130  1  0  0.112923  0  0.957172  0  0  0.121418  0  1.024549  0  0  0.122696  0  1.022349  0  0  0.141301  0.120282  0  1.025642  0
H  H12  1  0.23106314  0.34918228  0.57548011  1  0  0.104297  0  0.953805  0  0  0.107223  0  1.025117  0  0  0.110017  0  1.021929  0  0  0.132457  0.105106  0  1.027696  0
H  H13  1  0.76893874  0.84918572  0.42452075  1  0  0.10427  0  0.953825  0  0  0.107243  0  1.025084  0  0  0.110036  0  1.021897  0  0  0.132472  0.105125  0  1.027662  0
H  H14  1  0.26894007  0.84918573  0.07547897  1  0  0.104278  0  0.953795  0  0  0.107251  0  1.025051  0  0  0.110046  0  1.021863  0  0  0.13247  0.105135  0  1.027629  0
H  H15  1  0.73106319  0.34918339  0.92451979  1  0  0.104327  0  0.953793  0  0  0.107256  0  1.025097  0  0  0.11005  0  1.021909  0  0  0.132466  0.10514  0  1.027673  0
H  H16  1  0.11512021  0.19844564  0.84947649  1  0  0.123532  0  0.95509  0  0  0.127935  0  1.025605  0  0  0.131835  0  1.01992  0  0  0.141862  0.124987  0  1.029665  0
H  H17  1  0.88487119  0.69844785  0.15052276  1  0  0.123497  0  0.955144  0  0  0.127915  0  1.025637  0  0  0.131815  0  1.019956  0  0  0.141853  0.124971  0  1.029697  0
H  H18  1  0.38487499  0.69844880  0.34947672  1  0  0.123526  0  0.955087  0  0  0.127936  0  1.025594  0  0  0.131838  0  1.019908  0  0  0.141847  0.124992  0  1.029654  0
H  H19  1  0.61511917  0.19844580  0.65052323  1  0  0.123505  0  0.95513  0  0  0.127912  0  1.025647  0  0  0.131815  0  1.019956  0  0  0.14184  0.124965  0  1.029707  0
H  H20  1  0.65650453  0.70077541  0.99704346  1  0  0.109654  0  0.935796  0  0  0.119362  0  0.997636  0  0  0.121373  0  0.994523  0  0  0.137719  0.117684  0  1.000169  0
H  H21  1  0.34349790  0.20077638  0.00295579  1  0  0.109592  0  0.935889  0  0  0.119336  0  0.997679  0  0  0.121358  0  0.994551  0  0  0.137704  0.117657  0  1.000214  0
H  H22  1  0.84349512  0.20077440  0.49704441  1  0  0.109615  0  0.935854  0  0  0.119342  0  0.997675  0  0  0.121353  0  0.994561  0  0  0.137708  0.117662  0  1.000212  0
H  H23  1  0.15650317  0.70077405  0.50295694  1  0  0.109643  0  0.935833  0  0  0.119365  0  0.997648  0  0  0.121368  0  0.994544  0  0  0.13772  0.117684  0  1.000186  0
H  H24  1  0.29320678  0.77250708  0.77193960  1  0  0.115028  0  0.944703  0  0  0.119336  0  1.021752  0  0  0.123031  0  1.015043  0  0  0.139164  0.116202  0  1.026505  0
H  H25  1  0.70679538  0.27250684  0.22805975  1  0  0.115028  0  0.944721  0  0  0.11932  0  1.02178  0  0  0.123016  0  1.015073  0  0  0.139151  0.116188  0  1.026531  0
H  H26  1  0.20679375  0.27250863  0.27194058  1  0  0.115024  0  0.944744  0  0  0.119322  0  1.021794  0  0  0.123018  0  1.015083  0  0  0.139149  0.11619  0  1.026545  0
H  H27  1  0.79320703  0.77250751  0.72806157  1  0  0.115021  0  0.944722  0  0  0.119341  0  1.021736  0  0  0.123037  0  1.015027  0  0  0.139154  0.116206  0  1.026492  0
C  C28  1  0.13813278  0.52083254  0.86625948  1  0  0.059352  0  3.603543  0  0  -0.029474  0  3.846813  0  0  -0.011584  0  3.858372  0  0  0.066333  -0.034776  0  3.840759  0
C  C29  1  0.86186893  0.02083381  0.13374092  1  0  0.059304  0  3.603555  0  0  -0.029518  0  3.846846  0  0  -0.011641  0  3.858401  0  0  0.06637  -0.034821  0  3.840795  0
C  C30  1  0.36186858  0.02083482  0.36625903  1  0  0.059318  0  3.603537  0  0  -0.029507  0  3.84683  0  0  -0.011627  0  3.85839  0  0  0.066382  -0.034809  0  3.84078  0
C  C31  1  0.63813313  0.52083375  0.63374068  1  0  0.059361  0  3.603563  0  0  -0.029453  0  3.846811  0  0  -0.011541  0  3.858388  0  0  0.066385  -0.034755  0  3.840759  0
C  C32  1  0.20199631  0.34698214  0.65006307  1  0  0.193013  0  3.690263  0  0  0.143349  0  3.972093  0  0  0.154287  0  3.986381  0  0  0.144166  0.135611  0  3.963313  0
C  C33  1  0.79800420  0.84698525  0.34993639  1  0  0.192989  0  3.690413  0  0  0.143285  0  3.972241  0  0  0.154222  0  3.986532  0  0  0.144125  0.135547  0  3.963465  0
C  C34  1  0.29800545  0.84698551  0.15006402  1  0  0.192993  0  3.690426  0  0  0.143282  0  3.972256  0  0  0.154219  0  3.986545  0  0  0.144119  0.135546  0  3.963473  0
C  C35  1  0.70199506  0.34698299  0.84993613  1  0  0.192882  0  3.690335  0  0  0.143214  0  3.972178  0  0  0.154151  0  3.986469  0  0  0.144117  0.135476  0  3.963396  0
C  C36  1  0.14364072  0.26818118  0.78879060  1  0  0.174246  0  3.607927  0  0  0.110339  0  3.868024  0  0  0.125055  0  3.880206  0  0  0.165299  0.101181  0  3.859283  0
C  C37  1  0.85635456  0.76818145  0.21120804  1  0  0.174264  0  3.607725  0  0  0.110356  0  3.867822  0  0  0.125071  0  3.880002  0  0  0.165297  0.101195  0  3.859085  0
C  C38  1  0.35635843  0.76818330  0.28879154  1  0  0.174274  0  3.60764  0  0  0.11037  0  3.867731  0  0  0.125085  0  3.879913  0  0  0.165345  0.101208  0  3.858995  0
C  C39  1  0.64363824  0.26818044  0.71120781  1  0  0.174188  0  3.607769  0  0  0.110273  0  3.867883  0  0  0.124988  0  3.880066  0  0  0.165282  0.101113  0  3.859143  0
C  C40  1  0.53978636  0.69058252  0.95017272  1  0  0.211955  0  3.684542  0  0  0.154006  0  3.974174  0  0  0.167066  0  3.983103  0  0  0.151193  0.145739  0  3.96605  0
C  C41  1  0.46021473  0.19058448  0.04982582  1  0  0.212019  0  3.684561  0  0  0.154068  0  3.974146  0  0  0.167116  0  3.983088  0  0  0.151208  0.145803  0  3.966021  0
C  C42  1  0.96021337  0.19058456  0.45017434  1  0  0.212015  0  3.68449  0  0  0.154066  0  3.974091  0  0  0.16712  0  3.98304  0  0  0.151213  0.1458  0  3.965965  0
C  C43  1  0.03978633  0.69058355  0.54982770  1  0  0.211956  0  3.684579  0  0  0.154025  0  3.974187  0  0  0.167091  0  3.98312  0  0  0.151204  0.145758  0  3.966064  0
C  C44  1  0.35886987  0.72928843  0.83450804  1  0  0.184632  0  3.615681  0  0  0.102604  0  3.885793  0  0  0.127547  0  3.900786  0  0  0.163564  0.093377  0  3.878098  0
C  C45  1  0.64113107  0.22928923  0.16549125  1  0  0.184575  0  3.615781  0  0  0.102571  0  3.885922  0  0  0.127498  0  3.900915  0  0  0.163547  0.093343  0  3.87823  0
C  C46  1  0.14113075  0.22929014  0.33450904  1  0  0.18453  0  3.615782  0  0  0.102517  0  3.885927  0  0  0.127452  0  3.900919  0  0  0.163541  0.093288  0  3.878236  0
C  C47  1  0.85887295  0.72928752  0.66549235  1  0  0.184669  0  3.615797  0  0  0.102636  0  3.885959  0  0  0.127604  0  3.900967  0  0  0.163586  0.093409  0  3.878264  0
N  N48  1  0.53824135  0.91544656  0.58381448  1  0  0.679576  0  4.16748  0  0  0.712334  0  4.461385  0  0  0.740175  0  4.467198  0  0  0.083002  0.693656  0  4.45714  0
N  N49  1  0.46175891  0.41544757  0.41618507  1  0  0.679519  0  4.16753  0  0  0.712288  0  4.461427  0  0  0.74013  0  4.467239  0  0  0.082969  0.69362  0  4.457174  0
N  N50  1  0.96176069  0.41544749  0.08381470  1  0  0.679644  0  4.167404  0  0  0.712407  0  4.461292  0  0  0.74025  0  4.467103  0  0  0.08308  0.693729  0  4.457049  0
N  N51  1  0.03823957  0.91544775  0.91618625  1  0  0.679573  0  4.167475  0  0  0.71235  0  4.461352  0  0  0.74019  0  4.467165  0  0  0.08303  0.69367  0  4.45711  0
N  N52  1  0.16684672  0.41675254  0.78975752  1  0  0.018167  0  3.556527  0  0  0.103587  0  3.788845  0  0  0.090938  0  3.813048  0  0  -0.135511  0.11203  0  3.770801  0
N  N53  1  0.83315216  0.91675619  0.21024274  1  0  0.018186  0  3.55647  0  0  0.103596  0  3.788799  0  0  0.090948  0  3.813006  0  0  -0.135533  0.112038  0  3.770758  0
N  N54  1  0.33315326  0.91675583  0.28975706  1  0  0.018212  0  3.556442  0  0  0.103617  0  3.788781  0  0  0.090968  0  3.812989  0  0  -0.135553  0.112058  0  3.77074  0
N  N55  1  0.66684699  0.41675401  0.71024249  1  0  0.018223  0  3.556451  0  0  0.10365  0  3.788772  0  0  0.091001  0  3.812975  0  0  -0.135469  0.112092  0  3.770729  0
N  N56  1  0.20310637  0.46885779  0.70209325  1  0  -0.263813  0  2.860371  0  0  -0.254913  0  3.142435  0  0  -0.263635  0  3.158645  0  0  -0.221867  -0.249068  0  3.13195  0
N  N57  1  0.79689645  0.96885961  0.29790777  1  0  -0.263668  0  2.860453  0  0  -0.254768  0  3.142564  0  0  -0.263489  0  3.158777  0  0  -0.221789  -0.248922  0  3.13208  0
N  N58  1  0.29689627  0.96886005  0.20209211  1  0  -0.263696  0  2.86048  0  0  -0.254791  0  3.142587  0  0  -0.263513  0  3.158801  0  0  -0.221789  -0.248946  0  3.132105  0
N  N59  1  0.70310517  0.46885735  0.79790612  1  0  -0.263745  0  2.860424  0  0  -0.254844  0  3.142498  0  0  -0.263568  0  3.158722  0  0  -0.221862  -0.249003  0  3.132023  0
N  N60  1  0.16478373  0.22108484  0.70060300  1  0  -0.377539  0  3.312626  0  0  -0.293354  0  3.618866  0  0  -0.315839  0  3.631846  0  0  -0.366949  -0.278043  0  3.609684  0
N  N61  1  0.83521173  0.72108658  0.29939698  1  0  -0.377594  0  3.31264  0  0  -0.29341  0  3.618904  0  0  -0.315894  0  3.631883  0  0  -0.366962  -0.2781  0  3.609725  0
N  N62  1  0.33521293  0.72108701  0.20060254  1  0  -0.37767  0  3.312643  0  0  -0.293475  0  3.618903  0  0  -0.31596  0  3.631881  0  0  -0.367003  -0.278165  0  3.609727  0
N  N63  1  0.66478253  0.22108552  0.79939674  1  0  -0.377478  0  3.312554  0  0  -0.293284  0  3.61879  0  0  -0.315768  0  3.631772  0  0  -0.366933  -0.277973  0  3.609608  0
N  N64  1  0.30007856  0.61058964  0.88337180  1  0  0.031607  0  3.559049  0  0  0.146123  0  3.74995  0  0  0.104438  0  3.812945  0  0  -0.133855  0.153698  0  3.732996  0
N  N65  1  0.69992420  0.11059125  0.11662663  1  0  0.031646  0  3.559124  0  0  0.146118  0  3.750069  0  0  0.104472  0  3.81301  0  0  -0.133876  0.153693  0  3.733117  0
N  N66  1  0.19992245  0.11059121  0.38337348  1  0  0.031685  0  3.559096  0  0  0.146178  0  3.750018  0  0  0.104521  0  3.812972  0  0  -0.133864  0.153752  0  3.733065  0
N  N67  1  0.80007755  0.61058968  0.61662914  1  0  0.031501  0  3.559269  0  0  0.146  0  3.750206  0  0  0.104235  0  3.813275  0  0  -0.133929  0.153575  0  3.733252  0
N  N68  1  0.41449616  0.58382272  0.95748111  1  0  -0.286347  0  2.889448  0  0  -0.276204  0  3.172461  0  0  -0.276292  0  3.190097  0  0  -0.222625  -0.269496  0  3.164862  0
N  N69  1  0.58550670  0.08382546  0.04251728  1  0  -0.286362  0  2.889444  0  0  -0.276211  0  3.172477  0  0  -0.276315  0  3.190113  0  0  -0.222631  -0.269501  0  3.164877  0
N  N70  1  0.08550488  0.08382457  0.45748213  1  0  -0.28639  0  2.889424  0  0  -0.276243  0  3.172451  0  0  -0.276341  0  3.190083  0  0  -0.222624  -0.269534  0  3.164849  0
N  N71  1  0.91449522  0.58382362  0.54251906  1  0  -0.286316  0  2.889443  0  0  -0.276174  0  3.172446  0  0  -0.276236  0  3.190094  0  0  -0.222608  -0.269466  0  3.164845  0
N  N72  1  0.51002979  0.78294764  0.87563810  1  0  -0.370297  0  3.307421  0  0  -0.286809  0  3.620092  0  0  -0.308983  0  3.62936  0  0  -0.364774  -0.272086  0  3.611744  0
N  N73  1  0.48997095  0.28294978  0.12436057  1  0  -0.370255  0  3.307447  0  0  -0.286779  0  3.620104  0  0  -0.308953  0  3.629381  0  0  -0.364725  -0.272056  0  3.611761  0
N  N74  1  0.98996830  0.28294961  0.37563901  1  0  -0.370214  0  3.307419  0  0  -0.286733  0  3.620076  0  0  -0.308908  0  3.629347  0  0  -0.364734  -0.27201  0  3.611731  0
N  N75  1  0.01002969  0.78294670  0.62436315  1  0  -0.370227  0  3.307449  0  0  -0.286781  0  3.62015  0  0  -0.308952  0  3.629408  0  0  -0.36475  -0.272057  0  3.611802  0
O  O76  1  0.47111758  0.93210516  0.66571290  1  0  -0.526886  0  1.850168  0  0  -0.511181  0  2.125021  0  0  -0.526456  0  2.110786  0  0  -0.221661  -0.500654  0  2.134868  0
O  O77  1  0.52888124  0.43210682  0.33428737  1  0  -0.526872  0  1.850146  0  0  -0.511139  0  2.124956  0  0  -0.526411  0  2.11072  0  0  -0.221665  -0.500618  0  2.134803  0
O  O78  1  0.02888385  0.43210603  0.16571324  1  0  -0.526883  0  1.850139  0  0  -0.51118  0  2.125007  0  0  -0.526452  0  2.110772  0  0  -0.221675  -0.500653  0  2.134856  0
O  O79  1  0.97111772  0.93210706  0.83428704  1  0  -0.526864  0  1.85014  0  0  -0.511147  0  2.124948  0  0  -0.52642  0  2.110714  0  0  -0.221667  -0.500619  0  2.134794  0
O  O80  1  0.66151694  0.00323675  0.55452128  1  0  -0.467314  0  1.748813  0  0  -0.456659  0  1.967555  0  0  -0.470314  0  1.960491  0  0  -0.195528  -0.447215  0  1.972543  0
O  O81  1  0.33848070  0.50323798  0.44547840  1  0  -0.467281  0  1.748888  0  0  -0.456651  0  1.967646  0  0  -0.470307  0  1.960583  0  0  -0.195509  -0.447207  0  1.972629  0
O  O82  1  0.83848389  0.50323780  0.05452152  1  0  -0.467359  0  1.74878  0  0  -0.456717  0  1.96752  0  0  -0.470374  0  1.960454  0  0  -0.195582  -0.447273  0  1.972509  0
O  O83  1  0.16151375  0.00323915  0.94548096  1  0  -0.467302  0  1.748874  0  0  -0.456645  0  1.967633  0  0  -0.4703  0  1.960568  0  0  -0.1955  -0.4472  0  1.972621  0
O  O84  1  0.48003073  0.81062032  0.53197250  1  0  -0.479678  0  1.728367  0  0  -0.474776  0  1.949256  0  0  -0.487462  0  1.941738  0  0  -0.210709  -0.465937  0  1.954021  0
O  O85  1  0.51996853  0.31062136  0.46802691  1  0  -0.479671  0  1.728359  0  0  -0.474767  0  1.949241  0  0  -0.48746  0  1.941733  0  0  -0.210688  -0.465929  0  1.954003  0
O  O86  1  0.01997128  0.31062011  0.03197283  1  0  -0.479686  0  1.728341  0  0  -0.474794  0  1.949253  0  0  -0.487485  0  1.941742  0  0  -0.210718  -0.465958  0  1.954026  0
O  O87  1  0.98002936  0.81061825  0.96802727  1  0  -0.479698  0  1.728319  0  0  -0.474825  0  1.949212  0  0  -0.487518  0  1.941702  0  0  -0.210751  -0.46599  0  1.953987  0
