# generated using pymatgen
data_ZnH12C9(NO2)2
_symmetry_space_group_name_H-M   'P 1'
_cell_length_a   7.42229842
_cell_length_b   7.94590387
_cell_length_c   18.63742087
_cell_angle_alpha   88.52819581
_cell_angle_beta   86.59255986
_cell_angle_gamma   83.94056024
_symmetry_Int_Tables_number   1
_chemical_formula_structural   ZnH12C9(NO2)2
_chemical_formula_sum   'Zn4 H48 C36 N8 O16'
_cell_volume   1090.89456866
_cell_formula_units_Z   4
loop_
 _symmetry_equiv_pos_site_id
 _symmetry_equiv_pos_as_xyz
  1  'x, y, z'
loop_
 _atom_site_type_symbol
 _atom_site_label
 _atom_site_symmetry_multiplicity
 _atom_site_fract_x
 _atom_site_fract_y
 _atom_site_fract_z
 _atom_site_occupancy
 _atom_site_hle17_bader_spin_density
 _atom_site_hle17_ddec_charge
 _atom_site_hle17_ddec_spin_density
 _atom_site_hle17_ddec_sum_bond_order
 _atom_site_hle17_magmom
 _atom_site_hse06_10hf_bader_spin_density
 _atom_site_hse06_10hf_ddec_charge
 _atom_site_hse06_10hf_ddec_spin_density
 _atom_site_hse06_10hf_ddec_sum_bond_order
 _atom_site_hse06_10hf_magmom
 _atom_site_hse06_bader_spin_density
 _atom_site_hse06_ddec_charge
 _atom_site_hse06_ddec_spin_density
 _atom_site_hse06_ddec_sum_bond_order
 _atom_site_hse06_magmom
 _atom_site_pbe_bader_spin_density
 _atom_site_pbe_cm5_charge
 _atom_site_pbe_ddec_charge
 _atom_site_pbe_ddec_spin_density
 _atom_site_pbe_ddec_sum_bond_order
 _atom_site_pbe_magmom
Zn  Zn0  1  0.80774572  0.18943822  0.16461008  1  0  1.074045  0  1.803783  0  0  0.884746  0  2.285903  0  0  0.935614  0  2.224468  0  0  0.692155  0.849004  0  2.328353  0
Zn  Zn1  1  0.19225318  0.81056061  0.83538933  1  0  1.073991  0  1.803786  0  0  0.884688  0  2.285904  0  0  0.935555  0  2.224475  0  0  0.692131  0.848945  0  2.328344  0
Zn  Zn2  1  0.28929507  0.01921411  0.30371944  1  0  1.069286  0  1.792133  0  0  0.879327  0  2.267579  0  0  0.930391  0  2.207637  0  0  0.689294  0.843471  0  2.308964  0
Zn  Zn3  1  0.71070045  0.98079106  0.69628105  1  0  1.069303  0  1.792191  0  0  0.879343  0  2.267637  0  0  0.930409  0  2.207696  0  0  0.689281  0.843487  0  2.309015  0
H  H4  1  0.38580018  0.78107261  0.14043812  1  0  0.151386  0  0.936039  0  0  0.169808  0  0.996053  0  0  0.172832  0  0.994791  0  0  0.103407  0.167574  0  0.997057  0
H  H5  1  0.61420184  0.21892242  0.85956179  1  0  0.151345  0  0.936055  0  0  0.169787  0  0.996062  0  0  0.17281  0  0.9948  0  0  0.103419  0.167554  0  0.997065  0
H  H6  1  0.40573813  0.91004675  0.06080338  1  0  0.14478  0  0.937031  0  0  0.164129  0  0.992863  0  0  0.167006  0  0.991598  0  0  0.099701  0.162076  0  0.993767  0
H  H7  1  0.59426674  0.08994701  0.93919648  1  0  0.14477  0  0.936995  0  0  0.164118  0  0.992836  0  0  0.166995  0  0.991573  0  0  0.099719  0.162063  0  0.993747  0
H  H8  1  0.23246406  0.96627021  0.13040393  1  0  0.14415  0  0.970649  0  0  0.160323  0  1.033825  0  0  0.162692  0  1.034121  0  0  0.097685  0.15862  0  1.033678  0
H  H9  1  0.76754079  0.03372354  0.86959485  1  0  0.144108  0  0.970704  0  0  0.160322  0  1.033847  0  0  0.162691  0  1.034142  0  0  0.097686  0.15862  0  1.0337  0
H  H10  1  0.43532608  0.66864089  0.26960258  1  0  0.13244  0  0.973226  0  0  0.148826  0  1.039226  0  0  0.151044  0  1.038933  0  0  0.092248  0.147223  0  1.039497  0
H  H11  1  0.56466862  0.33135919  0.73039370  1  0  0.132452  0  0.973049  0  0  0.148827  0  1.039096  0  0  0.151043  0  1.038805  0  0  0.092261  0.147225  0  1.039365  0
H  H12  1  0.58210492  0.55936543  0.33301901  1  0  0.122764  0  0.967117  0  0  0.140781  0  1.029743  0  0  0.142632  0  1.030136  0  0  0.08986  0.139408  0  1.029563  0
H  H13  1  0.41788573  0.44063467  0.66697790  1  0  0.122746  0  0.967155  0  0  0.140782  0  1.029739  0  0  0.142634  0  1.030131  0  0  0.089835  0.139411  0  1.02956  0
H  H14  1  0.38249414  0.47375261  0.30900441  1  0  0.155135  0  0.957622  0  0  0.1725  0  1.018313  0  0  0.175943  0  1.016721  0  0  0.101285  0.170043  0  1.019453  0
H  H15  1  0.61749623  0.52625002  0.69099195  1  0  0.155136  0  0.957621  0  0  0.172499  0  1.018316  0  0  0.175941  0  1.016727  0  0  0.101313  0.170043  0  1.019458  0
H  H16  1  0.79736389  0.73395593  0.28689108  1  0  0.145342  0  0.947861  0  0  0.165413  0  1.005911  0  0  0.167247  0  1.00666  0  0  0.103598  0.164078  0  1.005459  0
H  H17  1  0.20263786  0.26604163  0.71310934  1  0  0.145351  0  0.947869  0  0  0.165422  0  1.00591  0  0  0.167257  0  1.006659  0  0  0.103611  0.164089  0  1.00546  0
H  H18  1  0.94460868  0.63613137  0.21849687  1  0  0.148674  0  0.943345  0  0  0.164985  0  1.006205  0  0  0.167874  0  1.005477  0  0  0.101238  0.162935  0  1.006715  0
H  H19  1  0.05539428  0.36386745  0.78150405  1  0  0.148658  0  0.943328  0  0  0.164974  0  1.006184  0  0  0.167863  0  1.005457  0  0  0.10124  0.162925  0  1.006702  0
H  H20  1  0.77235921  0.80206057  0.19587889  1  0  0.131696  0  0.970167  0  0  0.150639  0  1.029316  0  0  0.15217  0  1.029962  0  0  0.095541  0.149525  0  1.028923  0
H  H21  1  0.22764133  0.19793573  0.80412158  1  0  0.131736  0  0.970126  0  0  0.150645  0  1.02931  0  0  0.152176  0  1.029958  0  0  0.095537  0.149533  0  1.028913  0
H  H22  1  0.85868270  0.46581770  0.35980282  1  0  0.141102  0  0.95866  0  0  0.159243  0  1.022119  0  0  0.162009  0  1.021138  0  0  0.100089  0.157256  0  1.022877  0
H  H23  1  0.14132632  0.53420010  0.64020040  1  0  0.141071  0  0.958623  0  0  0.159209  0  1.022094  0  0  0.161977  0  1.021107  0  0  0.100054  0.15722  0  1.022856  0
H  H24  1  0.07125920  0.54823029  0.36390429  1  0  0.139537  0  0.954265  0  0  0.156634  0  1.01603  0  0  0.159475  0  1.014809  0  0  0.095168  0.154562  0  1.016969  0
H  H25  1  0.92875469  0.45177991  0.63609837  1  0  0.139619  0  0.954182  0  0  0.156664  0  1.016009  0  0  0.159499  0  1.014786  0  0  0.095209  0.154591  0  1.01695  0
H  H26  1  0.96203014  0.46061766  0.44336839  1  0  0.124749  0  0.958262  0  0  0.144511  0  1.018813  0  0  0.14627  0  1.018762  0  0  0.093492  0.143248  0  1.018846  0
H  H27  1  0.03798091  0.53939380  0.55663432  1  0  0.124836  0  0.958241  0  0  0.144591  0  1.018775  0  0  0.146349  0  1.018729  0  0  0.093557  0.143334  0  1.018808  0
H  H28  1  0.36006832  0.44388281  0.03950129  1  0  0.123114  0  0.937277  0  0  0.137821  0  0.986481  0  0  0.141249  0  0.985906  0  0  0.112698  0.135389  0  0.987081  0
H  H29  1  0.63993669  0.55610968  0.96049966  1  0  0.123117  0  0.937339  0  0  0.137874  0  0.986472  0  0  0.141305  0  0.985895  0  0  0.11273  0.135443  0  0.987069  0
H  H30  1  0.28202629  0.37157381  0.91667943  1  0  0.09885  0  0.952696  0  0  0.109587  0  1.012902  0  0  0.111961  0  1.011023  0  0  0.105741  0.107799  0  1.014288  0
H  H31  1  0.71797695  0.62842249  0.08332151  1  0  0.098837  0  0.952668  0  0  0.109576  0  1.012875  0  0  0.11195  0  1.010997  0  0  0.105733  0.10779  0  1.01426  0
H  H32  1  0.00461132  0.21439567  0.90371535  1  0  0.099671  0  0.974094  0  0  0.111913  0  1.034522  0  0  0.114118  0  1.035441  0  0  0.101668  0.110313  0  1.034087  0
H  H33  1  0.99539015  0.78560441  0.09628398  1  0  0.099675  0  0.974063  0  0  0.111919  0  1.034492  0  0  0.114126  0  1.035408  0  0  0.101665  0.11032  0  1.034057  0
H  H34  1  0.81937406  0.14772629  0.01472595  1  0  0.076374  0  0.966  0  0  0.086721  0  1.029819  0  0  0.089098  0  1.02752  0  0  0.113848  0.084898  0  1.031576  0
H  H35  1  0.18062470  0.85227380  0.98527291  1  0  0.076344  0  0.966031  0  0  0.086738  0  1.029806  0  0  0.089087  0  1.027534  0  0  0.11386  0.084914  0  1.03156  0
H  H36  1  0.82375886  0.88674138  0.47156328  1  0  0.134417  0  0.937238  0  0  0.145549  0  0.991736  0  0  0.149474  0  0.990697  0  0  0.11256  0.142761  0  0.992656  0
H  H37  1  0.17623775  0.11325365  0.52843516  1  0  0.134439  0  0.937134  0  0  0.145535  0  0.991682  0  0  0.149461  0  0.990641  0  0  0.112551  0.142749  0  0.992601  0
H  H38  1  0.66250075  0.67867903  0.54608492  1  0  0.086408  0  0.94859  0  0  0.101739  0  1.004118  0  0  0.10342  0  1.002836  0  0  0.105632  0.100499  0  1.004946  0
H  H39  1  0.33749424  0.32131855  0.45391460  1  0  0.086462  0  0.94854  0  0  0.101782  0  1.004069  0  0  0.103453  0  1.00282  0  0  0.105671  0.100546  0  1.004901  0
H  H40  1  0.34573010  0.62610430  0.51729166  1  0  0.101913  0  0.968549  0  0  0.113547  0  1.028364  0  0  0.116217  0  1.028729  0  0  0.102259  0.111644  0  1.028266  0
H  H41  1  0.65426745  0.37389453  0.48270724  1  0  0.10193  0  0.968545  0  0  0.113545  0  1.028372  0  0  0.116215  0  1.02874  0  0  0.102292  0.111642  0  1.028275  0
H  H42  1  0.20878187  0.78185894  0.41214963  1  0  0.079883  0  0.946628  0  0  0.090514  0  1.007935  0  0  0.093212  0  1.004902  0  0  0.11772  0.088497  0  1.010208  0
H  H43  1  0.79121568  0.21813989  0.58784928  1  0  0.079891  0  0.946672  0  0  0.090557  0  1.007918  0  0  0.093256  0  1.004881  0  0  0.117733  0.088539  0  1.010191  0
H  H44  1  0.11600479  0.32511504  0.20341587  1  0  0.330881  0  0.900999  0  0  0.313027  0  0.969278  0  0  0.320208  0  0.963278  0  0  0.3027  0.30793  0  0.973549  0
H  H45  1  0.88399277  0.67488379  0.79658464  1  0  0.330917  0  0.900978  0  0  0.31306  0  0.969255  0  0  0.320241  0  0.963253  0  0  0.302713  0.307962  0  0.973529  0
H  H46  1  0.29540683  0.42156054  0.16362863  1  0  0.335952  0  0.925309  0  0  0.32027  0  0.985054  0  0  0.327677  0  0.979503  0  0  0.295501  0.315025  0  0.98898  0
H  H47  1  0.70459208  0.57843829  0.83637185  1  0  0.335894  0  0.925365  0  0  0.320212  0  0.985109  0  0  0.327619  0  0.979557  0  0  0.295477  0.314969  0  0.989035  0
H  H48  1  0.63121232  0.11641228  0.31679606  1  0  0.332322  0  0.908046  0  0  0.313334  0  0.97617  0  0  0.320546  0  0.970184  0  0  0.302478  0.308193  0  0.980499  0
H  H49  1  0.36878753  0.88359034  0.68320435  1  0  0.332359  0  0.908016  0  0  0.31338  0  0.976125  0  0  0.320592  0  0.970138  0  0  0.30249  0.308242  0  0.980443  0
H  H50  1  0.80810739  0.09143368  0.37551715  1  0  0.342769  0  0.929314  0  0  0.324719  0  0.990971  0  0  0.332036  0  0.985673  0  0  0.297727  0.319561  0  0.99469  0
H  H51  1  0.19189004  0.90856643  0.62448443  1  0  0.342851  0  0.92922  0  0  0.324788  0  0.990874  0  0  0.332121  0  0.98555  0  0  0.297747  0.319608  0  0.994627  0
C  C52  1  0.50056400  0.01205766  0.15541779  1  0  0.774674  0  3.796821  0  0  0.73142  0  4.085867  0  0  0.766839  0  4.077165  0  0  0.224159  0.707242  0  4.091081  0
C  C53  1  0.49943533  0.98793738  0.84458272  1  0  0.77467  0  3.796861  0  0  0.731411  0  4.085918  0  0  0.766823  0  4.077226  0  0  0.224165  0.707227  0  4.091137  0
C  C54  1  0.37286750  0.91182360  0.11880889  1  0  -0.477058  0  3.641312  0  0  -0.551157  0  3.867853  0  0  -0.559936  0  3.870427  0  0  -0.248971  -0.544892  0  3.866003  0
C  C55  1  0.62713452  0.08817143  0.88119102  1  0  -0.47693  0  3.641298  0  0  -0.551075  0  3.867811  0  0  -0.559851  0  3.870387  0  0  -0.24897  -0.544807  0  3.865965  0
C  C56  1  0.59361100  0.44591741  0.22805166  1  0  0.745976  0  3.842814  0  0  0.706031  0  4.132658  0  0  0.739624  0  4.125354  0  0  0.204653  0.683142  0  4.136874  0
C  C57  1  0.40638114  0.55408143  0.77194631  1  0  0.745969  0  3.842892  0  0  0.705961  0  4.132835  0  0  0.739543  0  4.125545  0  0  0.204503  0.683064  0  4.137061  0
C  C58  1  0.49488705  0.54512390  0.28868080  1  0  -0.468966  0  3.661645  0  0  -0.544236  0  3.893119  0  0  -0.552617  0  3.896234  0  0  -0.256512  -0.538242  0  3.890859  0
C  C59  1  0.50510197  0.45487874  0.71131666  1  0  -0.468938  0  3.661533  0  0  -0.54418  0  3.892999  0  0  -0.552562  0  3.896128  0  0  -0.256478  -0.538185  0  3.890741  0
C  C60  1  0.00246325  0.88306094  0.24640297  1  0  0.769585  0  3.811627  0  0  0.724337  0  4.102164  0  0  0.759869  0  4.092915  0  0  0.222469  0.7001  0  4.107742  0
C  C61  1  0.99753553  0.11693916  0.75359750  1  0  0.769475  0  3.811749  0  0  0.724309  0  4.102159  0  0  0.759842  0  4.092906  0  0  0.222451  0.700072  0  4.107738  0
C  C62  1  0.87032542  0.75690158  0.23528930  1  0  -0.46674  0  3.647012  0  0  -0.540818  0  3.875448  0  0  -0.548821  0  3.878552  0  0  -0.249073  -0.535145  0  3.8732  0
C  C63  1  0.12967619  0.24309724  0.76471111  1  0  -0.466715  0  3.646999  0  0  -0.540802  0  3.875434  0  0  -0.548805  0  3.878538  0  0  -0.249087  -0.535134  0  3.873194  0
C  C64  1  0.07657431  0.27361468  0.36748116  1  0  0.739617  0  3.841475  0  0  0.69542  0  4.139764  0  0  0.728767  0  4.132454  0  0  0.204912  0.672735  0  4.143996  0
C  C65  1  0.92342785  0.72639176  0.63252237  1  0  0.739903  0  3.841351  0  0  0.695695  0  4.1396  0  0  0.729041  0  4.132293  0  0  0.204998  0.673018  0  4.143817  0
C  C66  1  0.98953565  0.44923077  0.38515509  1  0  -0.458478  0  3.654481  0  0  -0.533734  0  3.886923  0  0  -0.541251  0  3.8896  0  0  -0.247431  -0.528355  0  3.884989  0
C  C67  1  0.01047392  0.55078197  0.61484764  1  0  -0.458662  0  3.654494  0  0  -0.533862  0  3.886986  0  0  -0.541378  0  3.889668  0  0  -0.247485  -0.528489  0  3.885057  0
C  C68  1  0.12989579  0.33723789  0.09221238  1  0  0.491294  0  3.825843  0  0  0.464345  0  4.079807  0  0  0.484723  0  4.094788  0  0  0.231184  0.450718  0  4.069258  0
C  C69  1  0.87010489  0.66275714  0.90778757  1  0  0.491335  0  3.825757  0  0  0.464396  0  4.079704  0  0  0.484778  0  4.09468  0  0  0.231212  0.450768  0  4.069159  0
C  C70  1  0.24139490  0.37854091  0.03116100  1  0  -0.231719  0  3.685176  0  0  -0.242569  0  3.927254  0  0  -0.25487  0  3.94744  0  0  -0.093472  -0.234707  0  3.913768  0
C  C71  1  0.75860848  0.62145411  0.96883888  1  0  -0.231768  0  3.685087  0  0  -0.24266  0  3.927156  0  0  -0.254968  0  3.947343  0  0  -0.093503  -0.2348  0  3.913672  0
C  C72  1  0.19761735  0.33650653  0.96351702  1  0  0.023103  0  3.743741  0  0  0.001801  0  3.997646  0  0  0.009882  0  4.013934  0  0  -0.069595  -0.003101  0  3.986336  0
C  C73  1  0.80238724  0.66348975  0.03648336  1  0  0.023185  0  3.743551  0  0  0.00188  0  3.997469  0  0  0.009959  0  4.013763  0  0  -0.06956  -0.003024  0  3.986163  0
C  C74  1  0.04345341  0.25096767  0.95588072  1  0  -0.163361  0  3.784055  0  0  -0.181342  0  4.045641  0  0  -0.191379  0  4.069002  0  0  -0.110114  -0.174998  0  4.029967  0
C  C75  1  0.95654834  0.74902989  0.04411917  1  0  -0.163441  0  3.783983  0  0  -0.181417  0  4.045606  0  0  -0.191453  0  4.068956  0  0  -0.110164  -0.175076  0  4.029936  0
C  C76  1  0.94006477  0.21404159  0.01693270  1  0  0.126325  0  3.765906  0  0  0.093845  0  4.016496  0  0  0.102638  0  4.036149  0  0  0.033739  0.088298  0  4.003002  0
C  C77  1  0.05993698  0.78595597  0.98306719  1  0  0.126417  0  3.765712  0  0  0.093885  0  4.016333  0  0  0.102705  0  4.035994  0  0  0.033803  0.08834  0  4.002833  0
C  C78  1  0.60216795  0.94314309  0.40062992  1  0  0.493455  0  3.839484  0  0  0.465652  0  4.092089  0  0  0.48632  0  4.106977  0  0  0.23167  0.451824  0  4.081652  0
C  C79  1  0.39783095  0.05685573  0.59936948  1  0  0.493511  0  3.839432  0  0  0.465698  0  4.092064  0  0  0.486391  0  4.106918  0  0  0.231684  0.451867  0  4.081629  0
C  C80  1  0.68892916  0.85749338  0.45921252  1  0  -0.236416  0  3.676837  0  0  -0.248334  0  3.923369  0  0  -0.260744  0  3.943997  0  0  -0.095952  -0.240412  0  3.909679  0
C  C81  1  0.31107109  0.14250544  0.54078632  1  0  -0.236471  0  3.676753  0  0  -0.24836  0  3.923302  0  0  -0.260776  0  3.94392  0  0  -0.095964  -0.240443  0  3.909624  0
C  C82  1  0.59835469  0.74334961  0.50045296  1  0  0.014407  0  3.780706  0  0  -0.007136  0  4.035477  0  0  0.000928  0  4.052381  0  0  -0.07496  -0.012062  0  4.023826  0
C  C83  1  0.40164314  0.25664668  0.49954597  1  0  0.014362  0  3.780653  0  0  -0.00716  0  4.035411  0  0  0.000899  0  4.05231  0  0  -0.074997  -0.012092  0  4.023775  0
C  C84  1  0.42180113  0.71263265  0.48470663  1  0  -0.18096  0  3.798327  0  0  -0.197602  0  4.059481  0  0  -0.207843  0  4.081895  0  0  -0.112974  -0.191121  0  4.044462  0
C  C85  1  0.57819790  0.28736491  0.51529118  1  0  -0.180904  0  3.798207  0  0  -0.197543  0  4.059368  0  0  -0.207783  0  4.081785  0  0  -0.112954  -0.191058  0  4.044348  0
C  C86  1  0.34536722  0.79874295  0.42705636  1  0  0.14611  0  3.750516  0  0  0.113068  0  4.00335  0  0  0.122963  0  4.021386  0  0  0.038456  0.106687  0  3.991013  0
C  C87  1  0.65463182  0.20125461  0.57294253  1  0  0.14598  0  3.750499  0  0  0.112947  0  4.00332  0  0  0.122841  0  4.02136  0  0  0.038393  0.10657  0  3.990977  0
N  N88  1  0.97981826  0.25652328  0.08386159  1  0  -0.473844  0  3.256344  0  0  -0.385661  0  3.536227  0  0  -0.410507  0  3.546587  0  0  -0.355228  -0.368874  0  3.528895  0
N  N89  1  0.02018228  0.74347302  0.91613888  1  0  -0.473823  0  3.256229  0  0  -0.385661  0  3.53616  0  0  -0.410507  0  3.546507  0  0  -0.355253  -0.36887  0  3.528824  0
N  N90  1  0.16929439  0.38200239  0.15864746  1  0  -0.677483  0  3.085505  0  0  -0.641475  0  3.314706  0  0  -0.663256  0  3.312849  0  0  -0.578403  -0.626219  0  3.315653  0
N  N91  1  0.83070331  0.61799518  0.84135253  1  0  -0.677525  0  3.085537  0  0  -0.641507  0  3.314725  0  0  -0.663289  0  3.312866  0  0  -0.578441  -0.626252  0  3.31568  0
N  N92  1  0.43244425  0.91028558  0.38502349  1  0  -0.481395  0  3.249001  0  0  -0.393094  0  3.528354  0  0  -0.418621  0  3.539762  0  0  -0.354303  -0.375859  0  3.520371  0
N  N93  1  0.56755438  0.08971578  0.61497589  1  0  -0.481278  0  3.248907  0  0  -0.393015  0  3.528315  0  0  -0.418554  0  3.539723  0  0  -0.354261  -0.375777  0  3.520326  0
N  N94  1  0.68642239  0.05746395  0.36047457  1  0  -0.680796  0  3.128722  0  0  -0.641811  0  3.359815  0  0  -0.664428  0  3.359476  0  0  -0.5795  -0.625975  0  3.359738  0
N  N95  1  0.31357787  0.94253488  0.63952535  1  0  -0.680978  0  3.128657  0  0  -0.641973  0  3.359787  0  0  -0.664611  0  3.359403  0  0  -0.57956  -0.626117  0  3.359742  0
O  O96  1  0.63579088  0.05968699  0.11722667  1  0  -0.645301  0  2.030132  0  0  -0.571287  0  2.298399  0  0  -0.600883  0  2.282721  0  0  -0.315408  -0.550738  0  2.308637  0
O  O97  1  0.36421087  0.94031057  0.88277376  1  0  -0.645305  0  2.030189  0  0  -0.571267  0  2.298418  0  0  -0.600858  0  2.28274  0  0  -0.315404  -0.550718  0  2.308656  0
O  O98  1  0.47752631  0.04394370  0.22225982  1  0  -0.67344  0  2.062295  0  0  -0.597166  0  2.337577  0  0  -0.625563  0  2.319918  0  0  -0.321084  -0.577479  0  2.349324  0
O  O99  1  0.52247274  0.95605386  0.77773960  1  0  -0.673491  0  2.062332  0  0  -0.597213  0  2.3376  0  0  -0.625608  0  2.319942  0  0  -0.321124  -0.577524  0  2.349344  0
O  O100  1  0.73161500  0.34061286  0.24488611  1  0  -0.673692  0  2.004315  0  0  -0.588567  0  2.262435  0  0  -0.618599  0  2.24738  0  0  -0.336546  -0.567663  0  2.272215  0
O  O101  1  0.26837729  0.65938471  0.75511294  1  0  -0.673715  0  2.004235  0  0  -0.588576  0  2.26239  0  0  -0.618602  0  2.247337  0  0  -0.336555  -0.56767  0  2.272173  0
O  O102  1  0.53923902  0.46120145  0.16522746  1  0  -0.660578  0  1.90734  0  0  -0.608931  0  2.12537  0  0  -0.632568  0  2.115095  0  0  -0.328023  -0.592421  0  2.131979  0
O  O103  1  0.46075569  0.53879864  0.83476989  1  0  -0.660516  0  1.907401  0  0  -0.608859  0  2.125488  0  0  -0.632489  0  2.115213  0  0  -0.327912  -0.592345  0  2.132097  0
O  O104  1  0.13340207  0.83597064  0.28644014  1  0  -0.644809  0  2.033951  0  0  -0.566909  0  2.29614  0  0  -0.59687  0  2.2817  0  0  -0.314412  -0.546129  0  2.305498  0
O  O105  1  0.86659509  0.16403200  0.71356141  1  0  -0.64479  0  2.034001  0  0  -0.566901  0  2.29613  0  0  -0.596865  0  2.28169  0  0  -0.314393  -0.546125  0  2.305492  0
O  O106  1  0.98872287  0.02979072  0.21683712  1  0  -0.680679  0  2.090799  0  0  -0.605916  0  2.372926  0  0  -0.633931  0  2.354489  0  0  -0.322799  -0.586443  0  2.385204  0
O  O107  1  0.01127604  0.97020811  0.78316282  1  0  -0.680623  0  2.090853  0  0  -0.605901  0  2.372967  0  0  -0.633915  0  2.354528  0  0  -0.322788  -0.586425  0  2.385239  0
O  O108  1  0.20187773  0.26222637  0.31541115  1  0  -0.67261  0  2.015554  0  0  -0.587596  0  2.273553  0  0  -0.617905  0  2.258943  0  0  -0.32888  -0.566519  0  2.283065  0
O  O109  1  0.79812064  0.73777753  0.68458982  1  0  -0.672815  0  2.015639  0  0  -0.587786  0  2.273655  0  0  -0.618095  0  2.259042  0  0  -0.328928  -0.566715  0  2.283167  0
O  O110  1  0.02679644  0.14608868  0.40124620  1  0  -0.643868  0  1.910065  0  0  -0.591198  0  2.131162  0  0  -0.614378  0  2.121679  0  0  -0.322896  -0.574937  0  2.137008  0
O  O111  1  0.97320085  0.85392537  0.59875897  1  0  -0.643949  0  1.909905  0  0  -0.591295  0  2.131033  0  0  -0.614481  0  2.121552  0  0  -0.322948  -0.575039  0  2.136889  0
