# generated using pymatgen
data_Zn2H15C14NO8
_symmetry_space_group_name_H-M   'P 1'
_cell_length_a   10.30821490
_cell_length_b   11.69827483
_cell_length_c   20.48423415
_cell_angle_alpha   90.00016450
_cell_angle_beta   90.00013716
_cell_angle_gamma   90.00000621
_symmetry_Int_Tables_number   1
_chemical_formula_structural   Zn2H15C14NO8
_chemical_formula_sum   'Zn8 H60 C56 N4 O32'
_cell_volume   2470.15960602
_cell_formula_units_Z   4
loop_
 _symmetry_equiv_pos_site_id
 _symmetry_equiv_pos_as_xyz
  1  'x, y, z'
loop_
 _atom_site_type_symbol
 _atom_site_label
 _atom_site_symmetry_multiplicity
 _atom_site_fract_x
 _atom_site_fract_y
 _atom_site_fract_z
 _atom_site_occupancy
 _atom_site_pbe_bader_charge
 _atom_site_pbe_bader_spin_density
 _atom_site_pbe_cm5_charge
 _atom_site_pbe_ddec_charge
 _atom_site_pbe_ddec_spin_density
 _atom_site_pbe_ddec_sum_bond_order
 _atom_site_pbe_magmom
Zn  Zn0  1  0.03664270  0.92391062  0.01047567  1  1.362267  0  0.682328  0.967521  0  2.290287  0
Zn  Zn1  1  0.34697383  0.82018936  0.01031467  1  1.351094  0  0.677072  0.953963  0  2.311064  0
Zn  Zn2  1  0.46335690  0.07609030  0.51047586  1  1.362269  0  0.682334  0.967506  0  2.290253  0
Zn  Zn3  1  0.15302578  0.17980985  0.51031466  1  1.351107  0  0.677073  0.953945  0  2.311063  0
Zn  Zn4  1  0.96335712  0.42390993  0.48952375  1  1.362292  0  0.682308  0.967435  0  2.290232  0
Zn  Zn5  1  0.65302695  0.32018779  0.48968506  1  1.351085  0  0.677063  0.95393  0  2.311106  0
Zn  Zn6  1  0.53664428  0.57609002  0.98952376  1  1.362233  0  0.682325  0.967473  0  2.290236  0
Zn  Zn7  1  0.84697445  0.67981045  0.98968513  1  1.351171  0  0.677071  0.953917  0  2.311064  0
H  H8  1  0.24916190  0.51505022  0.98588024  1  0.048606  0  0.101599  0.057252  0  0.979547  0
H  H9  1  0.35085432  0.53283121  0.87681986  1  0.048396  0  0.090925  0.135394  0  1.017518  0
H  H10  1  0.17821045  0.54336265  0.87012437  1  0.048994  0  0.088014  0.124237  0  1.012159  0
H  H11  1  0.27673187  0.66912136  0.86505283  1  0.047764  0  0.08872  0.12967  0  0.997568  0
H  H12  1  0.03112033  0.01836562  0.20714227  1  0.073817  0  0.106692  0.112294  0  1.001237  0
H  H13  1  0.42291469  0.89475554  0.20223164  1  0.103343  0  0.10685  0.114603  0  0.998611  0
H  H14  1  0.45138353  0.95019905  0.31998617  1  0.073128  0  0.102496  0.105484  0  1.008401  0
H  H15  1  0.05706206  0.06796127  0.32602936  1  0.100541  0  0.108414  0.116205  0  0.991041  0
H  H16  1  0.02505116  0.15359933  0.92762916  1  0.114892  0  0.120477  0.045963  0  1.026812  0
H  H17  1  0.73957329  0.35761688  0.00602635  1  0.078979  0  0.10854  0.122511  0  1.013128  0
H  H18  1  0.75836613  0.21534983  0.03803769  1  0.076929  0  0.110245  0.12461  0  0.994932  0
H  H19  1  0.85970577  0.32848967  0.06649193  1  0.067742  0  0.109498  0.129304  0  0.97337  0
H  H20  1  0.83558038  0.37468317  0.89521124  1  0.074671  0  0.104464  0.122228  0  0.998054  0
H  H21  1  0.96172940  0.43376039  0.94482757  1  0.093043  0  0.107651  0.138832  0  1.019651  0
H  H22  1  0.99783057  0.32301059  0.88749609  1  0.053326  0  0.109974  0.118299  0  0.993516  0
H  H23  1  0.25083802  0.48494795  0.48588154  1  0.048727  0  0.101616  0.057273  0  0.979514  0
H  H24  1  0.14914411  0.46716984  0.37682052  1  0.048374  0  0.090923  0.135354  0  1.017544  0
H  H25  1  0.32178795  0.45663751  0.37012522  1  0.049025  0  0.087999  0.124238  0  1.012091  0
H  H26  1  0.22326554  0.33087963  0.36505238  1  0.047847  0  0.088729  0.129697  0  0.997541  0
H  H27  1  0.46887826  0.98163372  0.70714249  1  0.073817  0  0.106693  0.112298  0  1.001314  0
H  H28  1  0.07708388  0.10524036  0.70223190  1  0.103301  0  0.106864  0.11461  0  0.998617  0
H  H29  1  0.04861560  0.04979573  0.81998582  1  0.073135  0  0.102519  0.105552  0  1.008427  0
H  H30  1  0.44293710  0.93203610  0.82602801  1  0.100524  0  0.108426  0.116237  0  0.991089  0
H  H31  1  0.47494848  0.84640282  0.42763083  1  0.114927  0  0.120488  0.046004  0  1.026828  0
H  H32  1  0.76043067  0.64238663  0.50602527  1  0.078984  0  0.108543  0.12248  0  1.013213  0
H  H33  1  0.74163410  0.78465127  0.53803976  1  0.076884  0  0.110241  0.124583  0  0.994947  0
H  H34  1  0.64029750  0.67150816  0.56649124  1  0.06776  0  0.109506  0.129289  0  0.97341  0
H  H35  1  0.66441766  0.62531630  0.39521120  1  0.074706  0  0.104491  0.122287  0  0.998033  0
H  H36  1  0.53826887  0.56624104  0.44482875  1  0.09306  0  0.107645  0.138861  0  1.019597  0
H  H37  1  0.50216647  0.67699142  0.38749789  1  0.053218  0  0.109976  0.118338  0  0.993502  0
H  H38  1  0.75083927  0.01505055  0.51411976  1  0.048574  0  0.101592  0.057223  0  0.979559  0
H  H39  1  0.64914685  0.03283037  0.62317968  1  0.048395  0  0.090931  0.135402  0  1.017512  0
H  H40  1  0.82178879  0.04336101  0.62987568  1  0.048985  0  0.087996  0.124227  0  1.012173  0
H  H41  1  0.72326836  0.16911802  0.63494792  1  0.047783  0  0.088724  0.129673  0  0.997501  0
H  H42  1  0.96887750  0.51836525  0.29285892  1  0.073833  0  0.106674  0.112269  0  1.001267  0
H  H43  1  0.57708028  0.39476069  0.29776675  1  0.10335  0  0.106849  0.114594  0  0.99866  0
H  H44  1  0.54861630  0.45020532  0.18001280  1  0.073158  0  0.10253  0.105567  0  1.008422  0
H  H45  1  0.94293772  0.56796286  0.17397288  1  0.10057  0  0.108448  0.116265  0  0.991031  0
H  H46  1  0.97495197  0.65359700  0.57237107  1  0.115003  0  0.120525  0.046024  0  1.026833  0
H  H47  1  0.26043332  0.85761489  0.49397735  1  0.078916  0  0.10858  0.122547  0  1.013254  0
H  H48  1  0.24163754  0.71535024  0.46196284  1  0.076904  0  0.110235  0.12463  0  0.994899  0
H  H49  1  0.14029986  0.82849249  0.43351124  1  0.067839  0  0.109508  0.12929  0  0.973325  0
H  H50  1  0.16441987  0.87468178  0.60479131  1  0.074621  0  0.104457  0.122231  0  0.998031  0
H  H51  1  0.03827182  0.93375874  0.55517458  1  0.093028  0  0.107647  0.138835  0  1.019645  0
H  H52  1  0.00217162  0.82300750  0.61250442  1  0.05331  0  0.109975  0.11831  0  0.993553  0
H  H53  1  0.74916181  0.98495043  0.01411895  1  0.048688  0  0.101606  0.057257  0  0.979505  0
H  H54  1  0.85085766  0.96717031  0.12317946  1  0.048348  0  0.090942  0.13543  0  1.017488  0
H  H55  1  0.67821285  0.95663885  0.12987522  1  0.049017  0  0.087977  0.124233  0  1.012133  0
H  H56  1  0.77673621  0.83088101  0.13494689  1  0.047865  0  0.088729  0.129717  0  0.997581  0
H  H57  1  0.53112103  0.48163372  0.79285730  1  0.073827  0  0.106676  0.112276  0  1.001271  0
H  H58  1  0.92291439  0.60524514  0.79776776  1  0.103327  0  0.106848  0.114589  0  0.998612  0
H  H59  1  0.95138170  0.54980504  0.68001327  1  0.072821  0  0.10251  0.105503  0  1.008412  0
H  H60  1  0.55706413  0.43203807  0.67397024  1  0.100566  0  0.108427  0.116263  0  0.991007  0
H  H61  1  0.52504939  0.34640171  0.07237089  1  0.115025  0  0.120449  0.045893  0  1.026647  0
H  H62  1  0.23957246  0.14238162  0.99397201  1  0.078996  0  0.108546  0.122469  0  1.013188  0
H  H63  1  0.25835935  0.28465038  0.96196264  1  0.076815  0  0.110213  0.124536  0  0.994986  0
H  H64  1  0.35970175  0.17151483  0.93350658  1  0.067924  0  0.10949  0.129256  0  0.973411  0
H  H65  1  0.33558115  0.12531448  0.10478772  1  0.074683  0  0.104472  0.12228  0  0.99805  0
H  H66  1  0.46172896  0.06624155  0.05517008  1  0.093013  0  0.107631  0.138841  0  1.019631  0
H  H67  1  0.49783138  0.17698880  0.11250062  1  0.053262  0  0.109992  0.118356  0  0.993511  0
C  C68  1  0.13455816  0.66543905  0.98097262  1  1.551061  0  0.22276  0.594475  0  4.085051  0
C  C69  1  0.25832445  0.60024478  0.96326195  1  0.542444  0  -0.018356  0.143947  0  3.963712  0
C  C70  1  0.26593083  0.58542617  0.88888718  1  -0.113658  0  -0.249693  -0.420685  0  3.91973  0
C  C71  1  0.21276173  0.92432124  0.12703664  1  1.562138  0  0.219556  0.591156  0  4.196008  0
C  C72  1  0.22552357  0.95340946  0.19811328  1  -0.096841  0  -0.015169  -0.031203  0  3.969445  0
C  C73  1  0.12213130  0.00244454  0.23263118  1  0.075796  0  -0.083334  -0.094819  0  3.973109  0
C  C74  1  0.34383026  0.93312622  0.22991340  1  -0.005947  0  -0.085578  -0.097946  0  3.981479  0
C  C75  1  0.27208201  0.04364677  0.40023923  1  1.558302  0  0.218514  0.590955  0  4.196393  0
C  C76  1  0.25536993  0.01121275  0.32992902  1  -0.051763  0  -0.019483  -0.039079  0  3.979114  0
C  C77  1  0.35899211  0.96285384  0.29516069  1  -0.044056  0  -0.088818  -0.101295  0  3.994778  0
C  C78  1  0.13657625  0.03028556  0.29832027  1  -0.072648  0  -0.082919  -0.09507  0  3.972576  0
C  C79  1  0.96054593  0.16689119  0.96990469  1  1.342362  0  0.172618  0.287659  0  4.111986  0
C  C80  1  0.80900533  0.29381094  0.02361596  1  0.2536  0  -0.129959  -0.266572  0  3.881263  0
C  C81  1  0.92511195  0.35500941  0.92206852  1  0.272032  0  -0.131958  -0.283715  0  3.898646  0
C  C82  1  0.36543883  0.33455739  0.48097332  1  1.550938  0  0.222692  0.594404  0  4.08515  0
C  C83  1  0.24167536  0.39975499  0.46326212  1  0.542521  0  -0.018351  0.143955  0  3.963696  0
C  C84  1  0.23406766  0.41457408  0.38888785  1  -0.113871  0  -0.249667  -0.420661  0  3.919657  0
C  C85  1  0.28723939  0.07567685  0.62703661  1  1.56212  0  0.219579  0.591192  0  4.196059  0
C  C86  1  0.27447595  0.04658812  0.69811222  1  -0.096726  0  -0.015155  -0.031149  0  3.969379  0
C  C87  1  0.37786839  0.99755407  0.73262937  1  0.075574  0  -0.083351  -0.094844  0  3.973115  0
C  C88  1  0.15616748  0.06687153  0.72991321  1  -0.005829  0  -0.085611  -0.097964  0  3.981479  0
C  C89  1  0.22791750  0.95634927  0.90023863  1  1.558321  0  0.218492  0.5909  0  4.19638  0
C  C90  1  0.24462828  0.98878293  0.82992752  1  -0.05173  0  -0.019567  -0.039296  0  3.97939  0
C  C91  1  0.14100399  0.03713996  0.79515896  1  -0.044065  0  -0.088822  -0.101313  0  3.995001  0
C  C92  1  0.36342569  0.96971424  0.79832132  1  -0.072642  0  -0.082921  -0.095062  0  3.972553  0
C  C93  1  0.53945344  0.83311037  0.46990435  1  1.342331  0  0.172616  0.287631  0  4.111917  0
C  C94  1  0.69099774  0.70619009  0.52361686  1  0.253597  0  -0.129923  -0.266447  0  3.881348  0
C  C95  1  0.57488525  0.64499277  0.42206938  1  0.272084  0  -0.131993  -0.283896  0  3.8986  0
C  C96  1  0.86544110  0.16543941  0.51902665  1  1.550926  0  0.222709  0.594368  0  4.085052  0
C  C97  1  0.74167577  0.10024351  0.53673819  1  0.5426  0  -0.018323  0.144033  0  3.963604  0
C  C98  1  0.73406939  0.08542528  0.61111294  1  -0.113675  0  -0.249683  -0.420688  0  3.919673  0
C  C99  1  0.78723906  0.42432508  0.37296327  1  1.562149  0  0.219555  0.591027  0  4.195975  0
C  C100  1  0.77447431  0.45341124  0.30188667  1  -0.096678  0  -0.015141  -0.031125  0  3.969401  0
C  C101  1  0.87786556  0.50244574  0.26737096  1  0.075589  0  -0.083349  -0.094827  0  3.973097  0
C  C102  1  0.65616956  0.43312611  0.27008554  1  -0.005979  0  -0.08559  -0.09793  0  3.981652  0
C  C103  1  0.72791971  0.54365139  0.09976053  1  1.558371  0  0.21857  0.590956  0  4.196414  0
C  C104  1  0.74462888  0.51121772  0.17007167  1  -0.051824  0  -0.019481  -0.039033  0  3.979176  0
C  C105  1  0.64100481  0.46285939  0.20484074  1  -0.044085  0  -0.08883  -0.101416  0  3.994984  0
C  C106  1  0.86342450  0.53028130  0.20167948  1  -0.072611  0  -0.082954  -0.095143  0  3.972565  0
C  C107  1  0.03945527  0.66689026  0.53009752  1  1.342234  0  0.172596  0.287585  0  4.111886  0
C  C108  1  0.19100127  0.79381141  0.47638568  1  0.253591  0  -0.129958  -0.266618  0  3.88134  0
C  C109  1  0.07489024  0.85500616  0.57793351  1  0.272111  0  -0.13191  -0.283723  0  3.898593  0
C  C110  1  0.63456098  0.83455818  0.01902741  1  1.550912  0  0.222684  0.594345  0  4.085131  0
C  C111  1  0.75832543  0.89975502  0.03673725  1  0.542628  0  -0.018325  0.144042  0  3.963618  0
C  C112  1  0.76593410  0.91457449  0.11111203  1  -0.113842  0  -0.249678  -0.420787  0  3.919674  0
C  C113  1  0.71276276  0.57567771  0.87296349  1  1.562152  0  0.21954  0.591127  0  4.196045  0
C  C114  1  0.72552329  0.54658948  0.80188735  1  -0.09668  0  -0.01515  -0.031198  0  3.969407  0
C  C115  1  0.62213188  0.49755481  0.76736899  1  0.075686  0  -0.083345  -0.094805  0  3.973111  0
C  C116  1  0.84383177  0.56687701  0.77008590  1  -0.005948  0  -0.085585  -0.097923  0  3.981419  0
C  C117  1  0.77208178  0.45635430  0.59976063  1  1.558305  0  0.218569  0.591047  0  4.196297  0
C  C118  1  0.75536907  0.48879003  0.67007033  1  -0.051793  0  -0.019474  -0.039006  0  3.978987  0
C  C119  1  0.85899233  0.53714682  0.70483912  1  -0.04375  0  -0.088836  -0.101353  0  3.994724  0
C  C120  1  0.63657457  0.46971806  0.70167797  1  -0.072667  0  -0.082935  -0.095192  0  3.972554  0
C  C121  1  0.46054152  0.33311332  0.03009345  1  1.342474  0  0.172657  0.287754  0  4.111924  0
C  C122  1  0.30900151  0.20619013  0.97638248  1  0.253407  0  -0.129896  -0.266357  0  3.881259  0
C  C123  1  0.42511163  0.14499168  0.07792958  1  0.272113  0  -0.132001  -0.283919  0  3.898723  0
N  N124  1  0.89993117  0.26766588  0.97118425  1  -1.208572  0  -0.277962  0.035371  0  3.719698  0
N  N125  1  0.60007111  0.73233484  0.47118480  1  -1.208483  0  -0.277988  0.035387  0  3.719693  0
N  N126  1  0.10007391  0.76766410  0.52881665  1  -1.208527  0  -0.278028  0.035406  0  3.719715  0
N  N127  1  0.39992869  0.23233264  0.02881430  1  -1.208525  0  -0.277981  0.035358  0  3.71962  0
O  O128  1  0.14712252  0.76792435  0.00157168  1  -1.189311  0  -0.308248  -0.571985  0  2.481422  0
O  O129  1  0.36988893  0.65625738  0.98807968  1  -1.148822  0  -0.401051  -0.626049  0  2.4566  0
O  O130  1  0.02787914  0.61408188  0.97329002  1  -1.177436  0  -0.304666  -0.528166  0  2.346094  0
O  O131  1  0.11200998  0.96141723  0.09755295  1  -1.182384  0  -0.318997  -0.568337  0  2.372126  0
O  O132  1  0.30557891  0.86790175  0.10218631  1  -1.167613  0  -0.313174  -0.54916  0  2.370784  0
O  O133  1  0.38532670  0.02990207  0.42448916  1  -1.183243  0  -0.318456  -0.575919  0  2.390433  0
O  O134  1  0.17242564  0.08017872  0.43017686  1  -1.177955  0  -0.315148  -0.561778  0  2.362199  0
O  O135  1  0.94631228  0.09151357  0.01288031  1  -1.155056  0  -0.294449  -0.450143  0  2.374382  0
O  O136  1  0.35287607  0.23207567  0.50157200  1  -1.189375  0  -0.308228  -0.571942  0  2.481571  0
O  O137  1  0.13011003  0.34374166  0.48807963  1  -1.148774  0  -0.401085  -0.626056  0  2.456607  0
O  O138  1  0.47212266  0.38591794  0.47328947  1  -1.177362  0  -0.30465  -0.528166  0  2.345976  0
O  O139  1  0.38799003  0.03858242  0.59755348  1  -1.182405  0  -0.318988  -0.56834  0  2.372169  0
O  O140  1  0.19442113  0.13209792  0.60218676  1  -1.167582  0  -0.313152  -0.549152  0  2.370696  0
O  O141  1  0.11467002  0.97009665  0.92448893  1  -1.183253  0  -0.318451  -0.575898  0  2.390223  0
O  O142  1  0.32757207  0.91982003  0.93017681  1  -1.177926  0  -0.315088  -0.56167  0  2.362362  0
O  O143  1  0.55368977  0.90848826  0.51288186  1  -1.155103  0  -0.294462  -0.45017  0  2.374315  0
O  O144  1  0.85287632  0.26792199  0.49842845  1  -1.189287  0  -0.30822  -0.571915  0  2.481444  0
O  O145  1  0.63011032  0.15625769  0.51192055  1  -1.148818  0  -0.401083  -0.626084  0  2.456533  0
O  O146  1  0.97212399  0.11408144  0.52670966  1  -1.17744  0  -0.304665  -0.528142  0  2.345994  0
O  O147  1  0.88798790  0.46141781  0.40244603  1  -1.182406  0  -0.318943  -0.568228  0  2.37223  0
O  O148  1  0.69441897  0.36790058  0.39781350  1  -1.167586  0  -0.313183  -0.549127  0  2.370584  0
O  O149  1  0.61467502  0.52990314  0.07551010  1  -1.183196  0  -0.318469  -0.575936  0  2.39035  0
O  O150  1  0.82757608  0.58018149  0.06982394  1  -1.178047  0  -0.315179  -0.561741  0  2.362372  0
O  O151  1  0.05369235  0.59151152  0.48711905  1  -1.155074  0  -0.294474  -0.450154  0  2.374182  0
O  O152  1  0.64712319  0.73207629  0.99842836  1  -1.18935  0  -0.308227  -0.571914  0  2.481509  0
O  O153  1  0.86989075  0.84374414  0.01191965  1  -1.148851  0  -0.401074  -0.626103  0  2.456631  0
O  O154  1  0.52787716  0.88591876  0.02670988  1  -1.177381  0  -0.304635  -0.52812  0  2.345966  0
O  O155  1  0.61201212  0.53858171  0.90244705  1  -1.182404  0  -0.318987  -0.568327  0  2.372157  0
O  O156  1  0.80557909  0.63209806  0.89781295  1  -1.167617  0  -0.313153  -0.549117  0  2.370739  0
O  O157  1  0.88532636  0.47009901  0.57550987  1  -1.183246  0  -0.318464  -0.575942  0  2.390431  0
O  O158  1  0.67242527  0.41982063  0.56982288  1  -1.177948  0  -0.31515  -0.561789  0  2.362138  0
O  O159  1  0.44630757  0.40848581  0.98712074  1  -1.15522  0  -0.294449  -0.450115  0  2.374532  0
