# generated using pymatgen
data_Ag2H9C9S2NO7F6
_symmetry_space_group_name_H-M   'P 1'
_cell_length_a   8.33531329
_cell_length_b   9.77748432
_cell_length_c   11.62160748
_cell_angle_alpha   79.07489554
_cell_angle_beta   78.54290618
_cell_angle_gamma   68.66761256
_symmetry_Int_Tables_number   1
_chemical_formula_structural   Ag2H9C9S2NO7F6
_chemical_formula_sum   'Ag4 H18 C18 S4 N2 O14 F12'
_cell_volume   857.50649788
_cell_formula_units_Z   2
loop_
 _symmetry_equiv_pos_site_id
 _symmetry_equiv_pos_as_xyz
  1  'x, y, z'
loop_
 _atom_site_type_symbol
 _atom_site_label
 _atom_site_symmetry_multiplicity
 _atom_site_fract_x
 _atom_site_fract_y
 _atom_site_fract_z
 _atom_site_occupancy
 _atom_site_hle17_bader_spin_density
 _atom_site_hle17_ddec_charge
 _atom_site_hle17_ddec_spin_density
 _atom_site_hle17_ddec_sum_bond_order
 _atom_site_hle17_magmom
 _atom_site_hse06_10hf_bader_spin_density
 _atom_site_hse06_10hf_ddec_charge
 _atom_site_hse06_10hf_ddec_spin_density
 _atom_site_hse06_10hf_ddec_sum_bond_order
 _atom_site_hse06_10hf_magmom
 _atom_site_hse06_bader_spin_density
 _atom_site_hse06_ddec_charge
 _atom_site_hse06_ddec_spin_density
 _atom_site_hse06_ddec_sum_bond_order
 _atom_site_hse06_magmom
 _atom_site_pbe_bader_spin_density
 _atom_site_pbe_cm5_charge
 _atom_site_pbe_ddec_charge
 _atom_site_pbe_ddec_spin_density
 _atom_site_pbe_ddec_sum_bond_order
 _atom_site_pbe_magmom
Ag  Ag0  1  0.37127440  0.76595410  0.01988110  1  0  0.764333  0  1.09371  0  0  0.669269  0  1.485576  0  0  0.694696  0  1.438201  0  0  0.474136  0.649947  0  1.519772  0
Ag  Ag1  1  0.62872588  0.23404529  0.98011941  1  0  0.764347  0  1.093695  0  0  0.669276  0  1.48556  0  0  0.694704  0  1.438185  0  0  0.474124  0.649953  0  1.519756  0
Ag  Ag2  1  0.85921161  0.75916779  0.02064156  1  0  0.764972  0  1.089524  0  0  0.668576  0  1.479945  0  0  0.694588  0  1.431816  0  0  0.472823  0.649413  0  1.514156  0
Ag  Ag3  1  0.14078911  0.24083049  0.97936078  1  0  0.764998  0  1.089494  0  0  0.6686  0  1.479905  0  0  0.694607  0  1.431778  0  0  0.47283  0.649437  0  1.514116  0
H  H4  1  0.30404728  0.49577009  0.16846488  1  0  0.13143  0  0.96232  0  0  0.146543  0  1.036236  0  0  0.149694  0  1.033102  0  0  0.094178  0.14427  0  1.038454  0
H  H5  1  0.69595378  0.50423042  0.83153362  1  0  0.131476  0  0.962292  0  0  0.146588  0  1.03621  0  0  0.149736  0  1.033078  0  0  0.094193  0.144315  0  1.038429  0
H  H6  1  0.09559660  0.48334777  0.18261268  1  0  0.135785  0  0.96142  0  0  0.152197  0  1.031919  0  0  0.154921  0  1.029628  0  0  0.094946  0.150192  0  1.033604  0
H  H7  1  0.90440368  0.51665162  0.81738697  1  0  0.13575  0  0.96142  0  0  0.152169  0  1.031905  0  0  0.154893  0  1.029613  0  0  0.094921  0.150163  0  1.033591  0
H  H8  1  0.22584718  0.39603011  0.29838070  1  0  0.129853  0  0.928554  0  0  0.153677  0  0.979932  0  0  0.155045  0  0.979718  0  0  0.096042  0.152595  0  0.980169  0
H  H9  1  0.77415388  0.60397040  0.70161866  1  0  0.129857  0  0.928572  0  0  0.15368  0  0.979949  0  0  0.155048  0  0.979735  0  0  0.09604  0.152598  0  0.980187  0
H  H10  1  0.13392031  0.52538034  0.46890416  1  0  0.112582  0  0.955591  0  0  0.119995  0  1.019561  0  0  0.123002  0  1.018926  0  0  0.104219  0.117816  0  1.020293  0
H  H11  1  0.86608164  0.47461795  0.53109543  1  0  0.112589  0  0.95561  0  0  0.120003  0  1.019572  0  0  0.123011  0  1.018935  0  0  0.10423  0.117823  0  1.020304  0
H  H12  1  0.99817904  0.76350737  0.55751169  1  0  0.100245  0  0.933335  0  0  0.112934  0  0.989658  0  0  0.115859  0  0.986811  0  0  0.105835  0.110602  0  0.991976  0
H  H13  1  0.00182123  0.23649202  0.44248709  1  0  0.100247  0  0.933328  0  0  0.112938  0  0.98965  0  0  0.115863  0  0.986803  0  0  0.105831  0.110605  0  0.991968  0
H  H14  1  0.91210796  0.00222514  0.42076462  1  0  0.116664  0  0.941662  0  0  0.127267  0  1.000444  0  0  0.129821  0  1.000441  0  0  0.107639  0.125315  0  1.000915  0
H  H15  1  0.08789231  0.99777426  0.57923503  1  0  0.116684  0  0.941622  0  0  0.127282  0  1.000412  0  0  0.129838  0  1.000407  0  0  0.107651  0.125331  0  1.000882  0
H  H16  1  0.85058728  0.03455463  0.12828229  1  0  0.121884  0  0.988356  0  0  0.137963  0  1.064018  0  0  0.141068  0  1.060535  0  0  0.090573  0.135635  0  1.066615  0
H  H17  1  0.14941422  0.96544477  0.87171718  1  0  0.121875  0  0.988368  0  0  0.137972  0  1.064009  0  0  0.141078  0  1.060525  0  0  0.090579  0.135645  0  1.066606  0
H  H18  1  0.06622437  0.03238143  0.11368525  1  0  0.102357  0  0.996115  0  0  0.116207  0  1.080506  0  0  0.119628  0  1.075871  0  0  0.086828  0.113618  0  1.083826  0
H  H19  1  0.93377591  0.96761797  0.88631440  1  0  0.102381  0  0.996094  0  0  0.116226  0  1.080497  0  0  0.119648  0  1.07586  0  0  0.086822  0.113638  0  1.083817  0
H  H20  1  0.90454267  0.12985353  0.22376651  1  0  0.131892  0  0.949742  0  0  0.151957  0  1.006699  0  0  0.153583  0  1.006533  0  0  0.094803  0.150683  0  1.006939  0
H  H21  1  0.09545639  0.87014587  0.77623417  1  0  0.131891  0  0.949744  0  0  0.151954  0  1.006709  0  0  0.15358  0  1.006541  0  0  0.094786  0.15068  0  1.006949  0
C  C22  1  0.18843523  0.49389128  0.23260672  1  0  -0.369561  0  3.716133  0  0  -0.454184  0  3.955044  0  0  -0.457412  0  3.961383  0  0  -0.24476  -0.4516  0  3.950494  0
C  C23  1  0.81156505  0.50610812  0.76739293  1  0  -0.369595  0  3.716141  0  0  -0.454225  0  3.955055  0  0  -0.457451  0  3.961396  0  0  -0.24476  -0.45164  0  3.950506  0
C  C24  1  0.11286159  0.62968016  0.29172215  1  0  0.231839  0  3.664036  0  0  0.227386  0  3.92455  0  0  0.237203  0  3.941748  0  0  0.116926  0.221044  0  3.912832  0
C  C25  1  0.88713991  0.37031924  0.70827732  1  0  0.23184  0  3.664072  0  0  0.22738  0  3.924589  0  0  0.237197  0  3.941787  0  0  0.116934  0.221038  0  3.912872  0
C  C26  1  0.09100120  0.63104116  0.41330414  1  0  -0.164593  0  3.735193  0  0  -0.190546  0  4.00147  0  0  -0.198238  0  4.021143  0  0  -0.091926  -0.185734  0  3.988258  0
C  C27  1  0.90900030  0.36895824  0.58669533  1  0  -0.164597  0  3.735204  0  0  -0.190543  0  4.001479  0  0  -0.198235  0  4.02115  0  0  -0.091941  -0.185731  0  3.988265  0
C  C28  1  0.01754348  0.76352943  0.46204613  1  0  0.001088  0  3.750523  0  0  -0.031299  0  4.026179  0  0  -0.024029  0  4.040314  0  0  -0.080346  -0.035801  0  4.01664  0
C  C29  1  0.98245802  0.23646997  0.53795334  1  0  0.001089  0  3.750496  0  0  -0.031299  0  4.026152  0  0  -0.024029  0  4.04029  0  0  -0.080334  -0.0358  0  4.016612  0
C  C30  1  0.96980832  0.89596317  0.38673977  1  0  -0.156498  0  3.725784  0  0  -0.183385  0  3.988853  0  0  -0.190745  0  4.008348  0  0  -0.089276  -0.178988  0  3.976311  0
C  C31  1  0.03019074  0.10403623  0.61326091  1  0  -0.156542  0  3.725856  0  0  -0.183436  0  3.98893  0  0  -0.190798  0  4.008426  0  0  -0.089323  -0.17904  0  3.97639  0
C  C32  1  0.99372981  0.89605174  0.26500731  1  0  0.240866  0  3.653976  0  0  0.242049  0  3.903309  0  0  0.251459  0  3.921236  0  0  0.11887  0.235584  0  3.891432  0
C  C33  1  0.00627047  0.10394765  0.73499234  1  0  0.24087  0  3.654101  0  0  0.242075  0  3.903403  0  0  0.251486  0  3.92133  0  0  0.118887  0.23561  0  3.891527  0
C  C34  1  0.95058232  0.03147387  0.17855799  1  0  -0.364936  0  3.728188  0  0  -0.450007  0  3.96606  0  0  -0.453442  0  3.971859  0  0  -0.246691  -0.447027  0  3.961864  0
C  C35  1  0.04941795  0.96852552  0.82144252  1  0  -0.364933  0  3.728208  0  0  -0.45004  0  3.96608  0  0  -0.453481  0  3.971895  0  0  -0.246678  -0.447057  0  3.96188  0
C  C36  1  0.47496157  0.00569273  0.32819733  1  0  0.602473  0  3.68416  0  0  0.536737  0  4.045139  0  0  0.564492  0  4.018683  0  0  0.290181  0.516626  0  4.064547  0
C  C37  1  0.52503660  0.99430888  0.67180312  1  0  0.602466  0  3.684148  0  0  0.53669  0  4.045193  0  0  0.564439  0  4.018754  0  0  0.290163  0.516594  0  4.064576  0
C  C38  1  0.33806180  0.51067191  0.70025509  1  0  0.599752  0  3.68298  0  0  0.529305  0  4.05155  0  0  0.557231  0  4.025038  0  0  0.291798  0.509137  0  4.070973  0
C  C39  1  0.66193803  0.48932859  0.29974530  1  0  0.599806  0  3.682949  0  0  0.529378  0  4.051486  0  0  0.557297  0  4.024983  0  0  0.291825  0.50921  0  4.070905  0
S  S40  1  0.43859228  0.00833001  0.17425545  1  0  1.142588  0  5.757338  0  0  1.041535  0  6.275119  0  0  1.084783  0  6.259355  0  0  0.493934  1.011687  0  6.284989  0
S  S41  1  0.56140755  0.99167049  0.82574495  1  0  1.142523  0  5.757383  0  0  1.041474  0  6.275174  0  0  1.08472  0  6.259409  0  0  0.49392  1.011622  0  6.285039  0
S  S42  1  0.27980908  0.53784254  0.86001582  1  0  1.146589  0  5.755158  0  0  1.039932  0  6.281574  0  0  1.083986  0  6.264861  0  0  0.504431  1.009425  0  6.29195  0
S  S43  1  0.72019197  0.46215797  0.13998354  1  0  1.146509  0  5.755316  0  0  1.03988  0  6.281717  0  0  1.083935  0  6.265006  0  0  0.504413  1.009374  0  6.29209  0
N  N44  1  0.06209086  0.76281587  0.22121913  1  0  0.153636  0  3.579562  0  0  0.202253  0  3.820666  0  0  0.198476  0  3.841866  0  0  -0.120167  0.204137  0  3.806552  0
N  N45  1  0.93790941  0.23718353  0.77878052  1  0  0.153662  0  3.579595  0  0  0.202275  0  3.820694  0  0  0.198498  0  3.841894  0  0  -0.120157  0.204159  0  3.806582  0
O  O46  1  0.08598198  0.76283288  0.10357149  1  0  -0.582675  0  1.974417  0  0  -0.512036  0  2.263205  0  0  -0.539304  0  2.25824  0  0  -0.253082  -0.492708  0  2.266371  0
O  O47  1  0.91401830  0.23716651  0.89642815  1  0  -0.582693  0  1.974422  0  0  -0.512053  0  2.263212  0  0  -0.539319  0  2.258246  0  0  -0.253083  -0.492725  0  2.266378  0
O  O48  1  0.37873801  0.88288455  0.18541485  1  0  -0.613698  0  2.100719  0  0  -0.567975  0  2.378291  0  0  -0.589847  0  2.365822  0  0  -0.331154  -0.552379  0  2.38636  0
O  O49  1  0.62126182  0.11711595  0.81458554  1  0  -0.613699  0  2.100747  0  0  -0.56796  0  2.378299  0  0  -0.58983  0  2.365828  0  0  -0.331153  -0.552364  0  2.386367  0
O  O50  1  0.30991771  0.15473678  0.14893956  1  0  -0.604166  0  2.047848  0  0  -0.551918  0  2.314566  0  0  -0.574058  0  2.301873  0  0  -0.325546  -0.536216  0  2.322863  0
O  O51  1  0.69008257  0.84526261  0.85106008  1  0  -0.604149  0  2.04785  0  0  -0.551889  0  2.314545  0  0  -0.57404  0  2.301877  0  0  -0.325542  -0.536188  0  2.322842  0
O  O52  1  0.61164112  0.98879247  0.10399295  1  0  -0.673224  0  2.144496  0  0  -0.625427  0  2.452629  0  0  -0.646994  0  2.433224  0  0  -0.336712  -0.60965  0  2.465761  0
O  O53  1  0.38835905  0.01121025  0.89601048  1  0  -0.673195  0  2.144512  0  0  -0.625405  0  2.452657  0  0  -0.646967  0  2.433249  0  0  -0.336722  -0.609628  0  2.465791  0
O  O54  1  0.33233746  0.38673683  0.92412024  1  0  -0.650929  0  2.175389  0  0  -0.595609  0  2.488121  0  0  -0.618617  0  2.469373  0  0  -0.332106  -0.578907  0  2.500569  0
O  O55  1  0.66766115  0.61326367  0.07587947  1  0  -0.650845  0  2.175414  0  0  -0.595567  0  2.488179  0  0  -0.618568  0  2.469416  0  0  -0.332096  -0.578865  0  2.500628  0
O  O56  1  0.38643275  0.62328784  0.87122268  1  0  -0.612332  0  2.106625  0  0  -0.561415  0  2.393034  0  0  -0.583568  0  2.377575  0  0  -0.325058  -0.545618  0  2.403581  0
O  O57  1  0.61356875  0.37671156  0.12877766  1  0  -0.612349  0  2.106687  0  0  -0.561448  0  2.393095  0  0  -0.583603  0  2.377639  0  0  -0.325074  -0.54565  0  2.40364  0
O  O58  1  0.09241172  0.61418920  0.87172273  1  0  -0.611454  0  2.086821  0  0  -0.564293  0  2.367352  0  0  -0.585474  0  2.352138  0  0  -0.319952  -0.549128  0  2.377215  0
O  O59  1  0.90758767  0.38581241  0.12827669  1  0  -0.611427  0  2.086873  0  0  -0.564278  0  2.367417  0  0  -0.585459  0  2.352203  0  0  -0.319939  -0.549111  0  2.377279  0
F  F60  1  0.53561000  0.11505795  0.33391123  1  0  -0.221228  0  1.196272  0  0  -0.174615  0  1.352521  0  0  -0.184531  0  1.337451  0  0  -0.090012  -0.167501  0  1.363382  0
F  F61  1  0.46438817  0.88494366  0.66608922  1  0  -0.221236  0  1.196237  0  0  -0.174609  0  1.352499  0  0  -0.184522  0  1.337432  0  0  -0.090013  -0.167498  0  1.363356  0
F  F62  1  0.32312929  0.02597712  0.40301160  1  0  -0.225695  0  1.205519  0  0  -0.19139  0  1.380743  0  0  -0.201603  0  1.365325  0  0  -0.091676  -0.183855  0  1.391612  0
F  F63  1  0.67686732  0.97402227  0.59698943  1  0  -0.225657  0  1.20558  0  0  -0.191346  0  1.380819  0  0  -0.201555  0  1.365407  0  0  -0.091666  -0.183813  0  1.391683  0
F  F64  1  0.59124574  0.87419569  0.36586540  1  0  -0.218826  0  1.200076  0  0  -0.187948  0  1.370985  0  0  -0.197446  0  1.355428  0  0  -0.097232  -0.180998  0  1.382081  0
F  F65  1  0.40875198  0.12580702  0.63413580  1  0  -0.218827  0  1.200048  0  0  -0.187939  0  1.370971  0  0  -0.197436  0  1.355418  0  0  -0.097206  -0.180993  0  1.382063  0
F  F66  1  0.30366391  0.64422648  0.63175550  1  0  -0.218486  0  1.183163  0  0  -0.184253  0  1.352879  0  0  -0.194046  0  1.337054  0  0  -0.090753  -0.177186  0  1.364168  0
F  F67  1  0.69633715  0.35577402  0.36824472  1  0  -0.218506  0  1.183108  0  0  -0.184277  0  1.35282  0  0  -0.194071  0  1.336993  0  0  -0.090762  -0.177211  0  1.364106  0
F  F68  1  0.50808979  0.43196780  0.67333336  1  0  -0.211905  0  1.224721  0  0  -0.166379  0  1.389243  0  0  -0.176503  0  1.374101  0  0  -0.083443  -0.158984  0  1.399913  0
F  F69  1  0.49191005  0.56803271  0.32666703  1  0  -0.211919  0  1.224715  0  0  -0.166395  0  1.38923  0  0  -0.176518  0  1.37409  0  0  -0.083452  -0.159  0  1.399899  0
F  F70  1  0.24229144  0.43787800  0.67259727  1  0  -0.230658  0  1.210961  0  0  -0.183114  0  1.375191  0  0  -0.193685  0  1.360286  0  0  -0.088263  -0.175465  0  1.38586  0
F  F71  1  0.75770884  0.56212140  0.32740237  1  0  -0.230656  0  1.210989  0  0  -0.183117  0  1.375218  0  0  -0.193687  0  1.360314  0  0  -0.088256  -0.175468  0  1.385885  0
