# generated using pymatgen
data_AgH5C5(NO2)2
_symmetry_space_group_name_H-M   'P 1'
_cell_length_a   3.67694168
_cell_length_b   9.38673758
_cell_length_c   21.86122327
_cell_angle_alpha   102.78320417
_cell_angle_beta   90.06253974
_cell_angle_gamma   101.33768839
_symmetry_Int_Tables_number   1
_chemical_formula_structural   AgH5C5(NO2)2
_chemical_formula_sum   'Ag4 H20 C20 N8 O16'
_cell_volume   720.68318267
_cell_formula_units_Z   4
loop_
 _symmetry_equiv_pos_site_id
 _symmetry_equiv_pos_as_xyz
  1  'x, y, z'
loop_
 _atom_site_type_symbol
 _atom_site_label
 _atom_site_symmetry_multiplicity
 _atom_site_fract_x
 _atom_site_fract_y
 _atom_site_fract_z
 _atom_site_occupancy
 _atom_site_hle17_bader_spin_density
 _atom_site_hle17_ddec_charge
 _atom_site_hle17_ddec_spin_density
 _atom_site_hle17_ddec_sum_bond_order
 _atom_site_hle17_magmom
 _atom_site_hse06_10hf_bader_spin_density
 _atom_site_hse06_10hf_ddec_charge
 _atom_site_hse06_10hf_ddec_spin_density
 _atom_site_hse06_10hf_ddec_sum_bond_order
 _atom_site_hse06_10hf_magmom
 _atom_site_hse06_bader_spin_density
 _atom_site_hse06_ddec_charge
 _atom_site_hse06_ddec_spin_density
 _atom_site_hse06_ddec_sum_bond_order
 _atom_site_hse06_magmom
 _atom_site_pbe_bader_spin_density
 _atom_site_pbe_cm5_charge
 _atom_site_pbe_ddec_charge
 _atom_site_pbe_ddec_spin_density
 _atom_site_pbe_ddec_sum_bond_order
 _atom_site_pbe_magmom
Ag  Ag0  1  0.89055698  0.11834122  0.55135695  1  0  0.636681  0  1.288286  0  0  0.515118  0  1.723148  0  0  0.551161  0  1.664431  0  0  0.422501  0.489553  0  1.763859  0
Ag  Ag1  1  0.77100024  0.88136713  0.94880671  1  0  0.637047  0  1.289432  0  0  0.515955  0  1.724559  0  0  0.551718  0  1.665873  0  0  0.422696  0.489875  0  1.765032  0
Ag  Ag2  1  0.10945974  0.88166491  0.44864483  1  0  0.636559  0  1.288286  0  0  0.515002  0  1.72316  0  0  0.551044  0  1.664442  0  0  0.422445  0.489434  0  1.763869  0
Ag  Ag3  1  0.22902192  0.11863901  0.05119553  1  0  0.637046  0  1.289365  0  0  0.515957  0  1.724445  0  0  0.551744  0  1.665725  0  0  0.422732  0.489876  0  1.764921  0
H  H4  1  0.95531680  0.64714299  0.51974790  1  0  0.122295  0  0.944177  0  0  0.134948  0  1.000038  0  0  0.138561  0  0.999097  0  0  0.106105  0.132243  0  1.001195  0
H  H5  1  0.30292879  0.35121910  0.98000393  1  0  0.121784  0  0.945168  0  0  0.13442  0  1.001409  0  0  0.138031  0  1.000417  0  0  0.106167  0.131933  0  1.00216  0
H  H6  1  0.04470823  0.35287430  0.48025312  1  0  0.122226  0  0.944188  0  0  0.134977  0  0.999923  0  0  0.138591  0  0.998975  0  0  0.106146  0.132275  0  1.001082  0
H  H7  1  0.69703268  0.64876361  0.01999378  1  0  0.121725  0  0.945052  0  0  0.134387  0  1.001286  0  0  0.137982  0  1.000311  0  0  0.106148  0.131901  0  1.002033  0
H  H8  1  0.77645937  0.49776920  0.60211896  1  0  0.096893  0  0.968314  0  0  0.102536  0  1.037341  0  0  0.10643  0  1.032725  0  0  0.119744  0.09948  0  1.040907  0
H  H9  1  0.27573511  0.50207443  0.89809911  1  0  0.097532  0  0.968126  0  0  0.102576  0  1.03829  0  0  0.106543  0  1.033526  0  0  0.119989  0.099967  0  1.040895  0
H  H10  1  0.22355135  0.50223583  0.39787814  1  0  0.096874  0  0.968293  0  0  0.102536  0  1.037292  0  0  0.106449  0  1.032656  0  0  0.119749  0.099479  0  1.040859  0
H  H11  1  0.72424554  0.49791942  0.10190287  1  0  0.097546  0  0.968026  0  0  0.102583  0  1.038222  0  0  0.106531  0  1.033488  0  0  0.119972  0.099973  0  1.040826  0
H  H12  1  0.45458494  0.81613763  0.73889018  1  0  0.099656  0  0.948784  0  0  0.106833  0  1.014219  0  0  0.109648  0  1.010967  0  0  0.124796  0.104758  0  1.016465  0
H  H13  1  0.63740748  0.18564375  0.76106671  1  0  0.098747  0  0.948747  0  0  0.106552  0  1.013558  0  0  0.109429  0  1.010225  0  0  0.124667  0.104355  0  1.016129  0
H  H14  1  0.54541580  0.18385288  0.26111240  1  0  0.099687  0  0.948695  0  0  0.106863  0  1.014127  0  0  0.10968  0  1.010875  0  0  0.12482  0.104785  0  1.016374  0
H  H15  1  0.36259019  0.81436239  0.23893233  1  0  0.098749  0  0.948811  0  0  0.106578  0  1.01358  0  0  0.109457  0  1.010255  0  0  0.124701  0.10438  0  1.016149  0
H  H16  1  0.66041044  0.98077106  0.66292083  1  0  0.133067  0  0.964247  0  0  0.14197  0  1.026199  0  0  0.145605  0  1.024976  0  0  0.10757  0.13928  0  1.027611  0
H  H17  1  0.67397635  0.01927530  0.83643954  1  0  0.133375  0  0.962943  0  0  0.141667  0  1.025738  0  0  0.145339  0  1.024478  0  0  0.107387  0.139223  0  1.026411  0
H  H18  1  0.33960510  0.01922725  0.33708752  1  0  0.133127  0  0.964146  0  0  0.142023  0  1.026143  0  0  0.145655  0  1.024924  0  0  0.107587  0.13933  0  1.027563  0
H  H19  1  0.32601525  0.98072415  0.16355611  1  0  0.133354  0  0.962848  0  0  0.141604  0  1.025687  0  0  0.145275  0  1.024427  0  0  0.107351  0.139157  0  1.026369  0
H  H20  1  0.03289701  0.59542707  0.70522929  1  0  0.305701  0  0.896299  0  0  0.277541  0  0.972477  0  0  0.286672  0  0.964532  0  0  0.317343  0.2711  0  0.978145  0
H  H21  1  0.43620904  0.40610475  0.79505807  1  0  0.306835  0  0.894652  0  0  0.277467  0  0.971973  0  0  0.286544  0  0.964212  0  0  0.3174  0.2708  0  0.97792  0
H  H22  1  0.96709236  0.40456792  0.29476960  1  0  0.305724  0  0.896297  0  0  0.27752  0  0.972514  0  0  0.286656  0  0.964568  0  0  0.317366  0.271084  0  0.978178  0
H  H23  1  0.56377992  0.59390026  0.20494360  1  0  0.306798  0  0.89482  0  0  0.277414  0  0.972127  0  0  0.286476  0  0.964393  0  0  0.3174  0.270756  0  0.978063  0
C  C24  1  0.32485383  0.82777183  0.58450649  1  0  0.431308  0  3.872825  0  0  0.413876  0  4.122729  0  0  0.438013  0  4.134033  0  0  0.102738  0.397963  0  4.114181  0
C  C25  1  0.48994042  0.17095907  0.91495219  1  0  0.432715  0  3.871973  0  0  0.414739  0  4.122605  0  0  0.438847  0  4.133865  0  0  0.102888  0.398565  0  4.114495  0
C  C26  1  0.67514337  0.17223875  0.41549800  1  0  0.431699  0  3.87231  0  0  0.414222  0  4.12231  0  0  0.438362  0  4.13361  0  0  0.102901  0.398307  0  4.113768  0
C  C27  1  0.51003744  0.82902923  0.08504331  1  0  0.432478  0  3.872001  0  0  0.414477  0  4.122688  0  0  0.438593  0  4.133945  0  0  0.102857  0.398301  0  4.114574  0
C  C28  1  0.07282497  0.68712600  0.56774437  1  0  -0.267879  0  3.705294  0  0  -0.277796  0  3.951407  0  0  -0.293096  0  3.972853  0  0  -0.107036  -0.268045  0  3.937043  0
C  C29  1  0.38094642  0.31184782  0.93203059  1  0  -0.269036  0  3.705624  0  0  -0.278761  0  3.952028  0  0  -0.29407  0  3.973518  0  0  -0.108155  -0.269027  0  3.937966  0
C  C30  1  0.92719022  0.31288794  0.43225725  1  0  -0.268083  0  3.705496  0  0  -0.278058  0  3.951597  0  0  -0.293364  0  3.973063  0  0  -0.107174  -0.268304  0  3.937226  0
C  C31  1  0.61902704  0.68813711  0.06797054  1  0  -0.26868  0  3.705722  0  0  -0.278442  0  3.952147  0  0  -0.293737  0  3.973649  0  0  -0.108056  -0.268705  0  3.938076  0
C  C32  1  0.97245727  0.60436961  0.61173674  1  0  0.149233  0  3.68917  0  0  0.106458  0  3.946129  0  0  0.117648  0  3.962861  0  0  0.044647  0.099574  0  3.934706  0
C  C33  1  0.36500928  0.39554461  0.88832948  1  0  0.148671  0  3.687481  0  0  0.106206  0  3.944755  0  0  0.117362  0  3.961349  0  0  0.044191  0.098874  0  3.933096  0
C  C34  1  0.02755017  0.39563430  0.38826391  1  0  0.149279  0  3.689212  0  0  0.106482  0  3.946242  0  0  0.117657  0  3.962965  0  0  0.044667  0.099598  0  3.934822  0
C  C35  1  0.63496441  0.60445707  0.11166867  1  0  0.14864  0  3.687591  0  0  0.106141  0  3.944883  0  0  0.1173  0  3.961498  0  0  0.044195  0.098819  0  3.933216  0
C  C36  1  0.35448435  0.78762942  0.69004664  1  0  0.154205  0  3.675235  0  0  0.111906  0  3.932595  0  0  0.123634  0  3.948079  0  0  0.049117  0.104361  0  3.921894  0
C  C37  1  0.56430560  0.21334573  0.80982491  1  0  0.155597  0  3.670857  0  0  0.112711  0  3.927753  0  0  0.124325  0  3.943295  0  0  0.048595  0.105156  0  3.917407  0
C  C38  1  0.64552406  0.21236555  0.30995636  1  0  0.154186  0  3.675209  0  0  0.111902  0  3.932569  0  0  0.123628  0  3.948051  0  0  0.04916  0.104356  0  3.92187  0
C  C39  1  0.43568015  0.78666376  0.19017171  1  0  0.155492  0  3.671  0  0  0.112589  0  3.927799  0  0  0.12418  0  3.943371  0  0  0.048383  0.105044  0  3.91745  0
C  C40  1  0.46380809  0.87524087  0.64824961  1  0  -0.257518  0  3.690335  0  0  -0.271448  0  3.942288  0  0  -0.286399  0  3.963649  0  0  -0.1054  -0.261916  0  3.928421  0
C  C41  1  0.58347395  0.12473541  0.85130272  1  0  -0.256609  0  3.688953  0  0  -0.270038  0  3.94132  0  0  -0.284961  0  3.962602  0  0  -0.104244  -0.260436  0  3.926809  0
C  C42  1  0.53620151  0.12476192  0.35175322  1  0  -0.257629  0  3.690189  0  0  -0.271513  0  3.94208  0  0  -0.286468  0  3.963444  0  0  -0.105427  -0.261979  0  3.928214  0
C  C43  1  0.41650886  0.87525734  0.14869412  1  0  -0.256528  0  3.689141  0  0  -0.269914  0  3.941511  0  0  -0.284841  0  3.96281  0  0  -0.104185  -0.260318  0  3.927  0
N  N44  1  0.11218145  0.65536397  0.67169769  1  0  -0.258674  0  3.506962  0  0  -0.193019  0  3.750573  0  0  -0.210795  0  3.764871  0  0  -0.372834  -0.181095  0  3.740648  0
N  N45  1  0.45469949  0.34550763  0.82838475  1  0  -0.260964  0  3.503774  0  0  -0.194006  0  3.748518  0  0  -0.211849  0  3.762947  0  0  -0.37297  -0.182185  0  3.738872  0
N  N46  1  0.88782425  0.34463102  0.32830120  1  0  -0.258695  0  3.506755  0  0  -0.193017  0  3.750457  0  0  -0.210797  0  3.764752  0  0  -0.372887  -0.181095  0  3.740535  0
N  N47  1  0.54528654  0.65448065  0.17161669  1  0  -0.261102  0  3.503639  0  0  -0.194046  0  3.748255  0  0  -0.211842  0  3.762602  0  0  -0.372921  -0.182231  0  3.738592  0
N  N48  1  0.32596657  0.29975133  0.66506078  1  0  0.700222  0  4.113754  0  0  0.73583  0  4.397732  0  0  0.765814  0  4.403813  0  0  0.09483  0.715474  0  4.392895  0
N  N49  1  0.02747431  0.70156107  0.83522752  1  0  0.693394  0  4.116319  0  0  0.732091  0  4.397093  0  0  0.761973  0  4.403217  0  0  0.0939  0.711923  0  4.39224  0
N  N50  1  0.67406912  0.70024925  0.33493727  1  0  0.699521  0  4.114444  0  0  0.73536  0  4.398112  0  0  0.765341  0  4.404204  0  0  0.094711  0.715005  0  4.393273  0
N  N51  1  0.97252057  0.29843949  0.16477236  1  0  0.693451  0  4.116091  0  0  0.731958  0  4.397069  0  0  0.761836  0  4.403196  0  0  0.093842  0.711799  0  4.39221  0
O  O52  1  0.42319265  0.90839619  0.54389557  1  0  -0.639289  0  2.22229  0  0  -0.547989  0  2.515139  0  0  -0.582463  0  2.501826  0  0  -0.339611  -0.52344  0  2.522828  0
O  O53  1  0.50332499  0.08885447  0.95512295  1  0  -0.638808  0  2.222034  0  0  -0.547377  0  2.515459  0  0  -0.581723  0  2.501982  0  0  -0.338902  -0.523108  0  2.523585  0
O  O54  1  0.57678942  0.09162219  0.45611196  1  0  -0.639462  0  2.222056  0  0  -0.548174  0  2.514999  0  0  -0.582634  0  2.501648  0  0  -0.339714  -0.523624  0  2.522686  0
O  O55  1  0.49663598  0.91113272  0.04487107  1  0  -0.638686  0  2.222055  0  0  -0.547242  0  2.515478  0  0  -0.581589  0  2.502003  0  0  -0.338819  -0.522984  0  2.523628  0
O  O56  1  0.34617381  0.29790063  0.60549758  1  0  -0.514494  0  1.878734  0  0  -0.485345  0  2.151566  0  0  -0.508259  0  2.137482  0  0  -0.217068  -0.468965  0  2.160576  0
O  O57  1  0.04835048  0.70222341  0.89469825  1  0  -0.512722  0  1.878619  0  0  -0.484625  0  2.150674  0  0  -0.507424  0  2.136547  0  0  -0.21646  -0.467786  0  2.158617  0
O  O58  1  0.65389235  0.70210106  0.39450150  1  0  -0.514184  0  1.878871  0  0  -0.485161  0  2.151688  0  0  -0.508075  0  2.137592  0  0  -0.217026  -0.468777  0  2.160694  0
O  O59  1  0.95162377  0.29777938  0.10530229  1  0  -0.512747  0  1.878383  0  0  -0.484533  0  2.150398  0  0  -0.507339  0  2.136294  0  0  -0.216429  -0.467698  0  2.15835  0
O  O60  1  0.10585338  0.19775578  0.68244388  1  0  -0.455947  0  1.781003  0  0  -0.447962  0  2.003979  0  0  -0.463279  0  1.997379  0  0  -0.17843  -0.437288  0  2.008617  0
O  O61  1  0.91034781  0.80407650  0.81812943  1  0  -0.452287  0  1.781783  0  0  -0.445391  0  2.004228  0  0  -0.46052  0  1.997428  0  0  -0.177237  -0.434813  0  2.008269  0
O  O62  1  0.89416535  0.80223812  0.31754850  1  0  -0.455755  0  1.781323  0  0  -0.447852  0  2.004205  0  0  -0.463153  0  1.997591  0  0  -0.178322  -0.43718  0  2.008841  0
O  O63  1  0.08965739  0.19592295  0.18186760  1  0  -0.452247  0  1.781894  0  0  -0.445314  0  2.004425  0  0  -0.460444  0  1.997631  0  0  -0.177168  -0.434714  0  2.008423  0
O  O64  1  0.53137646  0.40472135  0.70329836  1  0  -0.435649  0  1.778968  0  0  -0.423597  0  1.993047  0  0  -0.43905  0  1.988213  0  0  -0.169  -0.413269  0  1.996369  0
O  O65  1  0.12817547  0.59725069  0.79676620  1  0  -0.435077  0  1.780261  0  0  -0.424052  0  1.993018  0  0  -0.439426  0  1.98818  0  0  -0.169956  -0.413091  0  1.995967  0
O  O66  1  0.46864116  0.59527028  0.29670341  1  0  -0.43527  0  1.7789  0  0  -0.423308  0  1.99288  0  0  -0.438764  0  1.988056  0  0  -0.168996  -0.412981  0  1.996197  0
O  O67  1  0.87182053  0.40275209  0.20323526  1  0  -0.435098  0  1.780163  0  0  -0.423994  0  1.992934  0  0  -0.439374  0  1.988116  0  0  -0.169975  -0.413061  0  1.995904  0
