# generated using pymatgen
data_AlH4C8S2NO5
_symmetry_space_group_name_H-M   'P 1'
_cell_length_a   6.72846552
_cell_length_b   16.83318759
_cell_length_c   18.01164972
_cell_angle_alpha   89.97744758
_cell_angle_beta   88.49256049
_cell_angle_gamma   91.28007259
_symmetry_Int_Tables_number   1
_chemical_formula_structural   AlH4C8S2NO5
_chemical_formula_sum   'Al4 H16 C32 S8 N4 O20'
_cell_volume   2038.81093290
_cell_formula_units_Z   4
loop_
 _symmetry_equiv_pos_site_id
 _symmetry_equiv_pos_as_xyz
  1  'x, y, z'
loop_
 _atom_site_type_symbol
 _atom_site_label
 _atom_site_symmetry_multiplicity
 _atom_site_fract_x
 _atom_site_fract_y
 _atom_site_fract_z
 _atom_site_occupancy
 _atom_site_pbe_bader_charge
 _atom_site_pbe_bader_spin_density
 _atom_site_pbe_cm5_charge
 _atom_site_pbe_ddec_charge
 _atom_site_pbe_ddec_spin_density
 _atom_site_pbe_ddec_sum_bond_order
 _atom_site_pbe_magmom
Al  Al0  1  0.00691596  0.99839600  0.49966129  1  2.504936  0  0.393436  1.646877  0  2.584155  0
Al  Al1  1  0.50752581  0.00108916  0.49565461  1  2.501255  0  0.395422  1.645265  0  2.567274  0
Al  Al2  1  0.98789885  0.49924115  0.00116742  1  2.502277  0  0.400959  1.653631  0  2.560741  0
Al  Al3  1  0.48792966  0.49972882  0.99817602  1  2.497848  0  0.400717  1.65363  0  2.571513  0
H  H4  1  0.75963201  0.10108476  0.51976977  1  0.643806  0  0.348204  0.421795  0  0.866381  0
H  H5  1  0.25740528  0.89514580  0.51046503  1  0.610572  0  0.35293  0.431626  0  0.851308  0
H  H6  1  0.73299217  0.39514553  0.99218449  1  0.611074  0  0.355498  0.43485  0  0.845419  0
H  H7  1  0.24256019  0.60374631  0.99026042  1  0.631245  0  0.35591  0.434904  0  0.845841  0
H  H8  1  0.54582152  0.35394929  0.79843095  1  0.125401  0  0.115478  0.138653  0  0.993959  0
H  H9  1  0.03583284  0.64452618  0.19884117  1  0.117493  0  0.116543  0.140248  0  0.993133  0
H  H10  1  0.45229793  0.64373265  0.80017224  1  0.151888  0  0.115903  0.139545  0  0.991496  0
H  H11  1  0.53681184  0.30660719  0.14983759  1  0.116616  0  0.115073  0.137753  0  0.9957  0
H  H12  1  0.79237524  0.16418772  0.72392598  1  0.444673  0  0.287975  0.279606  0  1.012113  0
H  H13  1  0.89037052  0.10259412  0.65586736  1  0.494468  0  0.310165  0.319123  0  0.956638  0
H  H14  1  0.29580703  0.83378284  0.27688950  1  0.457539  0  0.285996  0.276083  0  1.018994  0
H  H15  1  0.39199500  0.89513219  0.34513194  1  0.51356  0  0.312961  0.325725  0  0.946791  0
H  H16  1  0.20353727  0.83928376  0.72348174  1  0.458869  0  0.284118  0.273647  0  1.024239  0
H  H17  1  0.10976755  0.90283432  0.65784123  1  0.507322  0  0.310857  0.322419  0  0.951702  0
H  H18  1  0.78707532  0.21237224  0.32948477  1  0.466814  0  0.280695  0.269336  0  1.037054  0
H  H19  1  0.88174611  0.13902782  0.38513366  1  0.506988  0  0.309555  0.323206  0  0.955999  0
C  C20  1  0.26359606  0.09155956  0.39412119  1  1.530019  0  0.243576  0.651012  0  4.155599  0
C  C21  1  0.25983577  0.10143063  0.59457369  1  1.553484  0  0.243616  0.653494  0  4.145609  0
C  C22  1  0.74340863  0.90485289  0.60060645  1  1.499527  0  0.239905  0.646135  0  4.160822  0
C  C23  1  0.75822395  0.89876125  0.40226591  1  1.536209  0  0.245431  0.653497  0  4.149954  0
C  C24  1  0.22724952  0.40279582  0.09858763  1  1.565362  0  0.258073  0.646804  0  4.148772  0
C  C25  1  0.23932818  0.40275618  0.90006307  1  1.595148  0  0.258379  0.64791  0  4.147766  0
C  C26  1  0.75131530  0.59496010  0.89873746  1  1.574243  0  0.258218  0.648054  0  4.143935  0
C  C27  1  0.73494319  0.59548372  0.09892074  1  1.60949  0  0.259935  0.649663  0  4.141826  0
C  C28  1  0.09259765  0.17864623  0.69944135  1  0.548203  0  0.107806  0.287342  0  4.122925  0
C  C29  1  0.39965037  0.32594868  0.79311546  1  0.032925  0  -0.090219  -0.139414  0  3.977546  0
C  C30  1  0.25706420  0.15992639  0.65329388  1  -0.152446  0  -0.049604  -0.27256  0  3.953752  0
C  C31  1  0.23923925  0.34525321  0.83866006  1  -0.198465  0  -0.020535  -0.119073  0  3.974797  0
C  C32  1  0.34590599  0.26672069  0.74150602  1  -0.136528  0  -0.02362  0.005561  0  4.115394  0
C  C33  1  0.14647673  0.24087842  0.74937853  1  -0.159361  0  -0.029382  -0.12072  0  4.030318  0
C  C34  1  0.59185176  0.82010827  0.29977663  1  0.513564  0  0.10956  0.288656  0  4.121368  0
C  C35  1  0.89209759  0.67240879  0.20497288  1  0.045833  0  -0.089826  -0.139273  0  3.976258  0
C  C36  1  0.75451907  0.83924530  0.34467939  1  -0.118419  0  -0.049236  -0.274434  0  3.955596  0
C  C37  1  0.73419406  0.65293669  0.16031683  1  -0.194723  0  -0.019317  -0.118615  0  3.971784  0
C  C38  1  0.83954209  0.73170723  0.25676154  1  -0.132521  0  -0.023675  0.004396  0  4.117581  0
C  C39  1  0.64381517  0.75752791  0.24984804  1  -0.168531  0  -0.028779  -0.121211  0  4.030135  0
C  C40  1  0.90526577  0.82535755  0.70186244  1  0.546827  0  0.10813  0.285144  0  4.119465  0
C  C41  1  0.59796148  0.67266606  0.79409863  1  0.007348  0  -0.090505  -0.140337  0  3.974603  0
C  C42  1  0.74255154  0.84501731  0.65823202  1  -0.097247  0  -0.049935  -0.269958  0  3.948467  0
C  C43  1  0.75603131  0.65299550  0.83761288  1  -0.157939  0  -0.020646  -0.118123  0  3.971336  0
C  C44  1  0.65277125  0.73392959  0.74363078  1  -0.169802  0  -0.024062  0.004852  0  4.117455  0
C  C45  1  0.85054167  0.76084339  0.75027307  1  -0.140339  0  -0.029137  -0.11926  0  4.0285  0
C  C46  1  0.08706197  0.19271406  0.31624528  1  0.547287  0  0.109078  0.288318  0  4.11215  0
C  C47  1  0.39074162  0.29796500  0.17622488  1  0.050997  0  -0.09021  -0.138027  0  3.981472  0
C  C48  1  0.25470745  0.14876146  0.33464611  1  -0.12324  0  -0.047588  -0.271114  0  3.95211  0
C  C49  1  0.22868514  0.34193693  0.15698327  1  -0.135201  0  -0.021748  -0.122431  0  3.979064  0
C  C50  1  0.33889899  0.24319333  0.23305525  1  -0.142468  0  -0.023822  0.003553  0  4.125773  0
C  C51  1  0.13914455  0.24684808  0.25724289  1  -0.177679  0  -0.02851  -0.120953  0  4.020928  0
S  S52  1  0.47086570  0.21667850  0.67170372  1  0.207186  0  0.061143  0.08452  0  2.854473  0
S  S53  1  0.02300905  0.29147612  0.81909049  1  0.236828  0  0.081221  0.128872  0  2.766087  0
S  S54  1  0.96312498  0.78181231  0.32579767  1  0.205255  0  0.063731  0.088294  0  2.855901  0
S  S55  1  0.52165700  0.70662758  0.18099492  1  0.239264  0  0.082347  0.129915  0  2.761101  0
S  S56  1  0.53030786  0.78562965  0.67667217  1  0.181871  0  0.061365  0.084236  0  2.856304  0
S  S57  1  0.97152083  0.70874472  0.81726863  1  0.247503  0  0.08031  0.127016  0  2.763306  0
S  S58  1  0.46643828  0.17233097  0.28019070  1  0.205321  0  0.06728  0.0931  0  2.878207  0
S  S59  1  0.01321940  0.31707990  0.20826394  1  0.241818  0  0.082678  0.131663  0  2.75749  0
N  N60  1  0.91373211  0.13994165  0.69925445  1  -1.253748  0  -0.583213  -0.585536  0  3.372586  0
N  N61  1  0.41668504  0.85820070  0.30129161  1  -1.269109  0  -0.580052  -0.581447  0  3.369881  0
N  N62  1  0.08367339  0.86441334  0.70079724  1  -1.276234  0  -0.58252  -0.580453  0  3.366823  0
N  N63  1  0.90746797  0.18732703  0.35186457  1  -1.29922  0  -0.582587  -0.582285  0  3.370691  0
O  O64  1  0.09497629  0.06819359  0.42294063  1  -1.268131  0  -0.243962  -0.606974  0  2.366043  0
O  O65  1  0.42909441  0.08094242  0.56687295  1  -1.269738  0  -0.253297  -0.616414  0  2.319132  0
O  O66  1  0.57853042  0.92399083  0.57201740  1  -1.265634  0  -0.254969  -0.612097  0  2.312043  0
O  O67  1  0.92465322  0.91754559  0.43157820  1  -1.267002  0  -0.251132  -0.607798  0  2.316154  0
O  O68  1  0.91597725  0.93454895  0.58177042  1  -1.270037  0  -0.248147  -0.615628  0  2.371446  0
O  O69  1  0.59008519  0.92900415  0.42073513  1  -1.262771  0  -0.240392  -0.600075  0  2.366953  0
O  O70  1  0.43369093  0.06898335  0.41514498  1  -1.263802  0  -0.250543  -0.598637  0  2.317618  0
O  O71  1  0.08959914  0.07423097  0.57396459  1  -1.260263  0  -0.245065  -0.606226  0  2.350165  0
O  O72  1  0.76044710  0.04913512  0.49654195  1  -1.452328  0  -0.448837  -0.985031  0  2.185704  0
O  O73  1  0.25596377  0.95173141  0.50090647  1  -1.417915  0  -0.45003  -0.997217  0  2.203175  0
O  O74  1  0.05844613  0.42751430  0.07903207  1  -1.259391  0  -0.239921  -0.591596  0  2.331435  0
O  O75  1  0.40935750  0.42724695  0.92090829  1  -1.245917  0  -0.236018  -0.58327  0  2.32802  0
O  O76  1  0.57868377  0.57138925  0.92116671  1  -1.254084  0  -0.236145  -0.586028  0  2.333125  0
O  O77  1  0.90487103  0.57183940  0.07667670  1  -1.248655  0  -0.234464  -0.58076  0  2.330228  0
O  O78  1  0.91772900  0.57465916  0.92469788  1  -1.258583  0  -0.243305  -0.600466  0  2.321463  0
O  O79  1  0.56682214  0.57536105  0.07250120  1  -1.256089  0  -0.240052  -0.595921  0  2.328126  0
O  O80  1  0.39683320  0.42459654  0.07150507  1  -1.25829  0  -0.235989  -0.586376  0  2.33187  0
O  O81  1  0.06999516  0.42196203  0.92761130  1  -1.256077  0  -0.243191  -0.602305  0  2.33262  0
O  O82  1  0.73548477  0.45211960  0.99942504  1  -1.414438  0  -0.448172  -0.996547  0  2.197286  0
O  O83  1  0.24005748  0.54691857  0.99861055  1  -1.433788  0  -0.447817  -0.995339  0  2.197224  0
