# generated using pymatgen
data_CdH8C12(BrN3)2
_symmetry_space_group_name_H-M   'P 1'
_cell_length_a   8.60217343
_cell_length_b   11.57848672
_cell_length_c   8.60528195
_cell_angle_alpha   90.14243441
_cell_angle_beta   93.65349739
_cell_angle_gamma   101.62050680
_symmetry_Int_Tables_number   1
_chemical_formula_structural   CdH8C12(BrN3)2
_chemical_formula_sum   'Cd2 H16 C24 Br4 N12'
_cell_volume   837.71074339
_cell_formula_units_Z   2
loop_
 _symmetry_equiv_pos_site_id
 _symmetry_equiv_pos_as_xyz
  1  'x, y, z'
loop_
 _atom_site_type_symbol
 _atom_site_label
 _atom_site_symmetry_multiplicity
 _atom_site_fract_x
 _atom_site_fract_y
 _atom_site_fract_z
 _atom_site_occupancy
 _atom_site_hle17_bader_spin_density
 _atom_site_hle17_ddec_charge
 _atom_site_hle17_ddec_spin_density
 _atom_site_hle17_ddec_sum_bond_order
 _atom_site_hle17_magmom
 _atom_site_hse06_10hf_bader_spin_density
 _atom_site_hse06_10hf_ddec_charge
 _atom_site_hse06_10hf_ddec_spin_density
 _atom_site_hse06_10hf_ddec_sum_bond_order
 _atom_site_hse06_10hf_magmom
 _atom_site_hse06_bader_spin_density
 _atom_site_hse06_ddec_charge
 _atom_site_hse06_ddec_spin_density
 _atom_site_hse06_ddec_sum_bond_order
 _atom_site_hse06_magmom
 _atom_site_pbe_bader_spin_density
 _atom_site_pbe_cm5_charge
 _atom_site_pbe_ddec_charge
 _atom_site_pbe_ddec_spin_density
 _atom_site_pbe_ddec_sum_bond_order
 _atom_site_pbe_magmom
Cd  Cd0  1  0.18434141  0.77790538  0.78264412  1  0  0.843391  0  2.093188  0  0  0.649402  0  2.580629  0  0  0.697491  0  2.54048  0  0  0.612485  0.615841  0  2.607403  0
Cd  Cd1  1  0.81566485  0.22210636  0.21736521  1  0  0.843268  0  2.093363  0  0  0.649264  0  2.580798  0  0  0.697346  0  2.540657  0  0  0.612435  0.61571  0  2.607567  0
H  H2  1  0.52273082  0.87962104  0.97949747  1  0  0.077627  0  0.946367  0  0  0.080495  0  1.02128  0  0  0.082965  0  1.018821  0  0  0.110299  0.078616  0  1.02315  0
H  H3  1  0.47724225  0.12038703  0.02055999  1  0  0.077664  0  0.946184  0  0  0.080421  0  1.021348  0  0  0.082891  0  1.018896  0  0  0.110218  0.078545  0  1.023214  0
H  H4  1  0.73545029  0.79920526  0.12923846  1  0  0.107775  0  0.937902  0  0  0.115722  0  0.996593  0  0  0.118468  0  0.996442  0  0  0.104268  0.113786  0  0.996911  0
H  H5  1  0.26452119  0.20081212  0.87080418  1  0  0.107754  0  0.937832  0  0  0.115747  0  0.996435  0  0  0.118505  0  0.996253  0  0  0.104232  0.113797  0  0.996763  0
H  H6  1  0.66999273  0.58900452  0.22320224  1  0  0.098544  0  0.968632  0  0  0.104748  0  1.036186  0  0  0.108081  0  1.033728  0  0  0.095404  0.102327  0  1.037862  0
H  H7  1  0.33002679  0.41100481  0.77681093  1  0  0.09854  0  0.968353  0  0  0.10475  0  1.035929  0  0  0.10808  0  1.033476  0  0  0.095424  0.102324  0  1.037611  0
H  H8  1  0.38904471  0.47790343  0.18438870  1  0  0.115855  0  0.950398  0  0  0.12045  0  1.01855  0  0  0.123779  0  1.017654  0  0  0.111046  0.117936  0  1.019613  0
H  H9  1  0.61098581  0.52208393  0.81561061  1  0  0.11589  0  0.950204  0  0  0.120443  0  1.018431  0  0  0.123778  0  1.017526  0  0  0.111103  0.117907  0  1.019516  0
H  H10  1  0.89843212  0.62650453  0.56257663  1  0  0.081394  0  0.971801  0  0  0.083263  0  1.047825  0  0  0.086508  0  1.044894  0  0  0.096182  0.080693  0  1.050172  0
H  H11  1  0.10158588  0.37351155  0.43737378  1  0  0.081497  0  0.97168  0  0  0.083393  0  1.047697  0  0  0.086644  0  1.044764  0  0  0.096215  0.080823  0  1.050044  0
H  H12  1  0.61415601  0.62075235  0.47164119  1  0  0.103445  0  0.961285  0  0  0.112383  0  1.022989  0  0  0.115368  0  1.022431  0  0  0.101906  0.110246  0  1.023504  0
H  H13  1  0.38585615  0.37925851  0.52832685  1  0  0.103563  0  0.96104  0  0  0.112404  0  1.022873  0  0  0.11539  0  1.022319  0  0  0.101992  0.110287  0  1.023361  0
H  H14  1  0.48693269  0.78907018  0.54781975  1  0  0.100744  0  0.954566  0  0  0.107319  0  1.018372  0  0  0.110789  0  1.01536  0  0  0.097288  0.104666  0  1.020799  0
H  H15  1  0.51305615  0.21092027  0.45218271  1  0  0.100737  0  0.954563  0  0  0.107348  0  1.018316  0  0  0.110822  0  1.015299  0  0  0.097288  0.104695  0  1.020743  0
H  H16  1  0.63773714  0.94198549  0.73430659  1  0  0.11299  0  0.977941  0  0  0.114501  0  1.053157  0  0  0.119034  0  1.049524  0  0  0.099318  0.111144  0  1.055992  0
H  H17  1  0.36225205  0.05800362  0.26568535  1  0  0.112907  0  0.978085  0  0  0.114415  0  1.053266  0  0  0.118951  0  1.049629  0  0  0.099299  0.111058  0  1.056101  0
C  C18  1  0.49853579  0.79047824  0.02548497  1  0  0.147176  0  3.688477  0  0  0.116089  0  3.943866  0  0  0.122952  0  3.962223  0  0  0.055506  0.111569  0  3.93159  0
C  C19  1  0.50144287  0.20952305  0.97457047  1  0  0.147424  0  3.687554  0  0  0.116279  0  3.942898  0  0  0.123133  0  3.961258  0  0  0.055652  0.111755  0  3.930625  0
C  C20  1  0.61714912  0.74470286  0.10816749  1  0  -0.079867  0  3.681228  0  0  -0.095103  0  3.933117  0  0  -0.100932  0  3.954211  0  0  -0.072797  -0.091628  0  3.919311  0
C  C21  1  0.38284166  0.25531438  0.89184722  1  0  -0.080147  0  3.681065  0  0  -0.095331  0  3.93288  0  0  -0.101153  0  3.953974  0  0  -0.072773  -0.091842  0  3.919056  0
C  C22  1  0.58008510  0.63008160  0.16272900  1  0  -0.009208  0  3.705118  0  0  -0.025112  0  3.95402  0  0  -0.023163  0  3.972846  0  0  -0.065281  -0.026111  0  3.941359  0
C  C23  1  0.41993675  0.36992484  0.83729246  1  0  -0.009168  0  3.70515  0  0  -0.025106  0  3.954056  0  0  -0.02316  0  3.972885  0  0  -0.065477  -0.026101  0  3.941383  0
C  C24  1  0.42414072  0.56650162  0.13953743  1  0  -0.107428  0  3.671036  0  0  -0.12805  0  3.917853  0  0  -0.13337  0  3.938641  0  0  -0.067937  -0.124755  0  3.90424  0
C  C25  1  0.57587731  0.43348962  0.86048852  1  0  -0.107327  0  3.671283  0  0  -0.127939  0  3.918148  0  0  -0.133263  0  3.938929  0  0  -0.067859  -0.124629  0  3.904546  0
C  C26  1  0.31244362  0.61846189  0.05553011  1  0  0.148848  0  3.761146  0  0  0.145663  0  3.998451  0  0  0.149399  0  4.021159  0  0  0.120237  0.143355  0  3.983234  0
C  C27  1  0.68755877  0.38153092  0.94448932  1  0  0.149022  0  3.761927  0  0  0.145799  0  3.999207  0  0  0.149533  0  4.021919  0  0  0.120302  0.143497  0  3.983975  0
C  C28  1  0.14637574  0.55491749  0.02597374  1  0  0.250151  0  3.71828  0  0  0.233653  0  3.982767  0  0  0.241211  0  3.995624  0  0  0.253956  0.227932  0  3.975279  0
C  C29  1  0.85363443  0.44506607  0.97401815  1  0  0.250384  0  3.717886  0  0  0.233882  0  3.982351  0  0  0.241444  0  3.995209  0  0  0.254274  0.228162  0  3.974858  0
C  C30  1  0.83518207  0.69346618  0.60067275  1  0  0.139313  0  3.679465  0  0  0.107005  0  3.93242  0  0  0.11348  0  3.95006  0  0  0.049825  0.1029  0  3.920613  0
C  C31  1  0.16483149  0.30654253  0.39928369  1  0  0.13909  0  3.679805  0  0  0.106737  0  3.932783  0  0  0.113208  0  3.950415  0  0  0.049702  0.102629  0  3.920978  0
C  C32  1  0.67806153  0.69257051  0.54722710  1  0  -0.096946  0  3.686651  0  0  -0.109173  0  3.933303  0  0  -0.115685  0  3.954478  0  0  -0.075803  -0.105058  0  3.919266  0
C  C33  1  0.32193503  0.30743439  0.45272467  1  0  -0.097175  0  3.687022  0  0  -0.109311  0  3.93372  0  0  -0.115828  0  3.954898  0  0  -0.075996  -0.105212  0  3.919672  0
C  C34  1  0.60717914  0.78448178  0.59130225  1  0  0.015502  0  3.692333  0  0  -0.001094  0  3.937908  0  0  0.00238  0  3.955543  0  0  -0.063772  -0.003415  0  3.926479  0
C  C35  1  0.39282124  0.21552429  0.40866755  1  0  0.015434  0  3.692598  0  0  -0.001204  0  3.938109  0  0  0.002271  0  3.95574  0  0  -0.063714  -0.003527  0  3.926681  0
C  C36  1  0.69110445  0.86992341  0.69646344  1  0  -0.110421  0  3.681782  0  0  -0.132458  0  3.92962  0  0  -0.138644  0  3.950719  0  0  -0.071405  -0.128532  0  3.915667  0
C  C37  1  0.30888267  0.13006810  0.30353304  1  0  -0.110125  0  3.68172  0  0  -0.132082  0  3.929456  0  0  -0.138277  0  3.950574  0  0  -0.071356  -0.12816  0  3.915499  0
C  C38  1  0.84304300  0.85935339  0.75429013  1  0  0.14207  0  3.764732  0  0  0.139178  0  4.002746  0  0  0.142255  0  4.026947  0  0  0.116955  0.137509  0  3.986174  0
C  C39  1  0.15695398  0.14064603  0.24569053  1  0  0.141772  0  3.764938  0  0  0.138923  0  4.002949  0  0  0.141989  0  4.027168  0  0  0.116974  0.137264  0  3.986359  0
C  C40  1  0.92752441  0.93606863  0.88260858  1  0  0.250746  0  3.709662  0  0  0.23314  0  3.973492  0  0  0.240775  0  3.987073  0  0  0.253633  0.227481  0  3.965173  0
C  C41  1  0.07247349  0.06393960  0.11737153  1  0  0.250778  0  3.709382  0  0  0.233072  0  3.973367  0  0  0.24071  0  3.986949  0  0  0.2537  0.227411  0  3.965043  0
Br  Br42  1  0.32694220  0.98223309  0.68545404  1  0  -0.54478  0  0.880383  0  0  -0.488564  0  1.142052  0  0  -0.512948  0  1.125278  0  0  -0.309459  -0.468711  0  1.152822  0
Br  Br43  1  0.67303659  0.01776017  0.31451352  1  0  -0.544765  0  0.880362  0  0  -0.488545  0  1.142019  0  0  -0.512917  0  1.125235  0  0  -0.309461  -0.468695  0  1.152788  0
Br  Br44  1  0.22097559  0.59053222  0.62058207  1  0  -0.57188  0  0.845199  0  0  -0.519757  0  1.102152  0  0  -0.541514  0  1.083689  0  0  -0.323778  -0.502284  0  1.114232  0
Br  Br45  1  0.77899705  0.40941891  0.37949542  1  0  -0.571849  0  0.845313  0  0  -0.519698  0  1.102263  0  0  -0.541447  0  1.083796  0  0  -0.323774  -0.502234  0  1.114345  0
N  N46  1  0.35084210  0.72818106  0.99671925  1  0  -0.325881  0  3.228329  0  0  -0.256326  0  3.480788  0  0  -0.274756  0  3.500649  0  0  -0.31784  -0.243768  0  3.467058  0
N  N47  1  0.64914771  0.27182962  0.00330546  1  0  -0.326147  0  3.228615  0  0  -0.256493  0  3.480976  0  0  -0.274927  0  3.500853  0  0  -0.317947  -0.243937  0  3.467245  0
N  N48  1  0.04020505  0.61357866  0.95724083  1  0  -0.154142  0  3.072468  0  0  -0.115217  0  3.348905  0  0  -0.119781  0  3.357219  0  0  -0.153553  -0.11271  0  3.344546  0
N  N49  1  0.95980788  0.38640009  0.04276396  1  0  -0.154291  0  3.072117  0  0  -0.115278  0  3.348433  0  0  -0.119846  0  3.35675  0  0  -0.153614  -0.112768  0  3.344069  0
N  N50  1  0.89165655  0.55856149  0.93053953  1  0  -0.125557  0  2.931846  0  0  -0.111815  0  3.206058  0  0  -0.11124  0  3.214378  0  0  -0.139177  -0.112725  0  3.201636  0
N  N51  1  0.10835888  0.44143081  0.06945702  1  0  -0.125382  0  2.931849  0  0  -0.111628  0  3.205974  0  0  -0.111051  0  3.214296  0  0  -0.138964  -0.112538  0  3.201552  0
N  N52  1  0.91579282  0.77505310  0.70195260  1  0  -0.327662  0  3.267274  0  0  -0.25736  0  3.523971  0  0  -0.276432  0  3.544808  0  0  -0.322322  -0.244366  0  3.509369  0
N  N53  1  0.08421568  0.22496052  0.29800932  1  0  -0.327181  0  3.267168  0  0  -0.256959  0  3.523997  0  0  -0.276024  0  3.544832  0  0  -0.322197  -0.243974  0  3.509402  0
N  N54  1  0.06232129  0.90964529  0.95050273  1  0  -0.158804  0  3.109105  0  0  -0.114549  0  3.386938  0  0  -0.119175  0  3.394712  0  0  -0.155888  -0.112122  0  3.38293  0
N  N55  1  0.93767714  0.09036401  0.04947285  1  0  -0.158929  0  3.109  0  0  -0.114643  0  3.386865  0  0  -0.119267  0  3.394638  0  0  -0.155982  -0.112214  0  3.382856  0
N  N56  1  0.13649799  0.97391775  0.06906103  1  0  -0.123106  0  2.918594  0  0  -0.108531  0  3.185752  0  0  -0.107397  0  3.192112  0  0  -0.139502  -0.109907  0  3.182624  0
N  N57  1  0.86350871  0.02608732  0.93091650  1  0  -0.123131  0  2.918805  0  0  -0.108564  0  3.185872  0  0  -0.107432  0  3.192232  0  0  -0.139487  -0.109941  0  3.182745  0
