# generated using pymatgen
data_Al2H18C26O11
_symmetry_space_group_name_H-M   'P 1'
_cell_length_a   7.24992387
_cell_length_b   11.09253145
_cell_length_c   15.13109005
_cell_angle_alpha   82.97400661
_cell_angle_beta   76.16525254
_cell_angle_gamma   71.24398263
_symmetry_Int_Tables_number   1
_chemical_formula_structural   Al2H18C26O11
_chemical_formula_sum   'Al2 H18 C26 O11'
_cell_volume   1117.43024783
_cell_formula_units_Z   1
loop_
 _symmetry_equiv_pos_site_id
 _symmetry_equiv_pos_as_xyz
  1  'x, y, z'
loop_
 _atom_site_type_symbol
 _atom_site_label
 _atom_site_symmetry_multiplicity
 _atom_site_fract_x
 _atom_site_fract_y
 _atom_site_fract_z
 _atom_site_occupancy
 _atom_site_pbe_bader_charge
 _atom_site_pbe_bader_spin_density
 _atom_site_pbe_cm5_charge
 _atom_site_pbe_ddec_charge
 _atom_site_pbe_ddec_spin_density
 _atom_site_pbe_ddec_sum_bond_order
 _atom_site_pbe_magmom
Al  Al0  1  0.50102391  0.49907026  0.50068746  1  2.511465  0  0.42901  1.646175  0  2.506024  0
Al  Al1  1  0.00130915  0.49719975  0.50078109  1  2.51192  0  0.423103  1.640988  0  2.514894  0
H  H2  1  0.25480146  0.59532842  0.39801480  1  0.598269  0  0.326063  0.400095  0  0.897513  0
H  H3  1  0.77603493  0.36638537  0.58309660  1  0.614178  0  0.331623  0.408143  0  0.883571  0
H  H4  1  0.14702866  0.11460173  0.49608527  1  0.102697  0  0.105704  0.115202  0  1.007589  0
H  H5  1  0.73808813  0.12250837  0.49480460  1  0.116517  0  0.11337  0.135691  0  0.991339  0
H  H6  1  0.26817122  0.87661725  0.50424404  1  0.10834  0  0.108704  0.11829  0  1.01406  0
H  H7  1  0.80152098  0.56052724  0.76884777  1  0.105081  0  0.109032  0.121753  0  0.998172  0
H  H8  1  0.42666319  0.44747210  0.77261670  1  0.101249  0  0.106838  0.117368  0  1.003043  0
H  H9  1  0.14470966  0.55415183  0.22800182  1  0.069099  0  0.104909  0.113692  0  1.00707  0
H  H10  1  0.63025447  0.43813413  0.23070202  1  0.118775  0  0.106942  0.118011  0  1.000447  0
H  H11  1  0.63317626  0.64542422  0.00091469  1  0.05439  0  0.099258  0.102428  0  0.96504  0
H  H12  1  0.55884293  0.57303847  0.92425013  1  0.044619  0  0.100609  0.106771  0  1.030686  0
H  H13  1  0.36166137  0.35414445  0.00912615  1  0.034046  0  0.100035  0.103396  0  0.963535  0
H  H14  1  0.51514230  0.42828608  0.92907551  1  0.039387  0  0.100352  0.106111  0  1.030819  0
H  H15  1  0.22957624  0.64597298  0.99206255  1  0.050717  0  0.100398  0.104381  0  0.963326  0
H  H16  1  0.37394719  0.57010720  0.07268924  1  0.037835  0  0.099251  0.103769  0  1.032042  0
H  H17  1  0.78017023  0.35409630  0.99863077  1  0.053342  0  0.100172  0.104034  0  0.96415  0
H  H18  1  0.55678471  0.42509714  0.07493823  1  0.040345  0  0.100257  0.106089  0  1.030834  0
H  H19  1  0.92136475  0.78553020  0.50665721  1  0.669931  0  0.313808  0.356601  0  0.966276  0
C  C20  1  0.83113985  0.49686972  0.34008386  1  1.559081  0  0.27185  0.659387  0  4.054309  0
C  C21  1  0.63606250  0.72434597  0.50757049  1  1.567234  0  0.267662  0.66161  0  4.055053  0
C  C22  1  0.16961776  0.50381705  0.66031883  1  1.552725  0  0.272433  0.657036  0  4.056311  0
C  C23  1  0.36474561  0.27474929  0.49381382  1  1.517731  0  0.272828  0.655872  0  4.051519  0
C  C24  1  0.56992104  0.86505357  0.50469861  1  -0.107247  0  -0.033429  -0.19812  0  3.972435  0
C  C25  1  0.43585810  0.13219877  0.49552813  1  -0.047397  0  -0.011751  -0.017605  0  3.998752  0
C  C26  1  0.70497786  0.93513082  0.50185132  1  0.569355  0  0.096775  0.319845  0  4.055718  0
C  C27  1  0.30182681  0.06338011  0.49784968  1  -0.090329  0  -0.098749  -0.134015  0  4.005308  0
C  C28  1  0.63511466  0.06861874  0.49713934  1  -0.018113  0  -0.096751  -0.218011  0  3.927339  0
C  C29  1  0.36952735  0.93152157  0.50242062  1  0.122589  0  -0.079728  -0.058859  0  3.992846  0
C  C30  1  0.67133394  0.55771997  0.96416430  1  -0.030182  0  -0.158814  -0.209217  0  3.956428  0
C  C31  1  0.36346397  0.44314433  0.96790362  1  -0.033223  0  -0.159208  -0.209173  0  3.954655  0
C  C32  1  0.27552618  0.55667203  0.03327459  1  -0.018508  0  -0.158632  -0.209285  0  3.956763  0
C  C33  1  0.69352052  0.44151433  0.03541143  1  -0.014689  0  -0.159805  -0.211207  0  3.956389  0
C  C34  1  0.91784122  0.53604434  0.80805713  1  -0.065696  0  -0.086612  -0.16229  0  3.95389  0
C  C35  1  0.87186061  0.53507149  0.90278411  1  0.002321  0  -0.00899  0.087134  0  4.013935  0
C  C36  1  0.27223775  0.47093576  0.81022459  1  -0.031438  0  -0.088164  -0.16259  0  3.95646  0
C  C37  1  0.22431706  0.46905550  0.90494161  1  -0.036148  0  -0.010266  0.084793  0  4.016006  0
C  C38  1  0.05153799  0.53020553  0.19032410  1  -0.00953  0  -0.08819  -0.162024  0  3.96248  0
C  C39  1  0.09742199  0.53195461  0.09562862  1  -0.017292  0  -0.009942  0.087071  0  4.013556  0
C  C40  1  0.76075413  0.46390905  0.19185344  1  0.011944  0  -0.088003  -0.161333  0  3.95515  0
C  C41  1  0.80886374  0.46522651  0.09712026  1  -0.122338  0  -0.008992  0.085747  0  4.014286  0
C  C42  1  0.11862521  0.50414086  0.76167151  1  -0.012769  0  -0.016726  -0.037959  0  4.008939  0
C  C43  1  0.02506879  0.50145919  0.95031545  1  0.008097  0  -0.010315  -0.024179  0  3.997654  0
C  C44  1  0.88242482  0.49656573  0.23867781  1  -0.039587  0  -0.018132  -0.040412  0  4.00952  0
C  C45  1  0.97592544  0.49965134  0.04986808  1  -0.077978  0  -0.009873  -0.021497  0  3.993453  0
O  O46  1  0.65439776  0.49529890  0.37873263  1  -1.26493  0  -0.237977  -0.605567  0  2.337792  0
O  O47  1  0.82247335  0.66879976  0.50942575  1  -1.263152  0  -0.236032  -0.606236  0  2.37937  0
O  O48  1  0.03138375  0.50362636  0.62141333  1  -1.264214  0  -0.236435  -0.598316  0  2.34124  0
O  O49  1  0.49499427  0.32959273  0.49401868  1  -1.26205  0  -0.236684  -0.605477  0  2.353266  0
O  O50  1  0.34744520  0.50249828  0.62156825  1  -1.269044  0  -0.236686  -0.59848  0  2.33874  0
O  O51  1  0.17975366  0.32796755  0.49373990  1  -1.261771  0  -0.235953  -0.604068  0  2.33901  0
O  O52  1  0.96789885  0.50024465  0.37901094  1  -1.260881  0  -0.239487  -0.605942  0  2.335739  0
O  O53  1  0.50874373  0.66824197  0.50678828  1  -1.256933  0  -0.228303  -0.577367  0  2.344116  0
O  O54  1  0.24009592  0.55971164  0.46025530  1  -1.41348  0  -0.461437  -0.969334  0  2.019855  0
O  O55  1  0.76072745  0.44016407  0.54075441  1  -1.427781  0  -0.459791  -0.97367  0  2.035458  0
O  O56  1  0.89967736  0.87956169  0.50325175  1  -1.176579  0  -0.351127  -0.445247  0  2.273492  0
