# generated using pymatgen
data_TlH12C9SNO2
_symmetry_space_group_name_H-M   'P 1'
_cell_length_a   7.78508381
_cell_length_b   7.78529925
_cell_length_c   21.06252609
_cell_angle_alpha   80.40200850
_cell_angle_beta   80.40344275
_cell_angle_gamma   63.55236461
_symmetry_Int_Tables_number   1
_chemical_formula_structural   TlH12C9SNO2
_chemical_formula_sum   'Tl4 H48 C36 S4 N4 O8'
_cell_volume   1120.78191493
_cell_formula_units_Z   4
loop_
 _symmetry_equiv_pos_site_id
 _symmetry_equiv_pos_as_xyz
  1  'x, y, z'
loop_
 _atom_site_type_symbol
 _atom_site_label
 _atom_site_symmetry_multiplicity
 _atom_site_fract_x
 _atom_site_fract_y
 _atom_site_fract_z
 _atom_site_occupancy
 _atom_site_hle17_bader_spin_density
 _atom_site_hle17_ddec_charge
 _atom_site_hle17_ddec_spin_density
 _atom_site_hle17_ddec_sum_bond_order
 _atom_site_hle17_magmom
 _atom_site_hse06_10hf_bader_spin_density
 _atom_site_hse06_10hf_ddec_charge
 _atom_site_hse06_10hf_ddec_spin_density
 _atom_site_hse06_10hf_ddec_sum_bond_order
 _atom_site_hse06_10hf_magmom
 _atom_site_hse06_bader_spin_density
 _atom_site_hse06_ddec_charge
 _atom_site_hse06_ddec_spin_density
 _atom_site_hse06_ddec_sum_bond_order
 _atom_site_hse06_magmom
 _atom_site_pbe_bader_spin_density
 _atom_site_pbe_cm5_charge
 _atom_site_pbe_ddec_charge
 _atom_site_pbe_ddec_spin_density
 _atom_site_pbe_ddec_sum_bond_order
 _atom_site_pbe_magmom
Tl  Tl0  1  0.13779215  0.33293203  0.31316645  1  0  0.953293  0  2.234834  0  0  0.837979  0  2.707958  0  0  0.872945  0  2.690745  0  0  0.433916  0.814148  0  2.719248  0
Tl  Tl1  1  0.66704944  0.86221993  0.18680985  1  0  0.953316  0  2.234902  0  0  0.838013  0  2.708067  0  0  0.872977  0  2.690843  0  0  0.43397  0.81419  0  2.719339  0
Tl  Tl2  1  0.86221362  0.66705994  0.68683127  1  0  0.95327  0  2.234786  0  0  0.837966  0  2.70794  0  0  0.872926  0  2.690735  0  0  0.433924  0.814146  0  2.719214  0
Tl  Tl3  1  0.33295243  0.13777487  0.81317844  1  0  0.953202  0  2.234944  0  0  0.837883  0  2.70813  0  0  0.872837  0  2.690925  0  0  0.433895  0.814038  0  2.719451  0
H  H4  1  0.10432652  0.27026270  0.01162965  1  0  0.106369  0  0.926655  0  0  0.121149  0  0.980204  0  0  0.124168  0  0.977755  0  0  0.113017  0.118925  0  0.982005  0
H  H5  1  0.72970031  0.89563032  0.48835903  1  0  0.106154  0  0.926835  0  0  0.121146  0  0.980134  0  0  0.124186  0  0.977661  0  0  0.113008  0.118874  0  0.981997  0
H  H6  1  0.89568698  0.72972355  0.98837411  1  0  0.106342  0  0.926595  0  0  0.121198  0  0.980051  0  0  0.124215  0  0.977602  0  0  0.113069  0.118959  0  0.981867  0
H  H7  1  0.27025513  0.10438464  0.51163565  1  0  0.106181  0  0.926487  0  0  0.121167  0  0.979822  0  0  0.124215  0  0.977339  0  0  0.113046  0.118894  0  0.981679  0
H  H8  1  0.79835979  0.34152247  0.08885039  1  0  0.110119  0  0.960854  0  0  0.115747  0  1.027052  0  0  0.119993  0  1.025026  0  0  0.103208  0.112717  0  1.028658  0
H  H9  1  0.65845964  0.20157799  0.41113320  1  0  0.110082  0  0.96066  0  0  0.115726  0  1.02687  0  0  0.119979  0  1.024836  0  0  0.103227  0.11269  0  1.028483  0
H  H10  1  0.20162891  0.65843048  0.91114847  1  0  0.110164  0  0.960931  0  0  0.115803  0  1.027111  0  0  0.120054  0  1.025078  0  0  0.103274  0.112769  0  1.02872  0
H  H11  1  0.34152059  0.79840671  0.58886373  1  0  0.110042  0  0.960702  0  0  0.115743  0  1.026858  0  0  0.119998  0  1.024823  0  0  0.103197  0.112704  0  1.028473  0
H  H12  1  0.81195142  0.36634883  0.20447192  1  0  0.07114  0  0.958742  0  0  0.081196  0  1.025128  0  0  0.084004  0  1.022083  0  0  0.105816  0.079037  0  1.027476  0
H  H13  1  0.63369517  0.18796876  0.29550977  1  0  0.071136  0  0.958667  0  0  0.081285  0  1.024957  0  0  0.084088  0  1.021925  0  0  0.10595  0.079173  0  1.027252  0
H  H14  1  0.18804044  0.63363015  0.79553128  1  0  0.071205  0  0.958861  0  0  0.081287  0  1.025193  0  0  0.084091  0  1.022155  0  0  0.105883  0.079124  0  1.027547  0
H  H15  1  0.36633278  0.81199295  0.70449035  1  0  0.071089  0  0.958884  0  0  0.081251  0  1.025156  0  0  0.084059  0  1.022114  0  0  0.105888  0.07911  0  1.027488  0
H  H16  1  0.73574438  0.27823165  0.97340670  1  0  0.090579  0  0.931286  0  0  0.108219  0  0.994603  0  0  0.108612  0  0.993683  0  0  0.101579  0.107877  0  0.995286  0
H  H17  1  0.72179223  0.26426504  0.52661476  1  0  0.090624  0  0.931441  0  0  0.108216  0  0.994787  0  0  0.108607  0  0.993872  0  0  0.10152  0.107878  0  0.995464  0
H  H18  1  0.26427555  0.72177922  0.02660698  1  0  0.090761  0  0.931312  0  0  0.108355  0  0.994644  0  0  0.108749  0  0.993724  0  0  0.101604  0.108015  0  0.995319  0
H  H19  1  0.27824005  0.73574443  0.47340155  1  0  0.090651  0  0.931222  0  0  0.108282  0  0.994565  0  0  0.108679  0  0.993643  0  0  0.101609  0.107939  0  0.995249  0
H  H20  1  0.58523211  0.40375428  0.90893241  1  0  0.092926  0  0.967934  0  0  0.106069  0  1.040668  0  0  0.107115  0  1.03993  0  0  0.094852  0.105216  0  1.041285  0
H  H21  1  0.59627185  0.41479643  0.59107099  1  0  0.09291  0  0.968007  0  0  0.106017  0  1.0408  0  0  0.107059  0  1.040062  0  0  0.094771  0.105164  0  1.041416  0
H  H22  1  0.41482003  0.59624217  0.09107256  1  0  0.093027  0  0.967872  0  0  0.106135  0  1.040666  0  0  0.107179  0  1.039924  0  0  0.094818  0.105282  0  1.041279  0
H  H23  1  0.40373512  0.58522015  0.40893507  1  0  0.093009  0  0.967918  0  0  0.106154  0  1.040674  0  0  0.107202  0  1.039941  0  0  0.094837  0.105299  0  1.041288  0
H  H24  1  0.66162381  0.14744084  0.92996565  1  0  0.090318  0  0.96214  0  0  0.107061  0  1.028366  0  0  0.106976  0  1.029209  0  0  0.100196  0.107039  0  1.027859  0
H  H25  1  0.85255128  0.33838251  0.57004028  1  0  0.090252  0  0.962154  0  0  0.107056  0  1.02828  0  0  0.10697  0  1.02912  0  0  0.100196  0.107022  0  1.027811  0
H  H26  1  0.33840900  0.85256427  0.07004474  1  0  0.090352  0  0.962135  0  0  0.107132  0  1.02831  0  0  0.107045  0  1.029152  0  0  0.100193  0.107097  0  1.027836  0
H  H27  1  0.14741786  0.66163108  0.42996265  1  0  0.090278  0  0.962057  0  0  0.107094  0  1.028214  0  0  0.10701  0  1.029058  0  0  0.100183  0.107064  0  1.027723  0
H  H28  1  0.07717127  0.69422923  0.33125499  1  0  0.137259  0  1.02012  0  0  0.153589  0  1.079088  0  0  0.155101  0  1.082367  0  0  0.07833  0.152457  0  1.076959  0
H  H29  1  0.30574763  0.92285040  0.16873764  1  0  0.137236  0  1.02009  0  0  0.153504  0  1.079156  0  0  0.155016  0  1.082438  0  0  0.078289  0.152379  0  1.077019  0
H  H30  1  0.92282877  0.30576711  0.66874945  1  0  0.137239  0  1.020126  0  0  0.153534  0  1.079133  0  0  0.155047  0  1.082413  0  0  0.078294  0.152404  0  1.077004  0
H  H31  1  0.69424991  0.07715170  0.83126423  1  0  0.137273  0  1.020138  0  0  0.15354  0  1.079191  0  0  0.155051  0  1.082473  0  0  0.078313  0.152412  0  1.07706  0
H  H32  1  0.15499989  0.65029308  0.24796590  1  0  0.150932  0  1.007946  0  0  0.171102  0  1.06135  0  0  0.173194  0  1.063463  0  0  0.083659  0.169597  0  1.05997  0
H  H33  1  0.34971318  0.84498128  0.25202810  1  0  0.151075  0  1.007713  0  0  0.171201  0  1.061154  0  0  0.173291  0  1.063266  0  0  0.083699  0.169696  0  1.059774  0
H  H34  1  0.84499913  0.34971768  0.75203533  1  0  0.150917  0  1.008015  0  0  0.171083  0  1.061418  0  0  0.173175  0  1.063529  0  0  0.083672  0.169579  0  1.060037  0
H  H35  1  0.65029485  0.15502375  0.74797672  1  0  0.151099  0  1.007689  0  0  0.171219  0  1.061136  0  0  0.173311  0  1.063245  0  0  0.083711  0.169717  0  1.059755  0
H  H36  1  0.32864750  0.55435680  0.30558817  1  0  0.139987  0  1.014723  0  0  0.15664  0  1.076  0  0  0.158513  0  1.078543  0  0  0.077714  0.155282  0  1.0743  0
H  H37  1  0.44562702  0.67136550  0.19441054  1  0  0.139938  0  1.014705  0  0  0.156589  0  1.075979  0  0  0.158461  0  1.078516  0  0  0.077717  0.155231  0  1.074279  0
H  H38  1  0.67134109  0.44565393  0.69441229  1  0  0.140053  0  1.014882  0  0  0.156675  0  1.07615  0  0  0.158548  0  1.078692  0  0  0.077781  0.155318  0  1.07445  0
H  H39  1  0.55436883  0.32864958  0.80559062  1  0  0.140043  0  1.014712  0  0  0.156696  0  1.075951  0  0  0.158565  0  1.078499  0  0  0.077756  0.155341  0  1.074251  0
H  H40  1  0.30421285  0.94871915  0.35302683  1  0  0.146298  0  1.005036  0  0  0.163827  0  1.061979  0  0  0.16524  0  1.065601  0  0  0.082316  0.162755  0  1.059621  0
H  H41  1  0.05129330  0.69581957  0.14696559  1  0  0.146287  0  1.005033  0  0  0.163829  0  1.061973  0  0  0.165249  0  1.065584  0  0  0.082383  0.162756  0  1.059617  0
H  H42  1  0.69581519  0.05127866  0.64697292  1  0  0.146238  0  1.005017  0  0  0.16378  0  1.061968  0  0  0.165193  0  1.065589  0  0  0.082343  0.162708  0  1.059608  0
H  H43  1  0.94870652  0.30419841  0.85303609  1  0  0.146271  0  1.005048  0  0  0.163798  0  1.062047  0  0  0.165208  0  1.065674  0  0  0.082364  0.162727  0  1.059686  0
H  H44  1  0.08426425  0.00741910  0.31971788  1  0  0.149999  0  0.993851  0  0  0.169058  0  1.047938  0  0  0.171227  0  1.049995  0  0  0.084106  0.167502  0  1.046579  0
H  H45  1  0.99257767  0.91576287  0.18027606  1  0  0.149909  0  0.993893  0  0  0.169002  0  1.047955  0  0  0.171174  0  1.050009  0  0  0.084055  0.167445  0  1.046595  0
H  H46  1  0.91576682  0.99256576  0.68028819  1  0  0.14992  0  0.993883  0  0  0.169041  0  1.047917  0  0  0.171211  0  1.04997  0  0  0.08409  0.167487  0  1.046559  0
H  H47  1  0.00742455  0.08424927  0.81971206  1  0  0.149998  0  0.993774  0  0  0.169144  0  1.047771  0  0  0.171314  0  1.049825  0  0  0.084096  0.16759  0  1.046413  0
H  H48  1  0.07425861  0.06862384  0.39936020  1  0  0.149521  0  0.98992  0  0  0.168585  0  1.043995  0  0  0.170999  0  1.045281  0  0  0.083942  0.166847  0  1.043178  0
H  H49  1  0.93137926  0.92575550  0.10062854  1  0  0.149409  0  0.990056  0  0  0.168567  0  1.044048  0  0  0.17098  0  1.045333  0  0  0.083945  0.166829  0  1.04323  0
H  H50  1  0.92574350  0.93137969  0.60063892  1  0  0.149463  0  0.989925  0  0  0.168564  0  1.04399  0  0  0.170978  0  1.045274  0  0  0.083938  0.166827  0  1.043168  0
H  H51  1  0.06860663  0.07428549  0.89936117  1  0  0.149404  0  0.989903  0  0  0.168514  0  1.043959  0  0  0.170926  0  1.045245  0  0  0.083897  0.166778  0  1.043135  0
C  C52  1  0.26305579  0.28468991  0.15212959  1  0  0.249324  0  3.827404  0  0  0.239327  0  4.086138  0  0  0.253838  0  4.10321  0  0  0.117712  0.22954  0  4.074373  0
C  C53  1  0.71531478  0.73687729  0.34785259  1  0  0.24914  0  3.827058  0  0  0.23926  0  4.085826  0  0  0.253778  0  4.102906  0  0  0.11774  0.229473  0  4.074055  0
C  C54  1  0.73693398  0.71531503  0.84786926  1  0  0.249189  0  3.827223  0  0  0.239111  0  4.086024  0  0  0.253619  0  4.103097  0  0  0.117636  0.229325  0  4.074253  0
C  C55  1  0.28470974  0.26311035  0.65213710  1  0  0.249098  0  3.827068  0  0  0.239299  0  4.085835  0  0  0.253823  0  4.102901  0  0  0.117643  0.229508  0  4.074068  0
C  C56  1  0.26747371  0.26175906  0.08608053  1  0  -0.169824  0  3.745992  0  0  -0.148479  0  3.987953  0  0  -0.160716  0  4.007904  0  0  -0.018353  -0.140717  0  3.974826  0
C  C57  1  0.73822543  0.73246585  0.41390267  1  0  -0.169311  0  3.746085  0  0  -0.14836  0  3.988565  0  0  -0.160598  0  4.008554  0  0  -0.018183  -0.140599  0  3.975417  0
C  C58  1  0.73253374  0.73821992  0.91391552  1  0  -0.169883  0  3.746529  0  0  -0.148478  0  3.988408  0  0  -0.160707  0  4.008359  0  0  -0.018375  -0.140712  0  3.975271  0
C  C59  1  0.26179803  0.26750016  0.58609366  1  0  -0.169156  0  3.746426  0  0  -0.148554  0  3.989103  0  0  -0.1608  0  4.009109  0  0  -0.018318  -0.140779  0  3.975963  0
C  C60  1  0.10007673  0.28639358  0.06240844  1  0  -0.012883  0  3.71874  0  0  -0.042936  0  3.968222  0  0  -0.036196  0  3.983261  0  0  -0.066566  -0.047023  0  3.957851  0
C  C61  1  0.71361770  0.89984691  0.43757348  1  0  -0.013126  0  3.718962  0  0  -0.043223  0  3.968504  0  0  -0.036498  0  3.983551  0  0  -0.066815  -0.047277  0  3.958141  0
C  C62  1  0.89988764  0.71360990  0.93759542  1  0  -0.012939  0  3.719014  0  0  -0.043108  0  3.968514  0  0  -0.036369  0  3.983556  0  0  -0.066707  -0.047179  0  3.958132  0
C  C63  1  0.28636365  0.10015948  0.56242771  1  0  -0.01296  0  3.719033  0  0  -0.042983  0  3.968655  0  0  -0.03626  0  3.983707  0  0  -0.066727  -0.04703  0  3.958273  0
C  C64  1  0.93140214  0.32549145  0.10463622  1  0  -0.145919  0  3.75968  0  0  -0.156141  0  4.015892  0  0  -0.163648  0  4.035466  0  0  -0.096349  -0.151426  0  4.00277  0
C  C65  1  0.67451443  0.06851765  0.39534023  1  0  -0.145403  0  3.758981  0  0  -0.1556  0  4.015227  0  0  -0.163118  0  4.034825  0  0  -0.096001  -0.150882  0  4.002097  0
C  C66  1  0.06857620  0.67449471  0.89536595  1  0  -0.145733  0  3.759413  0  0  -0.155963  0  4.015656  0  0  -0.163474  0  4.035231  0  0  -0.096288  -0.15124  0  4.002518  0
C  C67  1  0.32546977  0.93146995  0.60465769  1  0  -0.145515  0  3.759007  0  0  -0.155789  0  4.015253  0  0  -0.163307  0  4.034849  0  0  -0.096083  -0.151062  0  4.002105  0
C  C68  1  0.93883084  0.33871561  0.16913249  1  0  0.122105  0  3.763428  0  0  0.09342  0  4.015512  0  0  0.101831  0  4.03217  0  0  0.045417  0.087974  0  4.004252  0
C  C69  1  0.66131539  0.06107643  0.33084694  1  0  0.121731  0  3.763744  0  0  0.092925  0  4.016009  0  0  0.101336  0  4.032692  0  0  0.044908  0.087447  0  4.004733  0
C  C70  1  0.06117670  0.66126629  0.83086955  1  0  0.121996  0  3.763494  0  0  0.093304  0  4.015575  0  0  0.101715  0  4.032231  0  0  0.045436  0.087862  0  4.004311  0
C  C71  1  0.33867926  0.93888087  0.66915174  1  0  0.121964  0  3.763426  0  0  0.093157  0  4.015652  0  0  0.101567  0  4.032325  0  0  0.04525  0.087697  0  4.004378  0
C  C72  1  0.45279335  0.20131894  0.04312190  1  0  0.614529  0  3.800769  0  0  0.560257  0  4.098581  0  0  0.595079  0  4.088708  0  0  0.239731  0.536415  0  4.105173  0
C  C73  1  0.79865716  0.54717578  0.45686940  1  0  0.614376  0  3.800742  0  0  0.560209  0  4.098619  0  0  0.594989  0  4.088826  0  0  0.239689  0.536365  0  4.105187  0
C  C74  1  0.54721607  0.79868899  0.95688598  1  0  0.614775  0  3.800358  0  0  0.560514  0  4.097984  0  0  0.595333  0  4.088113  0  0  0.23985  0.536675  0  4.104584  0
C  C75  1  0.20133222  0.45284216  0.54312914  1  0  0.613912  0  3.800649  0  0  0.560178  0  4.098012  0  0  0.594964  0  4.088213  0  0  0.239662  0.536296  0  4.104634  0
C  C76  1  0.61989643  0.28584084  0.94814104  1  0  -0.064418  0  3.580848  0  0  -0.16578  0  3.848309  0  0  -0.157102  0  3.850228  0  0  -0.144238  -0.171484  0  3.84691  0
C  C77  1  0.71415939  0.38013117  0.55186299  1  0  -0.064499  0  3.581474  0  0  -0.165765  0  3.84887  0  0  -0.157096  0  3.850812  0  0  -0.144162  -0.171485  0  3.84746  0
C  C78  1  0.38012930  0.71416858  0.05186762  1  0  -0.064784  0  3.581069  0  0  -0.166182  0  3.848409  0  0  -0.157529  0  3.850385  0  0  -0.144298  -0.171875  0  3.847003  0
C  C79  1  0.28581969  0.61988970  0.44814551  1  0  -0.064711  0  3.581193  0  0  -0.166108  0  3.848633  0  0  -0.157432  0  3.850547  0  0  -0.144295  -0.171822  0  3.847215  0
C  C80  1  0.17983586  0.59207535  0.29808057  1  0  -0.625735  0  3.540992  0  0  -0.671887  0  3.78533  0  0  -0.686024  0  3.796157  0  0  -0.342592  -0.662226  0  3.778052  0
C  C81  1  0.40790627  0.82017497  0.20191026  1  0  -0.625663  0  3.540722  0  0  -0.671766  0  3.785185  0  0  -0.685905  0  3.796027  0  0  -0.34256  -0.662096  0  3.777889  0
C  C82  1  0.82015448  0.40792527  0.70192042  1  0  -0.625738  0  3.541158  0  0  -0.671831  0  3.785531  0  0  -0.685965  0  3.796357  0  0  -0.342611  -0.662167  0  3.778249  0
C  C83  1  0.59208948  0.17983435  0.79809364  1  0  -0.625857  0  3.54093  0  0  -0.671935  0  3.785429  0  0  -0.686068  0  3.796252  0  0  -0.342646  -0.662265  0  3.77813  0
C  C84  1  0.15288139  0.05174749  0.35091526  1  0  -0.62426  0  3.510938  0  0  -0.665467  0  3.751177  0  0  -0.679999  0  3.761625  0  0  -0.338539  -0.655521  0  3.744137  0
C  C85  1  0.94825517  0.84714432  0.14907521  1  0  -0.62409  0  3.511063  0  0  -0.665453  0  3.751305  0  0  -0.679989  0  3.761747  0  0  -0.338601  -0.655506  0  3.744264  0
C  C86  1  0.84714333  0.94824601  0.64908876  1  0  -0.62407  0  3.5109  0  0  -0.665409  0  3.751102  0  0  -0.679938  0  3.761544  0  0  -0.338552  -0.655459  0  3.744055  0
C  C87  1  0.05173680  0.15287645  0.85091111  1  0  -0.624091  0  3.510801  0  0  -0.665466  0  3.751002  0  0  -0.679995  0  3.76145  0  0  -0.338553  -0.655516  0  3.74395  0
S  S88  1  0.46112311  0.27270236  0.18338844  1  0  -0.51761  0  1.999176  0  0  -0.48093  0  2.332665  0  0  -0.500473  0  2.328559  0  0  -0.194043  -0.466752  0  2.334946  0
S  S89  1  0.72728759  0.53882330  0.31658835  1  0  -0.517482  0  1.99895  0  0  -0.480767  0  2.332342  0  0  -0.500333  0  2.328275  0  0  -0.193994  -0.466585  0  2.334614  0
S  S90  1  0.53887879  0.72729246  0.81660364  1  0  -0.517415  0  1.999087  0  0  -0.48075  0  2.332656  0  0  -0.500298  0  2.328566  0  0  -0.193966  -0.466563  0  2.334932  0
S  S91  1  0.27270425  0.46115849  0.68340091  1  0  -0.517413  0  1.999134  0  0  -0.480739  0  2.332586  0  0  -0.500298  0  2.328513  0  0  -0.193956  -0.466549  0  2.334854  0
N  N92  1  0.09753762  0.32079848  0.19211454  1  0  -0.384059  0  3.19957  0  0  -0.314894  0  3.455808  0  0  -0.333289  0  3.473299  0  0  -0.312192  -0.302372  0  3.443636  0
N  N93  1  0.67919822  0.90240461  0.30785791  1  0  -0.384106  0  3.199825  0  0  -0.314929  0  3.456039  0  0  -0.333284  0  3.473421  0  0  -0.312124  -0.302415  0  3.443897  0
N  N94  1  0.90246591  0.67921367  0.80787493  1  0  -0.38415  0  3.199209  0  0  -0.314941  0  3.455396  0  0  -0.333333  0  3.472882  0  0  -0.312301  -0.302436  0  3.443268  0
N  N95  1  0.32079503  0.09758011  0.69213820  1  0  -0.384244  0  3.19906  0  0  -0.315007  0  3.455149  0  0  -0.333385  0  3.472586  0  0  -0.312198  -0.302495  0  3.443018  0
O  O96  1  0.59557565  0.04785713  0.05203997  1  0  -0.547482  0  1.977248  0  0  -0.500937  0  2.205445  0  0  -0.523215  0  2.198457  0  0  -0.268292  -0.485515  0  2.209912  0
O  O97  1  0.95212518  0.40439601  0.44794816  1  0  -0.547442  0  1.977103  0  0  -0.500918  0  2.205306  0  0  -0.523183  0  2.19835  0  0  -0.268283  -0.485499  0  2.209766  0
O  O98  1  0.40439831  0.95213911  0.94795852  1  0  -0.547617  0  1.976997  0  0  -0.501123  0  2.20515  0  0  -0.523382  0  2.198127  0  0  -0.268365  -0.485692  0  2.209615  0
O  O99  1  0.04784123  0.59564781  0.55203880  1  0  -0.54739  0  1.976781  0  0  -0.500991  0  2.204817  0  0  -0.523262  0  2.197862  0  0  -0.268244  -0.485557  0  2.20929  0
O  O100  1  0.44425605  0.33334351  0.99213543  1  0  -0.282497  0  2.289175  0  0  -0.205763  0  2.531719  0  0  -0.228156  0  2.531454  0  0  -0.164359  -0.190298  0  2.531462  0
O  O101  1  0.66664912  0.55572567  0.50786265  1  0  -0.282427  0  2.289534  0  0  -0.205739  0  2.532078  0  0  -0.228113  0  2.531819  0  0  -0.164341  -0.190236  0  2.531788  0
O  O102  1  0.55576047  0.66666296  0.00786829  1  0  -0.282658  0  2.289469  0  0  -0.20572  0  2.531837  0  0  -0.228114  0  2.531574  0  0  -0.164325  -0.190273  0  2.531591  0
O  O103  1  0.33332132  0.44428792  0.49213972  1  0  -0.282135  0  2.290011  0  0  -0.205558  0  2.532445  0  0  -0.227934  0  2.532194  0  0  -0.164331  -0.190044  0  2.532163  0
