# generated using pymatgen
data_ZnPH4C5NO3F
_symmetry_space_group_name_H-M   'P 1'
_cell_length_a   8.24477717
_cell_length_b   9.81199049
_cell_length_c   17.80288532
_cell_angle_alpha   89.99998484
_cell_angle_beta   101.51788849
_cell_angle_gamma   90.00001350
_symmetry_Int_Tables_number   1
_chemical_formula_structural   ZnPH4C5NO3F
_chemical_formula_sum   'Zn8 P8 H32 C40 N8 O24 F8'
_cell_volume   1411.20963696
_cell_formula_units_Z   8
loop_
 _symmetry_equiv_pos_site_id
 _symmetry_equiv_pos_as_xyz
  1  'x, y, z'
loop_
 _atom_site_type_symbol
 _atom_site_label
 _atom_site_symmetry_multiplicity
 _atom_site_fract_x
 _atom_site_fract_y
 _atom_site_fract_z
 _atom_site_occupancy
 _atom_site_hle17_bader_spin_density
 _atom_site_hle17_ddec_charge
 _atom_site_hle17_ddec_spin_density
 _atom_site_hle17_ddec_sum_bond_order
 _atom_site_hle17_magmom
 _atom_site_hse06_10hf_bader_spin_density
 _atom_site_hse06_10hf_ddec_charge
 _atom_site_hse06_10hf_ddec_spin_density
 _atom_site_hse06_10hf_ddec_sum_bond_order
 _atom_site_hse06_10hf_magmom
 _atom_site_hse06_bader_spin_density
 _atom_site_hse06_ddec_charge
 _atom_site_hse06_ddec_spin_density
 _atom_site_hse06_ddec_sum_bond_order
 _atom_site_hse06_magmom
 _atom_site_pbe_bader_spin_density
 _atom_site_pbe_cm5_charge
 _atom_site_pbe_ddec_charge
 _atom_site_pbe_ddec_spin_density
 _atom_site_pbe_ddec_sum_bond_order
 _atom_site_pbe_magmom
Zn  Zn0  1  0.26071921  0.42443275  0.04600601  1  0  1.19311  0  1.7987  0  0  1.015057  0  2.286909  0  0  1.057424  0  2.227715  0  0  0.731985  0.984655  0  2.328398  0
Zn  Zn1  1  0.23928384  0.92443199  0.95399451  1  0  1.193146  0  1.798654  0  0  1.015147  0  2.286708  0  0  1.057458  0  2.227667  0  0  0.731998  0.984688  0  2.328354  0
Zn  Zn2  1  0.73928211  0.57556806  0.95399419  1  0  1.193131  0  1.798711  0  0  1.015116  0  2.286777  0  0  1.057426  0  2.227733  0  0  0.731982  0.984655  0  2.328407  0
Zn  Zn3  1  0.76072246  0.07556781  0.04600725  1  0  1.193139  0  1.798709  0  0  1.015084  0  2.28692  0  0  1.05745  0  2.227728  0  0  0.732003  0.98468  0  2.328418  0
Zn  Zn4  1  0.75413421  0.56591263  0.54421574  1  0  1.197305  0  1.793049  0  0  1.019051  0  2.280908  0  0  1.061302  0  2.221848  0  0  0.734027  0.988795  0  2.3224  0
Zn  Zn5  1  0.74586542  0.06591421  0.45578527  1  0  1.197299  0  1.792989  0  0  1.019062  0  2.280841  0  0  1.061312  0  2.221787  0  0  0.734026  0.988799  0  2.322331  0
Zn  Zn6  1  0.24586462  0.43408716  0.45578368  1  0  1.197282  0  1.793027  0  0  1.019025  0  2.280875  0  0  1.061277  0  2.221822  0  0  0.73401  0.988772  0  2.322392  0
Zn  Zn7  1  0.25413219  0.93408661  0.54421461  1  0  1.19729  0  1.792971  0  0  1.019027  0  2.280832  0  0  1.061283  0  2.221771  0  0  0.734016  0.988771  0  2.322332  0
P  P8  1  0.34107228  0.62013595  0.91851242  1  0  1.74696  0  4.941964  0  0  1.560084  0  5.476183  0  0  1.621942  0  5.414685  0  0  0.41818  1.516265  0  5.518671  0
P  P9  1  0.15892946  0.12013668  0.08148802  1  0  1.747179  0  4.941717  0  0  1.559758  0  5.476804  0  0  1.622206  0  5.41439  0  0  0.418326  1.516543  0  5.518354  0
P  P10  1  0.65892781  0.37986384  0.08148767  1  0  1.746989  0  4.941931  0  0  1.559527  0  5.477062  0  0  1.621974  0  5.414651  0  0  0.418202  1.516317  0  5.518602  0
P  P11  1  0.84107312  0.87986312  0.91851285  1  0  1.747047  0  4.941977  0  0  1.560184  0  5.476185  0  0  1.622042  0  5.414688  0  0  0.418171  1.516374  0  5.518656  0
P  P12  1  0.64784540  0.86552868  0.57893508  1  0  1.750489  0  4.934257  0  0  1.562235  0  5.470712  0  0  1.623682  0  5.409865  0  0  0.420043  1.518857  0  5.512631  0
P  P13  1  0.85215429  0.36552928  0.42106533  1  0  1.750457  0  4.934441  0  0  1.562179  0  5.470911  0  0  1.62363  0  5.410075  0  0  0.420018  1.5188  0  5.51285  0
P  P14  1  0.35215345  0.13447213  0.42106490  1  0  1.750584  0  4.934201  0  0  1.562331  0  5.470641  0  0  1.623783  0  5.409801  0  0  0.42006  1.518949  0  5.512587  0
P  P15  1  0.14784332  0.63447154  0.57893455  1  0  1.750644  0  4.934254  0  0  1.562361  0  5.470742  0  0  1.623802  0  5.40992  0  0  0.420084  1.518975  0  5.512678  0
H  H16  1  0.33142052  0.21307481  0.94546544  1  0  0.085491  0  0.966392  0  0  0.094132  0  1.031645  0  0  0.09659  0  1.028887  0  0  0.118692  0.092166  0  1.033988  0
H  H17  1  0.16857751  0.71307652  0.05453411  1  0  0.085513  0  0.966394  0  0  0.094135  0  1.031668  0  0  0.096594  0  1.028904  0  0  0.118688  0.092164  0  1.034009  0
H  H18  1  0.66857955  0.78692601  0.05453409  1  0  0.085472  0  0.966374  0  0  0.094106  0  1.031655  0  0  0.096562  0  1.028893  0  0  0.118685  0.092136  0  1.033994  0
H  H19  1  0.83142133  0.28692532  0.94546532  1  0  0.085503  0  0.966314  0  0  0.094127  0  1.031598  0  0  0.096586  0  1.028839  0  0  0.118682  0.092163  0  1.033938  0
H  H20  1  0.45008239  0.36255420  0.85909884  1  0  0.118148  0  0.981561  0  0  0.126857  0  1.043419  0  0  0.130008  0  1.042444  0  0  0.110089  0.124544  0  1.0444  0
H  H21  1  0.04991446  0.86255482  0.14090115  1  0  0.118136  0  0.981591  0  0  0.126846  0  1.043438  0  0  0.130009  0  1.042438  0  0  0.110085  0.124536  0  1.044415  0
H  H22  1  0.54991518  0.63744662  0.14089935  1  0  0.118151  0  0.981589  0  0  0.126866  0  1.043437  0  0  0.130021  0  1.042462  0  0  0.110091  0.124557  0  1.044418  0
H  H23  1  0.95008442  0.13744498  0.85909996  1  0  0.118138  0  0.981587  0  0  0.126864  0  1.043428  0  0  0.130016  0  1.042448  0  0  0.110096  0.12455  0  1.044412  0
H  H24  1  0.49010507  0.00490509  0.71986001  1  0  0.125635  0  0.959882  0  0  0.134518  0  1.020234  0  0  0.137801  0  1.018942  0  0  0.111269  0.131981  0  1.021561  0
H  H25  1  0.00989418  0.50490360  0.28014079  1  0  0.125671  0  0.959776  0  0  0.134492  0  1.020249  0  0  0.137806  0  1.018872  0  0  0.11129  0.131988  0  1.021486  0
H  H26  1  0.50989751  0.99509573  0.28014086  1  0  0.125667  0  0.959789  0  0  0.134505  0  1.020244  0  0  0.137821  0  1.018863  0  0  0.111277  0.131998  0  1.021479  0
H  H27  1  0.99010467  0.49509518  0.71985919  1  0  0.125631  0  0.959818  0  0  0.134526  0  1.020159  0  0  0.13781  0  1.018864  0  0  0.111281  0.131992  0  1.021475  0
H  H28  1  0.37891129  0.87047357  0.81479169  1  0  0.087673  0  0.934599  0  0  0.095235  0  0.997675  0  0  0.097824  0  0.994757  0  0  0.120831  0.093145  0  1.000077  0
H  H29  1  0.12108926  0.37047423  0.18520805  1  0  0.08769  0  0.934593  0  0  0.095057  0  0.997976  0  0  0.097843  0  0.994747  0  0  0.120835  0.093164  0  1.000067  0
H  H30  1  0.62109624  0.12952419  0.18520961  1  0  0.087661  0  0.934633  0  0  0.095036  0  0.998003  0  0  0.097821  0  0.994776  0  0  0.120826  0.093156  0  1.000078  0
H  H31  1  0.87891083  0.62952454  0.81479204  1  0  0.087659  0  0.934646  0  0  0.095259  0  0.997659  0  0  0.097848  0  0.99474  0  0  0.120839  0.09316  0  1.000065  0
H  H32  1  0.73271445  0.27102343  0.57131533  1  0  0.086816  0  0.965802  0  0  0.096235  0  1.029658  0  0  0.098641  0  1.027319  0  0  0.118174  0.094264  0  1.031716  0
H  H33  1  0.76728768  0.77102395  0.42868531  1  0  0.086809  0  0.965808  0  0  0.096226  0  1.029667  0  0  0.098633  0  1.027329  0  0  0.118176  0.094253  0  1.031724  0
H  H34  1  0.26728313  0.72897739  0.42868342  1  0  0.08681  0  0.965844  0  0  0.096249  0  1.029676  0  0  0.098655  0  1.027338  0  0  0.118196  0.094278  0  1.031735  0
H  H35  1  0.23271118  0.22897483  0.57131524  1  0  0.08678  0  0.96588  0  0  0.096221  0  1.029706  0  0  0.098628  0  1.027365  0  0  0.118177  0.094245  0  1.031775  0
H  H36  1  0.63568466  0.11950980  0.66324176  1  0  0.116855  0  0.967681  0  0  0.125552  0  1.029526  0  0  0.128613  0  1.028625  0  0  0.111495  0.123242  0  1.030504  0
H  H37  1  0.86431498  0.61950937  0.33675925  1  0  0.116878  0  0.967673  0  0  0.125578  0  1.029505  0  0  0.12864  0  1.028605  0  0  0.111512  0.123272  0  1.030489  0
H  H38  1  0.36431170  0.88049204  0.33675745  1  0  0.116816  0  0.967713  0  0  0.125532  0  1.029531  0  0  0.128593  0  1.028633  0  0  0.111508  0.123229  0  1.030505  0
H  H39  1  0.13568265  0.38049043  0.66324120  1  0  0.116835  0  0.967598  0  0  0.125537  0  1.029442  0  0  0.128598  0  1.02854  0  0  0.111467  0.123229  0  1.03042  0
H  H40  1  0.45990877  0.47940819  0.76419964  1  0  0.125808  0  0.944969  0  0  0.134706  0  1.004124  0  0  0.138151  0  1.002618  0  0  0.113979  0.132063  0  1.005553  0
H  H41  1  0.04009058  0.97940774  0.23580054  1  0  0.1258  0  0.944977  0  0  0.134666  0  1.004214  0  0  0.138142  0  1.002629  0  0  0.11398  0.13205  0  1.005563  0
H  H42  1  0.54009129  0.52059161  0.23579932  1  0  0.125822  0  0.944944  0  0  0.134681  0  1.004196  0  0  0.138158  0  1.002609  0  0  0.113978  0.132068  0  1.005548  0
H  H43  1  0.95990952  0.02059104  0.76420011  1  0  0.125822  0  0.944958  0  0  0.134716  0  1.004124  0  0  0.138161  0  1.002617  0  0  0.113985  0.132073  0  1.005552  0
H  H44  1  0.56137594  0.61504431  0.66695799  1  0  0.088065  0  0.938797  0  0  0.093625  0  1.004917  0  0  0.096185  0  1.001953  0  0  0.121384  0.091713  0  1.007114  0
H  H45  1  0.93862367  0.11504292  0.33304189  1  0  0.08808  0  0.938815  0  0  0.093616  0  1.004961  0  0  0.096184  0  1.001987  0  0  0.121378  0.091711  0  1.007149  0
H  H46  1  0.43862289  0.38495855  0.33304144  1  0  0.088077  0  0.938837  0  0  0.09363  0  1.004953  0  0  0.096198  0  1.001977  0  0  0.121384  0.091723  0  1.007141  0
H  H47  1  0.06137643  0.88495687  0.66695876  1  0  0.088071  0  0.938824  0  0  0.09361  0  1.004964  0  0  0.09617  0  1.002001  0  0  0.121373  0.091696  0  1.00716  0
C  C48  1  0.37039132  0.17152770  0.89526259  1  0  0.158077  0  3.672096  0  0  0.127227  0  3.920514  0  0  0.134787  0  3.938447  0  0  0.053968  0.122327  0  3.908582  0
C  C49  1  0.12960670  0.67152938  0.10473697  1  0  0.158022  0  3.672181  0  0  0.127163  0  3.920591  0  0  0.134722  0  3.938549  0  0  0.053948  0.122272  0  3.908672  0
C  C50  1  0.62960751  0.82847210  0.10473683  1  0  0.158133  0  3.672054  0  0  0.127243  0  3.920499  0  0  0.134804  0  3.938456  0  0  0.053978  0.122351  0  3.908584  0
C  C51  1  0.87039461  0.32847042  0.89526267  1  0  0.158062  0  3.672075  0  0  0.127195  0  3.920539  0  0  0.134753  0  3.938474  0  0  0.053944  0.122292  0  3.908609  0
C  C52  1  0.43511287  0.25451496  0.84557826  1  0  -0.13737  0  3.65559  0  0  -0.15657  0  3.900496  0  0  -0.164568  0  3.922121  0  0  -0.075433  -0.151298  0  3.886003  0
C  C53  1  0.06488644  0.75451558  0.15442252  1  0  -0.137339  0  3.655631  0  0  -0.156524  0  3.900451  0  0  -0.164519  0  3.922112  0  0  -0.075392  -0.151249  0  3.88598  0
C  C54  1  0.56488845  0.74548484  0.15442194  1  0  -0.137381  0  3.655602  0  0  -0.156577  0  3.900477  0  0  -0.164574  0  3.922131  0  0  -0.075425  -0.151304  0  3.886016  0
C  C55  1  0.93511117  0.24548320  0.84557736  1  0  -0.137361  0  3.655611  0  0  -0.156573  0  3.900511  0  0  -0.164571  0  3.922139  0  0  -0.075416  -0.151299  0  3.886022  0
C  C56  1  0.47925552  0.19802083  0.78012158  1  0  0.088812  0  3.751872  0  0  0.100961  0  3.981988  0  0  0.104783  0  4.004026  0  0  0.015584  0.09851  0  3.966763  0
C  C57  1  0.02074253  0.69801938  0.21987854  1  0  0.088789  0  3.751889  0  0  0.10095  0  3.981921  0  0  0.104775  0  4.003976  0  0  0.015534  0.098497  0  3.966712  0
C  C58  1  0.52074582  0.80197998  0.21987919  1  0  0.088776  0  3.75186  0  0  0.100897  0  3.981921  0  0  0.104723  0  4.003976  0  0  0.015515  0.098442  0  3.966711  0
C  C59  1  0.97925631  0.30197940  0.78012089  1  0  0.088803  0  3.751867  0  0  0.10095  0  3.981948  0  0  0.104771  0  4.003987  0  0  0.015575  0.098493  0  3.966727  0
C  C60  1  0.46025030  0.05666827  0.76951711  1  0  -0.139635  0  3.661144  0  0  -0.161607  0  3.912908  0  0  -0.16884  0  3.933491  0  0  -0.076325  -0.156981  0  3.899267  0
C  C61  1  0.03975019  0.55666783  0.23048324  1  0  -0.13958  0  3.661007  0  0  -0.161658  0  3.913026  0  0  -0.168778  0  3.933367  0  0  -0.076303  -0.156914  0  3.899138  0
C  C62  1  0.53975228  0.94333152  0.23048376  1  0  -0.139601  0  3.66099  0  0  -0.16167  0  3.912997  0  0  -0.168789  0  3.933336  0  0  -0.076265  -0.156924  0  3.899107  0
C  C63  1  0.96025115  0.44333095  0.76951753  1  0  -0.139591  0  3.661054  0  0  -0.161582  0  3.912807  0  0  -0.168815  0  3.93339  0  0  -0.076321  -0.15695  0  3.899152  0
C  C64  1  0.39592924  0.98008130  0.82213482  1  0  0.153323  0  3.688626  0  0  0.117185  0  3.949122  0  0  0.124912  0  3.966529  0  0  0.054436  0.112104  0  3.937354  0
C  C65  1  0.10407258  0.48008196  0.17786558  1  0  0.153276  0  3.688624  0  0  0.116985  0  3.949512  0  0  0.124861  0  3.966533  0  0  0.054426  0.112045  0  3.937363  0
C  C66  1  0.60407581  0.01991748  0.17786626  1  0  0.153313  0  3.688663  0  0  0.117008  0  3.949552  0  0  0.124884  0  3.966573  0  0  0.054428  0.112062  0  3.937393  0
C  C67  1  0.89592627  0.51991681  0.82213441  1  0  0.153309  0  3.68869  0  0  0.11716  0  3.949156  0  0  0.124886  0  3.966563  0  0  0.054444  0.11208  0  3.937385  0
C  C68  1  0.67015354  0.31246862  0.61467579  1  0  0.15088  0  3.678927  0  0  0.119457  0  3.927621  0  0  0.126922  0  3.94587  0  0  0.052113  0.114668  0  3.915425  0
C  C69  1  0.82984612  0.81246816  0.38532406  1  0  0.150922  0  3.678832  0  0  0.119497  0  3.92752  0  0  0.126962  0  3.945775  0  0  0.052145  0.114708  0  3.915326  0
C  C70  1  0.32984404  0.68753322  0.38532296  1  0  0.150864  0  3.678899  0  0  0.119414  0  3.92759  0  0  0.126878  0  3.945846  0  0  0.052097  0.114623  0  3.915403  0
C  C71  1  0.17015522  0.18753164  0.61467670  1  0  0.150882  0  3.678941  0  0  0.119449  0  3.927628  0  0  0.126914  0  3.945876  0  0  0.052107  0.114658  0  3.915443  0
C  C72  1  0.61578779  0.22850093  0.66710787  1  0  -0.143747  0  3.676586  0  0  -0.162081  0  3.922987  0  0  -0.170356  0  3.944879  0  0  -0.074769  -0.156563  0  3.908207  0
C  C73  1  0.88421309  0.72850051  0.33289267  1  0  -0.143824  0  3.676612  0  0  -0.162177  0  3.922984  0  0  -0.170448  0  3.944885  0  0  -0.074863  -0.156665  0  3.908228  0
C  C74  1  0.38421105  0.77149989  0.33289212  1  0  -0.143646  0  3.676633  0  0  -0.162026  0  3.922983  0  0  -0.170296  0  3.944887  0  0  -0.074774  -0.15651  0  3.908214  0
C  C75  1  0.11578701  0.27149827  0.66710799  1  0  -0.143737  0  3.676394  0  0  -0.16211  0  3.922804  0  0  -0.170385  0  3.944694  0  0  -0.074793  -0.156589  0  3.908025  0
C  C76  1  0.53925026  0.28499098  0.72353344  1  0  0.090125  0  3.753881  0  0  0.101858  0  3.983282  0  0  0.106125  0  4.005298  0  0  0.015765  0.099224  0  3.967987  0
C  C77  1  0.96074815  0.78498957  0.27646631  1  0  0.090063  0  3.753942  0  0  0.101838  0  3.983234  0  0  0.106108  0  4.00527  0  0  0.015797  0.099205  0  3.967965  0
C  C78  1  0.46074733  0.71501086  0.27646587  1  0  0.090017  0  3.753994  0  0  0.101851  0  3.983225  0  0  0.106119  0  4.005262  0  0  0.015752  0.099218  0  3.967952  0
C  C79  1  0.03925070  0.21500920  0.72353367  1  0  0.090114  0  3.753819  0  0  0.10192  0  3.983111  0  0  0.106188  0  4.005127  0  0  0.015813  0.099283  0  3.967818  0
C  C80  1  0.51918453  0.42715173  0.72295716  1  0  -0.139802  0  3.656603  0  0  -0.159938  0  3.908039  0  0  -0.167762  0  3.929015  0  0  -0.073009  -0.154873  0  3.893976  0
C  C81  1  0.98081515  0.92715135  0.27704268  1  0  -0.139753  0  3.656609  0  0  -0.159917  0  3.908025  0  0  -0.167734  0  3.929007  0  0  -0.073002  -0.154832  0  3.893952  0
C  C82  1  0.48081304  0.57284909  0.27704102  1  0  -0.13971  0  3.656605  0  0  -0.159903  0  3.908005  0  0  -0.167723  0  3.928994  0  0  -0.072969  -0.154823  0  3.893938  0
C  C83  1  0.01918369  0.07284845  0.72295731  1  0  -0.139793  0  3.656629  0  0  -0.159957  0  3.908039  0  0  -0.167782  0  3.929016  0  0  -0.073003  -0.154882  0  3.893964  0
C  C84  1  0.57611137  0.50481591  0.66848400  1  0  0.154778  0  3.690685  0  0  0.119578  0  3.949664  0  0  0.127517  0  3.967292  0  0  0.05434  0.1145  0  3.937594  0
C  C85  1  0.92388821  0.00481554  0.33151589  1  0  0.154789  0  3.690743  0  0  0.119601  0  3.949696  0  0  0.127543  0  3.967348  0  0  0.054373  0.11452  0  3.937645  0
C  C86  1  0.42388870  0.49518593  0.33151553  1  0  0.154714  0  3.690903  0  0  0.119533  0  3.949825  0  0  0.127475  0  3.967477  0  0  0.054351  0.11446  0  3.937772  0
C  C87  1  0.07611188  0.99518425  0.66848420  1  0  0.154786  0  3.69074  0  0  0.119611  0  3.949703  0  0  0.12755  0  3.967333  0  0  0.054373  0.114535  0  3.937625  0
N  N88  1  0.34949573  0.03638896  0.88364490  1  0  -0.364422  0  3.314635  0  0  -0.27861  0  3.600628  0  0  -0.298613  0  3.614419  0  0  -0.334074  -0.264761  0  3.591138  0
N  N89  1  0.15050351  0.53638962  0.11635534  1  0  -0.3644  0  3.314623  0  0  -0.2786  0  3.600629  0  0  -0.298589  0  3.61441  0  0  -0.334077  -0.26474  0  3.59113  0
N  N90  1  0.65050683  0.96361083  0.11635541  1  0  -0.364445  0  3.314674  0  0  -0.278626  0  3.600696  0  0  -0.298615  0  3.614477  0  0  -0.334096  -0.264772  0  3.591209  0
N  N91  1  0.84949657  0.46360916  0.88364476  1  0  -0.36441  0  3.314649  0  0  -0.278604  0  3.600659  0  0  -0.298606  0  3.61445  0  0  -0.334089  -0.264755  0  3.591166  0
N  N92  1  0.65192082  0.44902501  0.61546334  1  0  -0.361177  0  3.307805  0  0  -0.275265  0  3.59261  0  0  -0.295378  0  3.606257  0  0  -0.331815  -0.261454  0  3.583352  0
N  N93  1  0.84807763  0.94902455  0.38453640  1  0  -0.361193  0  3.307746  0  0  -0.275279  0  3.592519  0  0  -0.295394  0  3.606181  0  0  -0.331833  -0.261461  0  3.583259  0
N  N94  1  0.34807801  0.55097581  0.38453609  1  0  -0.36117  0  3.307778  0  0  -0.27525  0  3.592542  0  0  -0.295363  0  3.606202  0  0  -0.331848  -0.261436  0  3.583295  0
N  N95  1  0.15192122  0.05097525  0.61546359  1  0  -0.361164  0  3.307748  0  0  -0.275251  0  3.592532  0  0  -0.295366  0  3.606181  0  0  -0.331827  -0.261436  0  3.583271  0
O  O96  1  0.24737775  0.50027443  0.94390679  1  0  -0.892981  0  1.993911  0  0  -0.799833  0  2.291217  0  0  -0.828827  0  2.264462  0  0  -0.380059  -0.779285  0  2.309732  0
O  O97  1  0.25262396  0.00027518  0.05609367  1  0  -0.893026  0  1.993827  0  0  -0.800067  0  2.291537  0  0  -0.82889  0  2.264378  0  0  -0.380094  -0.779365  0  2.309676  0
O  O98  1  0.75262108  0.49972639  0.05609264  1  0  -0.893013  0  1.993893  0  0  -0.800023  0  2.29159  0  0  -0.828851  0  2.264444  0  0  -0.3801  -0.779323  0  2.309722  0
O  O99  1  0.74737740  0.99972359  0.94390765  1  0  -0.893018  0  1.993883  0  0  -0.799879  0  2.291203  0  0  -0.828869  0  2.264435  0  0  -0.380052  -0.779335  0  2.309721  0
O  O100  1  0.50738026  0.58159028  0.89961411  1  0  -0.914585  0  2.027069  0  0  -0.827573  0  2.333614  0  0  -0.854985  0  2.30185  0  0  -0.382562  -0.807874  0  2.355208  0
O  O101  1  0.99262182  0.08159208  0.10038599  1  0  -0.914645  0  2.027047  0  0  -0.827896  0  2.334148  0  0  -0.855076  0  2.301834  0  0  -0.382595  -0.807964  0  2.35519  0
O  O102  1  0.49262108  0.41840850  0.10038665  1  0  -0.914594  0  2.027063  0  0  -0.827826  0  2.334153  0  0  -0.855002  0  2.301842  0  0  -0.382568  -0.807898  0  2.355195  0
O  O103  1  0.00738076  0.91840976  0.89961489  1  0  -0.914622  0  2.027064  0  0  -0.827621  0  2.333595  0  0  -0.855034  0  2.301831  0  0  -0.382579  -0.807937  0  2.35522  0
O  O104  1  0.34586617  0.74639880  0.96876259  1  0  -0.910865  0  2.031826  0  0  -0.81808  0  2.337164  0  0  -0.846315  0  2.307226  0  0  -0.378291  -0.798052  0  2.35791  0
O  O105  1  0.15413685  0.24640057  0.03123851  1  0  -0.910896  0  2.031731  0  0  -0.818306  0  2.337514  0  0  -0.846381  0  2.307156  0  0  -0.378346  -0.79814  0  2.357874  0
O  O106  1  0.65413513  0.25359998  0.03123705  1  0  -0.910847  0  2.031821  0  0  -0.818216  0  2.337555  0  0  -0.846301  0  2.307224  0  0  -0.378277  -0.798048  0  2.357904  0
O  O107  1  0.84586575  0.75360025  0.96876292  1  0  -0.910855  0  2.031874  0  0  -0.818087  0  2.337242  0  0  -0.846314  0  2.307283  0  0  -0.378274  -0.798062  0  2.357984  0
O  O108  1  0.75030662  0.48130903  0.44518373  1  0  -0.899538  0  2.007293  0  0  -0.805392  0  2.308062  0  0  -0.834313  0  2.280259  0  0  -0.379448  -0.784869  0  2.327364  0
O  O109  1  0.74969927  0.98130541  0.55481720  1  0  -0.899514  0  2.007159  0  0  -0.805399  0  2.307948  0  0  -0.834321  0  2.280139  0  0  -0.379485  -0.784879  0  2.327238  0
O  O110  1  0.24969100  0.51869077  0.55481671  1  0  -0.899575  0  2.007207  0  0  -0.805448  0  2.30801  0  0  -0.83437  0  2.280205  0  0  -0.379468  -0.784924  0  2.327311  0
O  O111  1  0.25029954  0.01869439  0.44518166  1  0  -0.899553  0  2.007155  0  0  -0.805417  0  2.307919  0  0  -0.834338  0  2.280114  0  0  -0.379463  -0.784891  0  2.327217  0
O  O112  1  0.98444628  0.58900480  0.59811207  1  0  -0.916137  0  2.032293  0  0  -0.829877  0  2.342337  0  0  -0.857584  0  2.310957  0  0  -0.382417  -0.809795  0  2.363491  0
O  O113  1  0.51555210  0.08900432  0.40188827  1  0  -0.916128  0  2.032255  0  0  -0.829889  0  2.342301  0  0  -0.857591  0  2.310911  0  0  -0.382397  -0.809803  0  2.363457  0
O  O114  1  0.01555255  0.41099704  0.40188735  1  0  -0.91611  0  2.032292  0  0  -0.829865  0  2.342344  0  0  -0.857568  0  2.310956  0  0  -0.382427  -0.80978  0  2.363499  0
O  O115  1  0.48444672  0.91099956  0.59811059  1  0  -0.91608  0  2.032209  0  0  -0.829844  0  2.342283  0  0  -0.857554  0  2.310903  0  0  -0.382404  -0.809761  0  2.363427  0
O  O116  1  0.63484720  0.73894378  0.52827130  1  0  -0.904095  0  2.006749  0  0  -0.812189  0  2.307696  0  0  -0.840286  0  2.278325  0  0  -0.379112  -0.79231  0  2.328123  0
O  O117  1  0.86515122  0.23894435  0.47172902  1  0  -0.904074  0  2.006836  0  0  -0.812172  0  2.307782  0  0  -0.840268  0  2.278417  0  0  -0.379073  -0.792289  0  2.328216  0
O  O118  1  0.36515165  0.26105704  0.47172868  1  0  -0.904095  0  2.006758  0  0  -0.812192  0  2.307693  0  0  -0.84029  0  2.27833  0  0  -0.379085  -0.792311  0  2.328137  0
O  O119  1  0.13484762  0.76105647  0.52827041  1  0  -0.904104  0  2.006749  0  0  -0.812186  0  2.307699  0  0  -0.840287  0  2.278332  0  0  -0.379076  -0.792306  0  2.32813  0
F  F120  1  0.23282859  0.66132638  0.83664231  1  0  -0.396247  0  1.091283  0  0  -0.329174  0  1.260749  0  0  -0.344223  0  1.240496  0  0  -0.114182  -0.31735  0  1.273675  0
F  F121  1  0.26717439  0.16132607  0.16335824  1  0  -0.396303  0  1.091263  0  0  -0.327369  0  1.258963  0  0  -0.344279  0  1.240456  0  0  -0.114219  -0.317402  0  1.273626  0
F  F122  1  0.76717152  0.33867443  0.16335891  1  0  -0.396253  0  1.091285  0  0  -0.327324  0  1.259  0  0  -0.344223  0  1.240487  0  0  -0.114175  -0.317361  0  1.273666  0
F  F123  1  0.73283063  0.83867475  0.83664173  1  0  -0.396284  0  1.091297  0  0  -0.329206  0  1.260754  0  0  -0.344255  0  1.240499  0  0  -0.114192  -0.317384  0  1.273678  0
F  F124  1  0.75374388  0.82002720  0.66065851  1  0  -0.397837  0  1.082122  0  0  -0.327442  0  1.248104  0  0  -0.341186  0  1.22648  0  0  -0.114846  -0.317563  0  1.263056  0
F  F125  1  0.74625456  0.32002883  0.33934236  1  0  -0.397814  0  1.082137  0  0  -0.327505  0  1.248272  0  0  -0.341168  0  1.22651  0  0  -0.114866  -0.317543  0  1.26309  0
F  F126  1  0.24625620  0.17997260  0.33934158  1  0  -0.397856  0  1.082094  0  0  -0.327569  0  1.248237  0  0  -0.341232  0  1.226473  0  0  -0.114899  -0.317606  0  1.263057  0
F  F127  1  0.25374428  0.67997096  0.66065763  1  0  -0.397869  0  1.082096  0  0  -0.327476  0  1.248092  0  0  -0.341218  0  1.226471  0  0  -0.114888  -0.317595  0  1.26305  0
