# generated using pymatgen
data_GdH7C8SO9
_symmetry_space_group_name_H-M   'P 1'
_cell_length_a   6.35852110
_cell_length_b   8.62419998
_cell_length_c   10.59956835
_cell_angle_alpha   90.94234038
_cell_angle_beta   99.45708916
_cell_angle_gamma   107.43407699
_symmetry_Int_Tables_number   1
_chemical_formula_structural   GdH7C8SO9
_chemical_formula_sum   'Gd2 H14 C16 S2 O18'
_cell_volume   545.67840230
_cell_formula_units_Z   2
loop_
 _symmetry_equiv_pos_site_id
 _symmetry_equiv_pos_as_xyz
  1  'x, y, z'
loop_
 _atom_site_type_symbol
 _atom_site_label
 _atom_site_symmetry_multiplicity
 _atom_site_fract_x
 _atom_site_fract_y
 _atom_site_fract_z
 _atom_site_occupancy
 _atom_site_hle17_bader_spin_density
 _atom_site_hle17_ddec_charge
 _atom_site_hle17_ddec_spin_density
 _atom_site_hle17_ddec_sum_bond_order
 _atom_site_hle17_magmom
 _atom_site_hse06_10hf_bader_spin_density
 _atom_site_hse06_10hf_ddec_charge
 _atom_site_hse06_10hf_ddec_spin_density
 _atom_site_hse06_10hf_ddec_sum_bond_order
 _atom_site_hse06_10hf_magmom
 _atom_site_hse06_bader_spin_density
 _atom_site_hse06_ddec_charge
 _atom_site_hse06_ddec_spin_density
 _atom_site_hse06_ddec_sum_bond_order
 _atom_site_hse06_magmom
 _atom_site_pbe_bader_spin_density
 _atom_site_pbe_cm5_charge
 _atom_site_pbe_ddec_charge
 _atom_site_pbe_ddec_spin_density
 _atom_site_pbe_ddec_sum_bond_order
 _atom_site_pbe_magmom
Gd  Gd0  1  0.15084538  0.24172965  0.61164768  1  0  2.240137  0  1.753578  0  0  2.156668  0  2.101457  0  0  2.204081  0  2.05357  0  0  1.496304  2.116276  0  2.146102  0
Gd  Gd1  1  0.84915545  0.75827069  0.38835267  1  0  2.240057  0  1.753675  0  0  2.156688  0  2.101435  0  0  2.204097  0  2.053555  0  0  1.496299  2.116285  0  2.146097  0
H  H2  1  0.61914642  0.41519109  0.14391136  1  0  0.110574  0  0.939861  0  0  0.118035  0  1.003167  0  0  0.121696  0  1.00132  0  0  0.11522  0.115365  0  1.0046  0
H  H3  1  0.38084912  0.58480803  0.85608846  1  0  0.110531  0  0.939967  0  0  0.118022  0  1.003233  0  0  0.121666  0  1.001406  0  0  0.115221  0.115351  0  1.004666  0
H  H4  1  0.65724887  0.36502278  0.91846838  1  0  0.114783  0  0.94794  0  0  0.126212  0  1.005896  0  0  0.129922  0  1.003029  0  0  0.115065  0.123295  0  1.008273  0
H  H5  1  0.34275356  0.63497756  0.08153307  1  0  0.114775  0  0.947943  0  0  0.126204  0  1.005904  0  0  0.129914  0  1.003038  0  0  0.115052  0.123287  0  1.008284  0
H  H6  1  0.17615651  0.15096193  0.05353518  1  0  0.126502  0  0.948451  0  0  0.133925  0  1.009786  0  0  0.137732  0  1.007447  0  0  0.116125  0.13094  0  1.011889  0
H  H7  1  0.82384535  0.84904085  0.94646531  1  0  0.126476  0  0.948479  0  0  0.133902  0  1.009822  0  0  0.137708  0  1.007483  0  0  0.11612  0.130917  0  1.011925  0
H  H8  1  0.53013269  0.08213562  0.67707892  1  0  0.461498  0  0.811499  0  0  0.433699  0  0.871104  0  0  0.4434  0  0.85684  0  0  0.319455  0.426775  0  0.881248  0
H  H9  1  0.46986763  0.91786350  0.32291947  1  0  0.461525  0  0.811464  0  0  0.43373  0  0.871063  0  0  0.443432  0  0.856797  0  0  0.319464  0.426807  0  0.881207  0
H  H10  1  0.30672100  0.95030812  0.60719750  1  0  0.446695  0  0.851033  0  0  0.415224  0  0.915641  0  0  0.425621  0  0.900455  0  0  0.306246  0.407867  0  0.926342  0
H  H11  1  0.69327881  0.04968978  0.39280178  1  0  0.446715  0  0.851005  0  0  0.415248  0  0.91561  0  0  0.425645  0  0.900424  0  0  0.306261  0.407892  0  0.926309  0
H  H12  1  0.65278511  0.35126966  0.70941511  1  0  0.447624  0  0.848166  0  0  0.41958  0  0.906235  0  0  0.430308  0  0.890672  0  0  0.305268  0.411942  0  0.917304  0
H  H13  1  0.34721361  0.64872946  0.29058407  1  0  0.447609  0  0.84819  0  0  0.419568  0  0.906253  0  0  0.430296  0  0.890691  0  0  0.305259  0.411931  0  0.917322  0
H  H14  1  0.58236338  0.50248437  0.65163779  1  0  0.444085  0  0.850421  0  0  0.415917  0  0.908643  0  0  0.425935  0  0.894086  0  0  0.305265  0.408802  0  0.918955  0
H  H15  1  0.41763745  0.49751597  0.34836256  1  0  0.444087  0  0.850419  0  0  0.415916  0  0.908648  0  0  0.425933  0  0.894091  0  0  0.305261  0.408801  0  0.918959  0
C  C16  1  0.01912856  0.22532729  0.19887871  1  0  -0.131288  0  3.686783  0  0  -0.111838  0  3.935085  0  0  -0.118644  0  3.955872  0  0  -0.006169  -0.107534  0  3.921574  0
C  C17  1  0.98086960  0.77467427  0.80112045  1  0  -0.131393  0  3.686786  0  0  -0.111959  0  3.935111  0  0  -0.118763  0  3.955894  0  0  -0.006198  -0.107656  0  3.921603  0
C  C18  1  0.86641894  0.30525523  0.22617061  1  0  -0.034406  0  3.666578  0  0  -0.027236  0  3.902087  0  0  -0.028499  0  3.920065  0  0  0.007806  -0.026333  0  3.890322  0
C  C19  1  0.13358081  0.69474633  0.77382966  1  0  -0.034378  0  3.666515  0  0  -0.027182  0  3.902028  0  0  -0.028443  0  3.92  0  0  0.007833  -0.026277  0  3.890258  0
C  C20  1  0.73683537  0.35307379  0.12296369  1  0  -0.049197  0  3.675225  0  0  -0.072291  0  3.93187  0  0  -0.075025  0  3.950383  0  0  -0.067334  -0.070881  0  3.919796  0
C  C21  1  0.26316546  0.64692656  0.87703478  1  0  -0.049124  0  3.675126  0  0  -0.072241  0  3.931782  0  0  -0.074962  0  3.9503  0  0  -0.067322  -0.070833  0  3.919709  0
C  C22  1  0.75915785  0.32557063  0.99663342  1  0  -0.034513  0  3.654849  0  0  -0.061016  0  3.899476  0  0  -0.058271  0  3.916785  0  0  -0.063646  -0.062369  0  3.888001  0
C  C23  1  0.24084401  0.67443215  0.00336896  1  0  -0.034509  0  3.654746  0  0  -0.061029  0  3.899389  0  0  -0.058284  0  3.916696  0  0  -0.063643  -0.062387  0  3.887914  0
C  C24  1  0.92037323  0.25421033  0.97167917  1  0  -0.047243  0  3.727667  0  0  -0.021918  0  3.960526  0  0  -0.030568  0  3.983254  0  0  -0.008164  -0.016544  0  3.945404  0
C  C25  1  0.07963131  0.74579124  0.02831968  1  0  -0.047216  0  3.727728  0  0  -0.021856  0  3.960546  0  0  -0.030504  0  3.983276  0  0  -0.008091  -0.016466  0  3.945395  0
C  C26  1  0.04821167  0.20327153  0.07328661  1  0  -0.052307  0  3.699442  0  0  -0.089819  0  3.947156  0  0  -0.087538  0  3.966066  0  0  -0.068958  -0.091217  0  3.934952  0
C  C27  1  0.95178968  0.79673003  0.92671381  1  0  -0.052243  0  3.69944  0  0  -0.089777  0  3.947174  0  0  -0.087496  0  3.966084  0  0  -0.068992  -0.09118  0  3.934969  0
C  C28  1  0.84340964  0.34921455  0.36030195  1  0  0.74075  0  3.82019  0  0  0.689444  0  4.119049  0  0  0.725358  0  4.105131  0  0  0.250113  0.664934  0  4.127418  0
C  C29  1  0.15659119  0.65078579  0.63969840  1  0  0.740805  0  3.820184  0  0  0.689418  0  4.119146  0  0  0.725332  0  4.105228  0  0  0.250038  0.664908  0  4.127513  0
C  C30  1  0.97844176  0.24154702  0.84199229  1  0  0.643798  0  3.916005  0  0  0.591653  0  4.223106  0  0  0.625267  0  4.21597  0  0  0.202903  0.569039  0  4.226585  0
C  C31  1  0.02156118  0.75845454  0.15800734  1  0  0.643738  0  3.916133  0  0  0.591599  0  4.223231  0  0  0.625212  0  4.2161  0  0  0.202878  0.568983  0  4.22671  0
S  S32  1  0.20983362  0.16831871  0.31865467  1  0  1.346683  0  5.55117  0  0  1.245048  0  6.07025  0  0  1.293378  0  6.046628  0  0  0.541105  1.211603  0  6.084936  0
S  S33  1  0.79016460  0.83167920  0.68134444  1  0  1.346665  0  5.551148  0  0  1.245041  0  6.070226  0  0  1.293371  0  6.046602  0  0  0.541148  1.211596  0  6.084908  0
O  O34  1  0.08482468  0.03383424  0.38909737  1  0  -0.802987  0  2.176347  0  0  -0.758983  0  2.463933  0  0  -0.780792  0  2.448224  0  0  -0.408002  -0.742097  0  2.473869  0
O  O35  1  0.91517832  0.96616367  0.61090316  1  0  -0.802968  0  2.176375  0  0  -0.758932  0  2.463895  0  0  -0.78074  0  2.448182  0  0  -0.408041  -0.742051  0  2.473831  0
O  O36  1  0.30945207  0.31252171  0.41294900  1  0  -0.741163  0  2.053044  0  0  -0.68734  0  2.306006  0  0  -0.708452  0  2.290638  0  0  -0.367312  -0.671956  0  2.316292  0
O  O37  1  0.69054665  0.68747742  0.58705207  1  0  -0.74112  0  2.053001  0  0  -0.687338  0  2.305996  0  0  -0.708457  0  2.290638  0  0  -0.367325  -0.671951  0  2.316281  0
O  O38  1  0.36811927  0.12535311  0.25253309  1  0  -0.609122  0  1.979977  0  0  -0.550471  0  2.215265  0  0  -0.572883  0  2.205087  0  0  -0.298564  -0.534834  0  2.221949  0
O  O39  1  0.63187940  0.87464967  0.74746426  1  0  -0.60912  0  1.979971  0  0  -0.550466  0  2.215256  0  0  -0.572875  0  2.205077  0  0  -0.298556  -0.534828  0  2.221938  0
O  O40  1  0.84931326  0.24715771  0.44605091  1  0  -0.729021  0  2.07584  0  0  -0.6816  0  2.319473  0  0  -0.70584  0  2.305722  0  0  -0.37728  -0.663843  0  2.328871  0
O  O41  1  0.15068917  0.75284263  0.55394961  1  0  -0.729037  0  2.07586  0  0  -0.681597  0  2.319518  0  0  -0.705836  0  2.305767  0  0  -0.377239  -0.663838  0  2.328915  0
O  O42  1  0.81961557  0.48648116  0.38094775  1  0  -0.691299  0  2.083089  0  0  -0.651756  0  2.347037  0  0  -0.677355  0  2.335701  0  0  -0.386881  -0.632702  0  2.354288  0
O  O43  1  0.18037997  0.51351796  0.61905301  1  0  -0.691364  0  2.083112  0  0  -0.651723  0  2.347039  0  0  -0.67732  0  2.335701  0  0  -0.386847  -0.632674  0  2.354292  0
O  O44  1  0.16355048  0.21579318  0.83476431  1  0  -0.677694  0  1.971448  0  0  -0.63906  0  2.211174  0  0  -0.664088  0  2.203529  0  0  -0.382574  -0.621028  0  2.215851  0
O  O45  1  0.83645035  0.78420717  0.16523604  1  0  -0.677685  0  1.971478  0  0  -0.639059  0  2.21119  0  0  -0.664087  0  2.203546  0  0  -0.382576  -0.621027  0  2.21587  0
O  O46  1  0.85093999  0.25937965  0.73934086  1  0  -0.705985  0  2.043365  0  0  -0.655348  0  2.27923  0  0  -0.680184  0  2.269073  0  0  -0.344766  -0.637237  0  2.285946  0
O  O47  1  0.14905925  0.74062069  0.26065933  1  0  -0.705945  0  2.043397  0  0  -0.655346  0  2.279297  0  0  -0.680178  0  2.269135  0  0  -0.344768  -0.637235  0  2.286016  0
O  O48  1  0.37823692  0.06854825  0.63164700  1  0  -0.911422  0  1.884893  0  0  -0.870129  0  2.080084  0  0  -0.888364  0  2.04809  0  0  -0.652651  -0.856251  0  2.102603  0
O  O49  1  0.62176500  0.93145088  0.36835250  1  0  -0.911456  0  1.884838  0  0  -0.870177  0  2.080011  0  0  -0.888411  0  2.048014  0  0  -0.652679  -0.856297  0  2.102529  0
O  O50  1  0.52802294  0.40046938  0.69422694  1  0  -0.905454  0  1.854441  0  0  -0.866632  0  2.047811  0  0  -0.88623  0  2.01654  0  0  -0.648573  -0.852041  0  2.070028  0
O  O51  1  0.47197579  0.59952974  0.30577225  1  0  -0.90545  0  1.854482  0  0  -0.866621  0  2.047815  0  0  -0.886218  0  2.016545  0  0  -0.648559  -0.852028  0  2.070031  0
