# generated using pymatgen
data_CuH9C9IN3
_symmetry_space_group_name_H-M   'P 1'
_cell_length_a   10.10489097
_cell_length_b   10.46970369
_cell_length_c   11.70847921
_cell_angle_alpha   77.26586724
_cell_angle_beta   73.56063252
_cell_angle_gamma   89.12826705
_symmetry_Int_Tables_number   1
_chemical_formula_structural   CuH9C9IN3
_chemical_formula_sum   'Cu4 H36 C36 I4 N12'
_cell_volume   1157.36658277
_cell_formula_units_Z   4
loop_
 _symmetry_equiv_pos_site_id
 _symmetry_equiv_pos_as_xyz
  1  'x, y, z'
loop_
 _atom_site_type_symbol
 _atom_site_label
 _atom_site_symmetry_multiplicity
 _atom_site_fract_x
 _atom_site_fract_y
 _atom_site_fract_z
 _atom_site_occupancy
 _atom_site_hle17_bader_spin_density
 _atom_site_hle17_ddec_charge
 _atom_site_hle17_ddec_spin_density
 _atom_site_hle17_ddec_sum_bond_order
 _atom_site_hle17_magmom
 _atom_site_hse06_10hf_bader_spin_density
 _atom_site_hse06_10hf_ddec_charge
 _atom_site_hse06_10hf_ddec_spin_density
 _atom_site_hse06_10hf_ddec_sum_bond_order
 _atom_site_hse06_10hf_magmom
 _atom_site_hse06_bader_spin_density
 _atom_site_hse06_ddec_charge
 _atom_site_hse06_ddec_spin_density
 _atom_site_hse06_ddec_sum_bond_order
 _atom_site_hse06_magmom
 _atom_site_pbe_bader_spin_density
 _atom_site_pbe_cm5_charge
 _atom_site_pbe_ddec_charge
 _atom_site_pbe_ddec_spin_density
 _atom_site_pbe_ddec_sum_bond_order
 _atom_site_pbe_magmom
Cu  Cu0  1  0.19455225  0.65352421  0.63911581  1  0  0.308028  0  2.18605  0  0  0.217895  0  2.666174  0  0  0.21461  0  2.624493  0  0  0.373305  0.223634  0  2.689255  0
Cu  Cu1  1  0.80544610  0.34647590  0.36088535  1  0  0.30797  0  2.186122  0  0  0.217791  0  2.666254  0  0  0.214515  0  2.624557  0  0  0.37327  0.223525  0  2.689335  0
Cu  Cu2  1  0.34039604  0.81092750  0.43201595  1  0  0.329595  0  2.109715  0  0  0.234062  0  2.582583  0  0  0.234431  0  2.537712  0  0  0.377791  0.239643  0  2.606883  0
Cu  Cu3  1  0.65960243  0.18907455  0.56798392  1  0  0.329472  0  2.10972  0  0  0.233986  0  2.58258  0  0  0.23433  0  2.537698  0  0  0.377787  0.239574  0  2.606879  0
H  H4  1  0.92463164  0.24531912  0.13033512  1  0  0.086103  0  0.953946  0  0  0.092417  0  1.019653  0  0  0.096651  0  1.016193  0  0  0.105572  0.089023  0  1.022927  0
H  H5  1  0.07536075  0.75468492  0.86966666  1  0  0.086119  0  0.95392  0  0  0.092442  0  1.019617  0  0  0.09668  0  1.016153  0  0  0.105599  0.08905  0  1.022886  0
H  H6  1  0.04734280  0.52454472  0.28738294  1  0  0.089442  0  0.970744  0  0  0.092337  0  1.046839  0  0  0.096493  0  1.043576  0  0  0.099863  0.089504  0  1.048668  0
H  H7  1  0.95265876  0.47545734  0.71261704  1  0  0.089475  0  0.970749  0  0  0.092358  0  1.046856  0  0  0.09651  0  1.043596  0  0  0.099852  0.089524  0  1.048687  0
H  H8  1  0.12330206  0.32530549  0.93846956  1  0  0.078536  0  0.920002  0  0  0.090866  0  0.973742  0  0  0.093227  0  0.973158  0  0  0.115675  0.088494  0  0.975436  0
H  H9  1  0.87669487  0.67468777  0.06153423  1  0  0.078548  0  0.92013  0  0  0.090928  0  0.973825  0  0  0.093291  0  0.97324  0  0  0.115689  0.088556  0  0.975519  0
H  H10  1  0.82879315  0.95777119  0.53635184  1  0  0.091053  0  0.946099  0  0  0.095462  0  1.013363  0  0  0.099544  0  1.00991  0  0  0.109627  0.092054  0  1.01671  0
H  H11  1  0.17121297  0.04223882  0.46365391  1  0  0.091029  0  0.946061  0  0  0.095462  0  1.013324  0  0  0.099544  0  1.00987  0  0  0.109623  0.092051  0  1.016673  0
H  H12  1  0.49919127  0.03408373  0.81460957  1  0  0.084634  0  0.952179  0  0  0.092428  0  1.020871  0  0  0.095154  0  1.018545  0  0  0.111562  0.090628  0  1.022361  0
H  H13  1  0.50080160  0.96591044  0.18538903  1  0  0.084657  0  0.952191  0  0  0.09248  0  1.020859  0  0  0.095208  0  1.018527  0  0  0.111566  0.090681  0  1.02235  0
H  H14  1  0.82887645  0.72841828  0.65846093  1  0  0.078793  0  0.965749  0  0  0.083624  0  1.034552  0  0  0.085915  0  1.034416  0  0  0.102244  0.081485  0  1.035603  0
H  H15  1  0.17114004  0.27159267  0.34154126  1  0  0.078849  0  0.965671  0  0  0.083677  0  1.034486  0  0  0.085971  0  1.03434  0  0  0.102276  0.081537  0  1.035539  0
H  H16  1  0.63976307  0.49406505  0.20772804  1  0  0.098413  0  0.956207  0  0  0.098719  0  1.035824  0  0  0.103592  0  1.030891  0  0  0.115091  0.09506  0  1.039803  0
H  H17  1  0.36023306  0.50593212  0.79227427  1  0  0.098435  0  0.956163  0  0  0.098742  0  1.0358  0  0  0.103615  0  1.030866  0  0  0.115101  0.095082  0  1.039778  0
H  H18  1  0.74323617  0.54767541  0.51331681  1  0  0.086921  0  0.964136  0  0  0.092782  0  1.034286  0  0  0.096654  0  1.031552  0  0  0.105243  0.088611  0  1.038978  0
H  H19  1  0.25676012  0.45232470  0.48668485  1  0  0.086919  0  0.964131  0  0  0.09274  0  1.034329  0  0  0.096613  0  1.031594  0  0  0.10521  0.088568  0  1.039022  0
H  H20  1  0.56788434  0.72295202  0.53753985  1  0  0.086997  0  0.962767  0  0  0.092515  0  1.031452  0  0  0.096179  0  1.029229  0  0  0.104575  0.089567  0  1.033549  0
H  H21  1  0.43211315  0.27705098  0.46245750  1  0  0.087018  0  0.962713  0  0  0.092534  0  1.03141  0  0  0.096201  0  1.02919  0  0  0.104593  0.08959  0  1.033502  0
H  H22  1  0.21382668  0.70974393  0.13366191  1  0  0.060773  0  0.908426  0  0  0.077726  0  0.961511  0  0  0.078797  0  0.961614  0  0  0.095685  0.0765  0  0.962109  0
H  H23  1  0.78617569  0.29025417  0.86633613  1  0  0.060778  0  0.908428  0  0  0.07772  0  0.961497  0  0  0.078792  0  0.9616  0  0  0.095676  0.076496  0  0.962094  0
H  H24  1  0.43550219  0.60447761  0.94233186  1  0  0.077898  0  0.945583  0  0  0.094317  0  1.013006  0  0  0.095444  0  1.012203  0  0  0.091968  0.093624  0  1.013446  0
H  H25  1  0.56449607  0.39552045  0.05766463  1  0  0.077921  0  0.945551  0  0  0.094343  0  1.013019  0  0  0.095469  0  1.012219  0  0  0.092001  0.09365  0  1.01346  0
H  H26  1  0.31738118  0.72142417  0.90744686  1  0  0.075853  0  0.969315  0  0  0.087686  0  1.042482  0  0  0.089375  0  1.042162  0  0  0.078789  0.086365  0  1.04295  0
H  H27  1  0.68261713  0.27857491  0.09255111  1  0  0.075904  0  0.969291  0  0  0.08773  0  1.042501  0  0  0.08942  0  1.042181  0  0  0.078805  0.086413  0  1.042966  0
H  H28  1  0.41367681  0.87695410  0.99876912  1  0  0.050528  0  0.910328  0  0  0.067376  0  0.965105  0  0  0.068145  0  0.965303  0  0  0.094955  0.066451  0  0.965532  0
H  H29  1  0.58632236  0.12304204  0.00123010  1  0  0.05053  0  0.910389  0  0  0.067413  0  0.965137  0  0  0.068187  0  0.965331  0  0  0.09497  0.066483  0  0.965562  0
H  H30  1  0.28378414  0.54266860  0.28516058  1  0  0.069061  0  0.974064  0  0  0.084227  0  1.044042  0  0  0.08518  0  1.044609  0  0  0.080288  0.083213  0  1.043998  0
H  H31  1  0.71621622  0.45733048  0.71483775  1  0  0.069071  0  0.974073  0  0  0.084207  0  1.044061  0  0  0.08516  0  1.044629  0  0  0.080286  0.083193  0  1.044017  0
H  H32  1  0.41494488  0.49407349  0.16837024  1  0  0.076444  0  0.960214  0  0  0.090994  0  1.02984  0  0  0.092243  0  1.02953  0  0  0.089167  0.090481  0  1.029361  0
H  H33  1  0.58505641  0.50592365  0.83162998  1  0  0.076332  0  0.960325  0  0  0.090864  0  1.029955  0  0  0.092112  0  1.029647  0  0  0.089103  0.090351  0  1.029475  0
H  H34  1  0.38477860  0.76519245  0.22919437  1  0  0.053066  0  0.962436  0  0  0.060826  0  1.038778  0  0  0.064769  0  1.034886  0  0  0.085773  0.057709  0  1.041314  0
H  H35  1  0.61522171  0.23480563  0.77080247  1  0  0.053093  0  0.962333  0  0  0.060839  0  1.038718  0  0  0.064823  0  1.034778  0  0  0.085778  0.057722  0  1.041255  0
H  H36  1  0.61823825  0.82465424  0.07507423  1  0  0.064312  0  0.933303  0  0  0.0803  0  0.996869  0  0  0.081974  0  0.9959  0  0  0.084331  0.078994  0  0.997852  0
H  H37  1  0.38176299  0.17534187  0.92492280  1  0  0.064241  0  0.93333  0  0  0.080265  0  0.996862  0  0  0.081944  0  0.99589  0  0  0.08431  0.078958  0  0.997846  0
H  H38  1  0.62017615  0.66803357  0.04135615  1  0  0.082125  0  0.980975  0  0  0.093404  0  1.055598  0  0  0.094607  0  1.055796  0  0  0.092863  0.09272  0  1.055159  0
H  H39  1  0.37982297  0.33196158  0.95864244  1  0  0.082099  0  0.980931  0  0  0.093372  0  1.055575  0  0  0.094579  0  1.055773  0  0  0.092803  0.092685  0  1.055135  0
C  C40  1  0.99705855  0.32582194  0.12109959  1  0  0.06177  0  3.679495  0  0  0.03094  0  3.934572  0  0  0.03329  0  3.949349  0  0  0.039052  0.029112  0  3.925571  0
C  C41  1  0.00293682  0.67418016  0.87890359  1  0  0.061828  0  3.679301  0  0  0.031008  0  3.9344  0  0  0.033358  0  3.949176  0  0  0.039057  0.029186  0  3.925397  0
C  C42  1  0.06441281  0.48028472  0.20832997  1  0  0.023287  0  3.625248  0  0  -0.011527  0  3.880237  0  0  -0.008745  0  3.893089  0  0  0.041713  -0.01394  0  3.872486  0
C  C43  1  0.93558870  0.51971634  0.79166937  1  0  0.023193  0  3.625377  0  0  -0.011594  0  3.880339  0  0  -0.008807  0  3.893185  0  0  0.041733  -0.014006  0  3.872593  0
C  C44  1  0.10620308  0.37044195  0.01690596  1  0  0.07192  0  3.742864  0  0  0.046426  0  4.008782  0  0  0.047995  0  4.026739  0  0  0.044288  0.045087  0  3.997416  0
C  C45  1  0.89379619  0.62955622  0.98309709  1  0  0.071741  0  3.743093  0  0  0.046144  0  4.009144  0  0  0.04771  0  4.027106  0  0  0.044221  0.044806  0  3.997778  0
C  C46  1  0.17543366  0.52353943  0.10330722  1  0  0.189795  0  3.700375  0  0  0.193377  0  3.952369  0  0  0.197024  0  3.971398  0  0  0.131005  0.190666  0  3.939876  0
C  C47  1  0.82456453  0.47645772  0.89669374  1  0  0.189802  0  3.700499  0  0  0.193344  0  3.952503  0  0  0.196995  0  3.971528  0  0  0.13108  0.190633  0  3.940011  0
C  C48  1  0.75579989  0.92343312  0.62655520  1  0  0.069002  0  3.670626  0  0  0.039592  0  3.916385  0  0  0.043199  0  3.93029  0  0  0.040154  0.036173  0  3.909547  0
C  C49  1  0.24420613  0.07657488  0.37344758  1  0  0.069105  0  3.670306  0  0  0.039693  0  3.916016  0  0  0.0433  0  3.929929  0  0  0.040241  0.036276  0  3.909177  0
C  C50  1  0.57470224  0.96577222  0.78075333  1  0  0.02379  0  3.662096  0  0  -0.013028  0  3.916234  0  0  -0.010601  0  3.931927  0  0  0.037102  -0.015641  0  3.907449  0
C  C51  1  0.42529531  0.03423177  0.21924465  1  0  0.02362  0  3.662324  0  0  -0.013243  0  3.916468  0  0  -0.010804  0  3.932155  0  0  0.037012  -0.015857  0  3.907686  0
C  C52  1  0.75446330  0.79647000  0.69527201  1  0  0.070629  0  3.717064  0  0  0.053765  0  3.968908  0  0  0.054502  0  3.987286  0  0  0.043138  0.052871  0  3.957613  0
C  C53  1  0.24554499  0.20354195  0.30473110  1  0  0.070609  0  3.716766  0  0  0.053728  0  3.968631  0  0  0.054468  0  3.987001  0  0  0.043085  0.052837  0  3.957329  0
C  C54  1  0.57544414  0.83893723  0.85039396  1  0  0.17987  0  3.718095  0  0  0.18796  0  3.964155  0  0  0.190475  0  3.985135  0  0  0.123546  0.185899  0  3.950664  0
C  C55  1  0.42455422  0.16106287  0.14960720  1  0  0.179977  0  3.718422  0  0  0.188076  0  3.964464  0  0  0.190588  0  3.985446  0  0  0.123613  0.186012  0  3.950977  0
C  C56  1  0.62274987  0.54525353  0.28202754  1  0  0.027945  0  3.609234  0  0  -0.005178  0  3.862729  0  0  -0.002765  0  3.874335  0  0  0.042797  -0.008104  0  3.857697  0
C  C57  1  0.37724534  0.45474556  0.71797203  1  0  0.027992  0  3.609325  0  0  -0.005159  0  3.862842  0  0  -0.002752  0  3.874444  0  0  0.042825  -0.008085  0  3.857809  0
C  C58  1  0.67978857  0.57495868  0.45105691  1  0  0.061036  0  3.676751  0  0  0.029432  0  3.933318  0  0  0.032256  0  3.945372  0  0  0.033831  0.027316  0  3.926637  0
C  C59  1  0.32020870  0.42504044  0.54894387  1  0  0.061065  0  3.676847  0  0  0.029486  0  3.933419  0  0  0.032308  0  3.945476  0  0  0.033829  0.027373  0  3.926735  0
C  C60  1  0.58511706  0.67158217  0.46333857  1  0  0.07786  0  3.678263  0  0  0.049273  0  3.931754  0  0  0.054364  0  3.942251  0  0  0.037306  0.047606  0  3.923744  0
C  C61  1  0.41487826  0.32841889  0.53666056  1  0  0.077771  0  3.678323  0  0  0.049142  0  3.931832  0  0  0.054224  0  3.942333  0  0  0.037242  0.047472  0  3.923825  0
C  C62  1  0.52928706  0.64471236  0.29158274  1  0  0.188733  0  3.657657  0  0  0.193076  0  3.895887  0  0  0.197997  0  3.91383  0  0  0.119575  0.187659  0  3.886111  0
C  C63  1  0.47071217  0.35528474  0.70841456  1  0  0.188675  0  3.657737  0  0  0.193002  0  3.895973  0  0  0.197941  0  3.913896  0  0  0.119572  0.187583  0  3.886198  0
C  C64  1  0.27566032  0.62990441  0.10108143  1  0  -0.0239  0  3.651903  0  0  -0.029377  0  3.886461  0  0  -0.030909  0  3.902988  0  0  -0.079727  -0.027951  0  3.874929  0
C  C65  1  0.72434211  0.37009466  0.89891639  1  0  -0.023905  0  3.651899  0  0  -0.029264  0  3.886315  0  0  -0.030798  0  3.902846  0  0  -0.079687  -0.02784  0  3.874786  0
C  C66  1  0.37426291  0.68416862  0.97431402  1  0  -0.154886  0  3.648827  0  0  -0.202581  0  3.900497  0  0  -0.203789  0  3.913054  0  0  -0.16497  -0.201549  0  3.891579  0
C  C67  1  0.62573621  0.31582652  0.02568372  1  0  -0.15497  0  3.648854  0  0  -0.202777  0  3.900618  0  0  -0.203975  0  3.913149  0  0  -0.165043  -0.201746  0  3.891701  0
C  C68  1  0.47420358  0.79279290  0.97544606  1  0  -0.02024  0  3.64896  0  0  -0.027753  0  3.888637  0  0  -0.02849  0  3.904376  0  0  -0.08262  -0.027206  0  3.878092  0
C  C69  1  0.52579885  0.20720620  0.02455347  1  0  -0.020239  0  3.648971  0  0  -0.027752  0  3.888708  0  0  -0.028499  0  3.904488  0  0  -0.082641  -0.027193  0  3.878135  0
C  C70  1  0.35643967  0.57795827  0.19389411  1  0  -0.158056  0  3.632621  0  0  -0.20357  0  3.878391  0  0  -0.206137  0  3.89368  0  0  -0.164526  -0.201455  0  3.86683  0
C  C71  1  0.64356173  0.42204081  0.80610397  1  0  -0.157964  0  3.632624  0  0  -0.203427  0  3.878338  0  0  -0.205999  0  3.893642  0  0  -0.164481  -0.201311  0  3.866776  0
C  C72  1  0.45203259  0.68786652  0.19834428  1  0  -0.033492  0  3.669713  0  0  -0.0359  0  3.899285  0  0  -0.038684  0  3.915698  0  0  -0.08857  -0.033186  0  3.887431  0
C  C73  1  0.54796458  0.31213061  0.80165523  1  0  -0.033421  0  3.669504  0  0  -0.035843  0  3.899082  0  0  -0.038651  0  3.915492  0  0  -0.088538  -0.03313  0  3.887227  0
C  C74  1  0.55160923  0.74426138  0.07118901  1  0  -0.161728  0  3.644801  0  0  -0.208996  0  3.899056  0  0  -0.211193  0  3.913544  0  0  -0.162961  -0.207237  0  3.888574  0
C  C75  1  0.44839097  0.25573476  0.92880996  1  0  -0.161644  0  3.644643  0  0  -0.208949  0  3.898934  0  0  -0.211159  0  3.91344  0  0  -0.162885  -0.207184  0  3.888444  0
I  I76  1  0.09429213  0.70475828  0.44533397  1  0  -0.506949  0  1.279478  0  0  -0.459922  0  1.642499  0  0  -0.478832  0  1.614728  0  0  -0.252626  -0.442568  0  1.661449  0
I  I77  1  0.90570736  0.29524378  0.55466651  1  0  -0.506935  0  1.279484  0  0  -0.459905  0  1.642519  0  0  -0.478816  0  1.614748  0  0  -0.252629  -0.442554  0  1.661469  0
I  I78  1  0.32344892  0.86297511  0.65141757  1  0  -0.491341  0  1.323587  0  0  -0.446345  0  1.693208  0  0  -0.465315  0  1.66546  0  0  -0.253538  -0.432679  0  1.710767  0
I  I79  1  0.67654698  0.13701815  0.34858647  1  0  -0.491314  0  1.323528  0  0  -0.446308  0  1.693131  0  0  -0.465277  0  1.665382  0  0  -0.253538  -0.432641  0  1.71069  0
N  N80  1  0.97489787  0.38246089  0.21733957  1  0  -0.216349  0  3.38082  0  0  -0.149478  0  3.671782  0  0  -0.154148  0  3.678639  0  0  -0.350903  -0.147201  0  3.66725  0
N  N81  1  0.02509750  0.61754119  0.78266190  1  0  -0.216351  0  3.380621  0  0  -0.149498  0  3.671596  0  0  -0.154172  0  3.678452  0  0  -0.350944  -0.14723  0  3.667072  0
N  N82  1  0.19489457  0.46936528  0.00642000  1  0  -0.301364  0  3.076603  0  0  -0.271506  0  3.350383  0  0  -0.278636  0  3.365321  0  0  -0.29843  -0.266789  0  3.340521  0
N  N83  1  0.80510340  0.53062796  0.99358268  1  0  -0.301206  0  3.076613  0  0  -0.271325  0  3.350401  0  0  -0.27846  0  3.365346  0  0  -0.298444  -0.266612  0  3.340544  0
N  N84  1  0.66467523  0.00888083  0.66959269  1  0  -0.217725  0  3.393911  0  0  -0.146343  0  3.677471  0  0  -0.152721  0  3.685759  0  0  -0.347882  -0.143498  0  3.673411  0
N  N85  1  0.33532518  0.99111928  0.33040882  1  0  -0.217772  0  3.39384  0  0  -0.146368  0  3.67741  0  0  -0.152762  0  3.685722  0  0  -0.347884  -0.143523  0  3.67335  0
N  N86  1  0.66582452  0.75352042  0.80667416  1  0  -0.290807  0  3.036156  0  0  -0.260521  0  3.296649  0  0  -0.26839  0  3.314417  0  0  -0.298709  -0.255223  0  3.284462  0
N  N87  1  0.33418431  0.24648262  0.19332556  1  0  -0.290881  0  3.036323  0  0  -0.26059  0  3.296825  0  0  -0.268464  0  3.314601  0  0  -0.298757  -0.255295  0  3.284642  0
N  N88  1  0.69579094  0.50667255  0.36285750  1  0  -0.220341  0  3.362674  0  0  -0.154157  0  3.655332  0  0  -0.15475  0  3.658517  0  0  -0.353236  -0.15521  0  3.652661  0
N  N89  1  0.30420524  0.49332560  0.63714459  1  0  -0.220421  0  3.362816  0  0  -0.154231  0  3.655479  0  0  -0.154822  0  3.658666  0  0  -0.353278  -0.155284  0  3.652808  0
N  N90  1  0.50528996  0.70467236  0.38692066  1  0  -0.276952  0  3.309346  0  0  -0.217511  0  3.602083  0  0  -0.219875  0  3.603405  0  0  -0.349139  -0.216606  0  3.599039  0
N  N91  1  0.49470743  0.29532868  0.61307712  1  0  -0.276898  0  3.309404  0  0  -0.217387  0  3.602088  0  0  -0.219748  0  3.603388  0  0  -0.3491  -0.216482  0  3.599044  0
