# generated using pymatgen
data_Sm2H14C16N2O17
_symmetry_space_group_name_H-M   'P 1'
_cell_length_a   8.43659147
_cell_length_b   10.45530880
_cell_length_c   14.40800000
_cell_angle_alpha   85.19237066
_cell_angle_beta   86.84947096
_cell_angle_gamma   75.10324441
_symmetry_Int_Tables_number   1
_chemical_formula_structural   Sm2H14C16N2O17
_chemical_formula_sum   'Sm4 H28 C32 N4 O34'
_cell_volume   1223.11710922
_cell_formula_units_Z   2
loop_
 _symmetry_equiv_pos_site_id
 _symmetry_equiv_pos_as_xyz
  1  'x, y, z'
loop_
 _atom_site_type_symbol
 _atom_site_label
 _atom_site_symmetry_multiplicity
 _atom_site_fract_x
 _atom_site_fract_y
 _atom_site_fract_z
 _atom_site_occupancy
 _atom_site_hle17_bader_spin_density
 _atom_site_hle17_ddec_charge
 _atom_site_hle17_ddec_spin_density
 _atom_site_hle17_ddec_sum_bond_order
 _atom_site_hle17_magmom
 _atom_site_hse06_10hf_bader_spin_density
 _atom_site_hse06_10hf_ddec_charge
 _atom_site_hse06_10hf_ddec_spin_density
 _atom_site_hse06_10hf_ddec_sum_bond_order
 _atom_site_hse06_10hf_magmom
 _atom_site_hse06_bader_spin_density
 _atom_site_hse06_ddec_charge
 _atom_site_hse06_ddec_spin_density
 _atom_site_hse06_ddec_sum_bond_order
 _atom_site_hse06_magmom
 _atom_site_pbe_bader_charge
 _atom_site_pbe_bader_spin_density
 _atom_site_pbe_cm5_charge
 _atom_site_pbe_ddec_charge
 _atom_site_pbe_ddec_spin_density
 _atom_site_pbe_ddec_sum_bond_order
 _atom_site_pbe_magmom
Sm  Sm0  1  0.49072131  0.97212386  0.71796079  1  0  2.292397  0  1.56659  0  0  2.202745  0  1.90059  0  0  2.24535  0  1.862767  0  2.227404  0  1.482584  2.099916  0  2.06178  0
Sm  Sm1  1  0.50927906  0.02787587  0.28203886  1  0  2.292415  0  1.566531  0  0  2.202753  0  1.900522  0  0  2.245361  0  1.862707  0  2.227472  0  1.482626  2.099908  0  2.061724  0
Sm  Sm2  1  0.82226911  0.79576820  0.92734416  1  0  2.228158  0  1.610882  0  0  2.058399  0  2.092286  0  0  2.179142  0  1.908892  0  2.206857  0  1.470126  2.0232  0  2.12327  0
Sm  Sm3  1  0.17773782  0.20422955  0.07265402  1  0  2.228243  0  1.610939  0  0  2.058368  0  2.092497  0  0  2.179211  0  1.908956  0  2.206982  0  1.470047  2.023175  0  2.123468  0
H  H4  1  0.52083258  0.30015482  0.57203917  1  0  0.135424  0  0.941793  0  0  0.142918  0  1.004171  0  0  0.147071  0  1.00319  0  0.110933  0  0.116466  0.14021  0  1.004842  0
H  H5  1  0.47915973  0.69984789  0.42795848  1  0  0.135251  0  0.941897  0  0  0.142787  0  1.004233  0  0  0.146948  0  1.003227  0  0.110857  0  0.116375  0.140072  0  1.004924  0
H  H6  1  0.56532201  0.52836743  0.57261919  1  0  0.09802  0  0.93899  0  0  0.109983  0  0.997955  0  0  0.112738  0  0.995295  0  0.111806  0  0.110532  0.108023  0  0.999803  0
H  H7  1  0.43467268  0.47163529  0.42738255  1  0  0.097962  0  0.938993  0  0  0.109949  0  0.997958  0  0  0.112705  0  0.995292  0  0.112008  0  0.1105  0.107979  0  0.999803  0
H  H8  1  0.28637400  0.57630972  0.83273091  1  0  0.115561  0  0.919666  0  0  0.123432  0  0.981675  0  0  0.127314  0  0.977091  0  0.150552  0  0.139875  0.120897  0  0.984247  0
H  H9  1  0.71362493  0.42368704  0.16727522  1  0  0.115502  0  0.919628  0  0  0.123396  0  0.981618  0  0  0.127281  0  0.977029  0  0.150493  0  0.139829  0.12085  0  0.984199  0
H  H10  1  0.22800451  0.86874638  0.46460571  1  0  0.139784  0  0.999405  0  0  0.148363  0  1.056368  0  0  0.152585  0  1.055384  0  0.145897  0  0.112467  0.145068  0  1.057792  0
H  H11  1  0.77199173  0.13125137  0.53538726  1  0  0.139785  0  0.999425  0  0  0.148364  0  1.056399  0  0  0.152585  0  1.05542  0  0.145704  0  0.112472  0.145074  0  1.057809  0
H  H12  1  0.16992123  0.86411429  0.63355494  1  0  0.101338  0  0.973825  0  0  0.109207  0  1.040366  0  0  0.112881  0  1.035956  0  0.128907  0  0.11487  0.106851  0  1.042708  0
H  H13  1  0.83008869  0.13588147  0.36643771  1  0  0.101308  0  0.973818  0  0  0.109173  0  1.040387  0  0  0.112848  0  1.035975  0  0.128785  0  0.114817  0.106792  0  1.042758  0
H  H14  1  0.75869207  0.70263726  0.59269023  1  0  0.104101  0  0.958215  0  0  0.113663  0  1.020785  0  0  0.117194  0  1.016426  0  0.185904  0  0.131468  0.111082  0  1.023688  0
H  H15  1  0.24131273  0.29736346  0.40731408  1  0  0.104161  0  0.958161  0  0  0.113737  0  1.0207  0  0  0.117268  0  1.016338  0  0.185955  0  0.131509  0.111156  0  1.023602  0
H  H16  1  0.25094240  0.36437689  0.82814650  1  0  0.336272  0  0.867747  0  0  0.313209  0  0.930089  0  0  0.323965  0  0.920752  0  0.544847  0  0.326064  0.30579  0  0.936619  0
H  H17  1  0.74906215  0.63562086  0.17185314  1  0  0.33632  0  0.867615  0  0  0.313239  0  0.929988  0  0  0.323991  0  0.920662  0  0.544655  0  0.326074  0.30582  0  0.936516  0
H  H18  1  0.83009825  0.71036733  0.43298087  1  0  0.30627  0  0.856739  0  0  0.291652  0  0.909937  0  0  0.298616  0  0.90568  0  0.478634  0  0.332582  0.286575  0  0.913454  0
H  H19  1  0.16989499  0.28963240  0.56702180  1  0  0.306274  0  0.856778  0  0  0.29165  0  0.90998  0  0  0.298617  0  0.905719  0  0.478526  0  0.332574  0.286573  0  0.913498  0
H  H20  1  0.13865615  0.93469506  0.77339108  1  0  0.448909  0  0.839853  0  0  0.420443  0  0.89921  0  0  0.430466  0  0.884572  0  0.642982  0  0.306096  0.413038  0  0.90989  0
H  H21  1  0.86134541  0.06530468  0.22661062  1  0  0.44904  0  0.839713  0  0  0.420591  0  0.899032  0  0  0.430614  0  0.884393  0  0.643012  0  0.306162  0.41319  0  0.909703  0
H  H22  1  0.12339834  0.08279110  0.73224507  1  0  0.448338  0  0.832218  0  0  0.420204  0  0.890245  0  0  0.430178  0  0.875576  0  0.63457  0  0.308724  0.412704  0  0.901136  0
H  H23  1  0.87660260  0.91721062  0.26776000  1  0  0.448447  0  0.832068  0  0  0.420258  0  0.890176  0  0  0.430232  0  0.875506  0  0.634595  0  0.308752  0.412759  0  0.901068  0
H  H24  1  0.74267400  0.09448344  0.81418808  1  0  0.440077  0  0.850721  0  0  0.412176  0  0.908684  0  0  0.423112  0  0.89254  0  0.658545  0  0.303034  0.403897  0  0.920875  0
H  H25  1  0.25732636  0.90551629  0.18581366  1  0  0.44004  0  0.850785  0  0  0.412129  0  0.90876  0  0  0.423068  0  0.892616  0  0.658641  0  0.302989  0.40385  0  0.920953  0
H  H26  1  0.78251632  0.13386610  0.70952655  1  0  0.43629  0  0.851081  0  0  0.40931  0  0.907712  0  0  0.420046  0  0.892025  0  0.644641  0  0.297765  0.401219  0  0.919409  0
H  H27  1  0.21747630  0.86613562  0.29047393  1  0  0.436264  0  0.851109  0  0  0.409277  0  0.907744  0  0  0.420014  0  0.892056  0  0.644614  0  0.297766  0.401187  0  0.919438  0
H  H28  1  0.53273763  0.69498658  0.87520080  1  0  0.443126  0  0.85709  0  0  0.412199  0  0.920073  0  0  0.423574  0  0.903628  0  0.643151  0  0.300299  0.404252  0  0.931577  0
H  H29  1  0.46726574  0.30501117  0.12480027  1  0  0.443097  0  0.857128  0  0  0.412178  0  0.92009  0  0  0.423554  0  0.903644  0  0.643117  0  0.300277  0.404231  0  0.931595  0
H  H30  1  0.65246863  0.56872453  0.92479015  1  0  0.429901  0  0.821139  0  0  0.417314  0  0.866076  0  0  0.424866  0  0.855428  0  0.626109  0  0.330631  0.412044  0  0.873706  0
H  H31  1  0.34752730  0.43127422  0.07521735  1  0  0.429886  0  0.821096  0  0  0.417285  0  0.86611  0  0  0.424839  0  0.855459  0  0.626024  0  0.330609  0.412013  0  0.873743  0
C  C32  1  0.38135264  0.31314312  0.70272084  1  0  0.582602  0  3.85037  0  0  0.543537  0  4.129262  0  0  0.572448  0  4.130109  0  1.272664  0  0.237761  0.523844  0  4.125301  0
C  C33  1  0.61864679  0.68685959  0.29727658  1  0  0.582851  0  3.850346  0  0  0.543763  0  4.129261  0  0  0.572674  0  4.130109  0  1.271971  0  0.237853  0.52406  0  4.125316  0
C  C34  1  0.47196574  0.36425384  0.62823992  1  0  -0.259702  0  3.689813  0  0  -0.276959  0  3.949355  0  0  -0.291414  0  3.967289  0  0.015392  0  -0.094732  -0.268097  0  3.938012  0
C  C35  1  0.52801919  0.63574589  0.37175815  1  0  -0.259522  0  3.689725  0  0  -0.276819  0  3.949279  0  0  -0.29127  0  3.96722  0  0.01619  0  -0.094636  -0.267958  0  3.937926  0
C  C36  1  0.49672864  0.48885775  0.62936791  1  0  0.028096  0  3.726938  0  0  -0.001252  0  3.973608  0  0  0.008835  0  3.990346  0  -0.110843  0  -0.058169  -0.007976  0  3.963105  0
C  C37  1  0.50326661  0.51114694  0.37063022  1  0  0.028049  0  3.727227  0  0  -0.00135  0  3.973918  0  0  0.008739  0  3.990664  0  -0.111085  0  -0.058231  -0.008056  0  3.963398  0
C  C38  1  0.43423494  0.56846950  0.70446130  1  0  -0.158025  0  3.795186  0  0  -0.135601  0  4.042806  0  0  -0.153194  0  4.067975  0  0.059976  0  -0.028849  -0.124369  0  4.026181  0
C  C39  1  0.56576068  0.43153023  0.29553782  1  0  -0.158102  0  3.795302  0  0  -0.135647  0  4.042879  0  0  -0.15325  0  4.068065  0  0.059893  0  -0.028811  -0.124417  0  4.026249  0
C  C40  1  0.34487150  0.51857038  0.77509358  1  0  0.17096  0  3.619266  0  0  0.115093  0  3.877565  0  0  0.129683  0  3.890103  0  0.44234  0  0.074897  0.106394  0  3.867448  0
C  C41  1  0.65512412  0.48142935  0.22490831  1  0  0.171037  0  3.619341  0  0  0.115158  0  3.877588  0  0  0.129749  0  3.890127  0  0.442432  0  0.074877  0.106469  0  3.867476  0
C  C42  1  0.45727421  0.70350950  0.70707419  1  0  0.652956  0  3.951078  0  0  0.601358  0  4.254181  0  0  0.63673  0  4.24575  0  1.543093  0  0.199392  0.577552  0  4.252911  0
C  C43  1  0.54272647  0.29648924  0.29293246  1  0  0.653128  0  3.950912  0  0  0.601521  0  4.254015  0  0  0.636896  0  4.245579  0  1.54305  0  0.199482  0.577715  0  4.252749  0
C  C44  1  0.03151488  0.78609122  0.43291874  1  0  0.56159  0  3.852434  0  0  0.519154  0  4.136911  0  0  0.547649  0  4.139732  0  1.262792  0  0.221452  0.500188  0  4.134535  0
C  C45  1  0.96847387  0.21391149  0.56707833  1  0  0.561586  0  3.852608  0  0  0.519233  0  4.136965  0  0  0.547727  0  4.139789  0  1.26273  0  0.221455  0.500273  0  4.134579  0
C  C46  1  0.13220910  0.82519901  0.49561810  1  0  -0.256628  0  3.678305  0  0  -0.271511  0  3.933433  0  0  -0.287655  0  3.953791  0  -0.086643  0  -0.1049  -0.261554  0  3.920811  0
C  C47  1  0.86779126  0.17480072  0.50438156  1  0  -0.256654  0  3.678205  0  0  -0.271566  0  3.933342  0  0  -0.287713  0  3.953705  0  -0.086262  0  -0.104926  -0.261609  0  3.920722  0
C  C48  1  0.09704307  0.82375520  0.58953194  1  0  0.037262  0  3.698335  0  0  0.003758  0  3.952536  0  0  0.01401  0  3.968818  0  0.007835  0  -0.060106  -0.002657  0  3.941615  0
C  C49  1  0.90296174  0.17624552  0.41046057  1  0  0.037286  0  3.69804  0  0  0.003769  0  3.952315  0  0  0.014026  0  3.968589  0  0.007919  0  -0.060068  -0.002638  0  3.941418  0
C  C50  1  0.96070308  0.78031402  0.62909487  1  0  -0.159726  0  3.763745  0  0  -0.139118  0  4.014263  0  0  -0.156461  0  4.037141  0  0.046603  0  -0.028793  -0.127831  0  3.998694  0
C  C51  1  0.03929991  0.21968869  0.37090313  1  0  -0.159704  0  3.763766  0  0  -0.139163  0  4.014386  0  0  -0.156504  0  4.037259  0  0.046828  0  -0.028844  -0.127871  0  3.9988  0
C  C52  1  0.86883035  0.73401895  0.56947143  1  0  0.175015  0  3.615517  0  0  0.120038  0  3.873573  0  0  0.135249  0  3.885039  0  0.390288  0  0.068053  0.110445  0  3.865503  0
C  C53  1  0.13117090  0.26598177  0.43052675  1  0  0.174932  0  3.615435  0  0  0.119987  0  3.873481  0  0  0.135206  0  3.88494  0  0.390169  0  0.068019  0.110392  0  3.865411  0
C  C54  1  0.90825767  0.80098673  0.72760144  1  0  0.692141  0  3.884124  0  0  0.643292  0  4.178334  0  0  0.678803  0  4.174733  0  1.539298  0  0.214803  0.618519  0  4.182588  0
C  C55  1  0.09175132  0.19901201  0.27239523  1  0  0.692267  0  3.884104  0  0  0.643446  0  4.178297  0  0  0.678956  0  4.174697  0  1.539079  0  0.214884  0.618673  0  4.182552  0
C  C56  1  0.46799223  0.01989971  0.95022964  1  0  0.602379  0  3.876823  0  0  0.559693  0  4.169877  0  0  0.590087  0  4.165308  0  1.605964  0  0.241634  0.538709  0  4.173909  0
C  C57  1  0.53203274  0.98008216  0.04976615  1  0  0.602324  0  3.876712  0  0  0.559585  0  4.169832  0  0  0.589993  0  4.165244  0  1.629472  0  0.241517  0.538596  0  4.173868  0
C  C58  1  0.59278671  0.99243935  0.50089552  1  0  0.558646  0  3.93532  0  0  0.515528  0  4.236156  0  0  0.546032  0  4.224188  0  1.574641  0  0.213814  0.495601  0  4.235795  0
C  C59  1  0.40720786  0.00757130  0.49909186  1  0  0.558876  0  3.935218  0  0  0.51556  0  4.236292  0  0  0.546054  0  4.224325  0  1.604409  0  0.213881  0.495632  0  4.235926  0
C  C60  1  0.93883531  0.05991347  0.97466270  1  0  0.588541  0  3.893174  0  0  0.54677  0  4.186959  0  0  0.577024  0  4.183761  0  1.590948  0  0.227338  0.52599  0  4.193643  0
C  C61  1  0.06117542  0.94006840  0.02533563  1  0  0.588609  0  3.893173  0  0  0.546646  0  4.187207  0  0  0.576899  0  4.184012  0  1.612465  0  0.227314  0.525853  0  4.193903  0
C  C62  1  0.96309243  0.51258082  0.04993936  1  0  0.549395  0  3.947493  0  0  0.507365  0  4.244755  0  0  0.5366  0  4.24328  0  1.604725  0  0.218028  0.487375  0  4.249643  0
C  C63  1  0.03690114  0.48743677  0.95005388  1  0  0.549371  0  3.947307  0  0  0.507255  0  4.244627  0  0  0.536487  0  4.243155  0  1.580099  0  0.217934  0.487268  0  4.249515  0
N  N64  1  0.32036511  0.39653456  0.77318135  1  0  -0.326166  0  3.323643  0  0  -0.25362  0  3.548236  0  0  -0.274178  0  3.554937  0  -1.290438  0  -0.344685  -0.239533  0  3.543202  0
N  N65  1  0.67963082  0.60346418  0.22682059  1  0  -0.326323  0  3.32365  0  0  -0.25375  0  3.548259  0  0  -0.27431  0  3.55496  0  -1.290342  0  -0.344672  -0.239659  0  3.543225  0
N  N66  1  0.90802289  0.73289864  0.47702204  1  0  -0.342794  0  3.346642  0  0  -0.273221  0  3.577931  0  0  -0.293553  0  3.586936  0  -1.247521  0  -0.362779  -0.25996  0  3.572232  0
N  N67  1  0.09197536  0.26710407  0.52297889  1  0  -0.342791  0  3.346479  0  0  -0.273236  0  3.577744  0  0  -0.293566  0  3.586741  0  -1.247302  0  -0.362741  -0.259978  0  3.572045  0
O  O68  1  0.35067313  0.20061359  0.70703170  1  0  -0.696059  0  2.064499  0  0  -0.662133  0  2.329148  0  0  -0.68372  0  2.316305  0  -1.194818  0  -0.397317  -0.636605  0  2.339154  0
O  O69  1  0.64932111  0.79937920  0.29296858  1  0  -0.696093  0  2.064741  0  0  -0.662171  0  2.329422  0  0  -0.683739  0  2.316543  0  -1.194761  0  -0.397316  -0.636641  0  2.33943  0
O  O70  1  0.19786467  0.00542792  0.76448777  1  0  -0.896648  0  1.832208  0  0  -0.858591  0  2.012952  0  0  -0.87574  0  1.980725  0  -1.249358  0  -0.633903  -0.837621  0  2.040547  0
O  O71  1  0.80213626  0.99457380  0.23551522  1  0  -0.896892  0  1.832004  0  0  -0.8588  0  2.012827  0  0  -0.875949  0  1.980599  0  -1.249391  0  -0.633989  -0.83782  0  2.0404  0
O  O72  1  0.70076255  0.10130555  0.75065914  1  0  -0.911717  0  1.831329  0  0  -0.871273  0  2.002267  0  0  -0.889508  0  1.97129  0  -1.300781  0  -0.620021  -0.849825  0  2.029158  0
O  O73  1  0.29923575  0.89869319  0.24934134  1  0  -0.911669  0  1.831347  0  0  -0.871215  0  2.002343  0  0  -0.889452  0  1.971361  0  -1.300829  0  -0.619992  -0.849759  0  2.029229  0
O  O74  1  0.50317720  0.76198909  0.63372623  1  0  -0.676836  0  1.997043  0  0  -0.638475  0  2.240749  0  0  -0.663305  0  2.232389  0  -1.183744  0  -0.353659  -0.614167  0  2.245491  0
O  O75  1  0.49682017  0.23801262  0.36627549  1  0  -0.676873  0  1.997037  0  0  -0.63853  0  2.24077  0  0  -0.663365  0  2.232429  0  -1.183881  0  -0.353694  -0.614212  0  2.245491  0
O  O76  1  0.61134216  0.66415364  0.92742118  1  0  -0.889119  0  1.814737  0  0  -0.847122  0  1.985543  0  0  -0.873172  0  1.950865  0  -1.256294  0  -0.623557  -0.835198  0  2.005615  0
O  O77  1  0.38866352  0.33584808  0.07257818  1  0  -0.88909  0  1.814705  0  0  -0.847094  0  1.985583  0  0  -0.873157  0  1.950899  0  -1.256192  0  -0.62353  -0.835171  0  2.005654  0
O  O78  1  0.42754312  0.76085786  0.78421765  1  0  -0.705387  0  2.028804  0  0  -0.650486  0  2.258627  0  0  -0.675542  0  2.247308  0  -1.185873  0  -0.366541  -0.625868  0  2.265259  0
O  O79  1  0.57245400  0.23914088  0.21578564  1  0  -0.705491  0  2.028732  0  0  -0.650577  0  2.258537  0  0  -0.675632  0  2.247214  0  -1.185728  0  -0.36661  -0.625957  0  2.265167  0
O  O80  1  0.04452407  0.79747794  0.34515224  1  0  -0.598856  0  1.900715  0  0  -0.549056  0  2.103403  0  0  -0.571344  0  2.093959  0  -1.187456  0  -0.309884  -0.533728  0  2.110129  0
O  O81  1  0.95546256  0.20252775  0.65484749  1  0  -0.598856  0  1.900715  0  0  -0.549102  0  2.103376  0  0  -0.571391  0  2.093935  0  -1.187514  0  -0.309885  -0.533773  0  2.110095  0
O  O82  1  0.76114510  0.79760992  0.75636675  1  0  -0.812849  0  2.065664  0  0  -0.764667  0  2.321759  0  0  -0.797323  0  2.311019  0  -1.208892  0  -0.415842  -0.739195  0  2.329814  0
O  O83  1  0.23886233  0.20239379  0.24363382  1  0  -0.8129  0  2.065738  0  0  -0.764686  0  2.321769  0  0  -0.797348  0  2.311027  0  -1.209006  0  -0.415861  -0.739215  0  2.329826  0
O  O84  1  0.00616851  0.82424044  0.78459514  1  0  -0.685168  0  1.98634  0  0  -0.63172  0  2.22139  0  0  -0.664576  0  2.211487  0  -1.184931  0  -0.346662  -0.614874  0  2.228587  0
O  O85  1  0.99383961  0.17575731  0.21540508  1  0  -0.68522  0  1.986343  0  0  -0.631783  0  2.221387  0  0  -0.664649  0  2.211484  0  -1.184858  0  -0.346706  -0.614942  0  2.228583  0
O  O86  1  0.54966469  0.95024152  0.88625303  1  0  -0.758266  0  2.159491  0  0  -0.704271  0  2.414874  0  0  -0.736582  0  2.403074  0  -1.202113  0  -0.412397  -0.677699  0  2.420861  0
O  O87  1  0.45033449  0.04975821  0.11375083  1  0  -0.758374  0  2.158671  0  0  -0.704348  0  2.414078  0  0  -0.736682  0  2.402271  0  -1.201781  0  -0.412455  -0.677766  0  2.420062  0
O  O88  1  0.34421695  0.11496961  0.93862598  1  0  -0.614539  0  2.039392  0  0  -0.575712  0  2.285785  0  0  -0.605641  0  2.273261  0  -1.162899  0  -0.340836  -0.559895  0  2.289752  0
O  O89  1  0.65578011  0.88503310  0.06137430  1  0  -0.614274  0  2.040022  0  0  -0.575434  0  2.286426  0  0  -0.60534  0  2.273889  0  -1.163916  0  -0.340637  -0.559621  0  2.290397  0
O  O90  1  0.65067639  0.99285414  0.58062171  1  0  -0.685839  0  2.122785  0  0  -0.642682  0  2.371891  0  0  -0.666675  0  2.364016  0  -1.178471  0  -0.392898  -0.61663  0  2.377509  0
O  O91  1  0.34931193  0.00715751  0.41938039  1  0  -0.685798  0  2.123184  0  0  -0.642595  0  2.372396  0  0  -0.666637  0  2.364649  0  -1.178642  0  -0.392852  -0.616556  0  2.378042  0
O  O92  1  0.67259293  0.98137712  0.42449767  1  0  -0.644251  0  2.110259  0  0  -0.607848  0  2.35989  0  0  -0.630412  0  2.353144  0  -1.170042  0  -0.353115  -0.584652  0  2.364855  0
O  O93  1  0.32739489  0.01862857  0.57549925  1  0  -0.644369  0  2.109702  0  0  -0.607952  0  2.35949  0  0  -0.630518  0  2.35275  0  -1.170313  0  -0.353166  -0.584756  0  2.364459  0
O  O94  1  0.83658716  0.03036061  0.92384618  1  0  -0.687525  0  2.083841  0  0  -0.628836  0  2.314814  0  0  -0.661993  0  2.302361  0  -1.19297  0  -0.359377  -0.611231  0  2.321769  0
O  O95  1  0.16342988  0.96963516  0.07615943  1  0  -0.687674  0  2.083211  0  0  -0.628913  0  2.314269  0  0  -0.662091  0  2.301821  0  -1.192186  0  -0.359451  -0.611303  0  2.321229  0
O  O96  1  0.95021510  0.17479874  0.98826928  1  0  -0.648003  0  1.97681  0  0  -0.605338  0  2.207633  0  0  -0.63617  0  2.192473  0  -1.174359  0  -0.375623  -0.590659  0  2.215386  0
O  O97  1  0.04980251  0.82519901  0.01173411  1  0  -0.647777  0  1.977392  0  0  -0.605068  0  2.208285  0  0  -0.635876  0  2.193132  0  -1.174539  0  -0.375431  -0.590388  0  2.216043  0
O  O98  1  0.86381171  0.62472236  0.06037022  1  0  -0.631951  0  2.068614  0  0  -0.578151  0  2.304511  0  0  -0.609569  0  2.293268  0  -1.176933  0  -0.344465  -0.561775  0  2.31039  0
O  O99  1  0.13619971  0.37527241  0.93962869  1  0  -0.632104  0  2.067874  0  0  -0.578155  0  2.303688  0  0  -0.609593  0  2.292447  0  -1.176882  0  -0.344478  -0.561777  0  2.309562  0
O  O100  1  0.00569226  0.41973865  0.11257485  1  0  -0.657712  0  2.041159  0  0  -0.613207  0  2.282937  0  0  -0.644605  0  2.271135  0  -1.17772  0  -0.371688  -0.597826  0  2.288984  0
O  O101  1  0.99430548  0.58025810  0.88742785  1  0  -0.657546  0  2.041784  0  0  -0.61305  0  2.283606  0  0  -0.644422  0  2.271805  0  -1.177938  0  -0.371572  -0.597675  0  2.289656  0
