# generated using pymatgen
data_AgPH15C8N3O2
_symmetry_space_group_name_H-M   'P 1'
_cell_length_a   6.85300217
_cell_length_b   12.46624373
_cell_length_c   15.53961210
_cell_angle_alpha   75.44415271
_cell_angle_beta   77.23314636
_cell_angle_gamma   74.04041027
_symmetry_Int_Tables_number   1
_chemical_formula_structural   AgPH15C8N3O2
_chemical_formula_sum   'Ag4 P4 H60 C32 N12 O8'
_cell_volume   1218.86432375
_cell_formula_units_Z   4
loop_
 _symmetry_equiv_pos_site_id
 _symmetry_equiv_pos_as_xyz
  1  'x, y, z'
loop_
 _atom_site_type_symbol
 _atom_site_label
 _atom_site_symmetry_multiplicity
 _atom_site_fract_x
 _atom_site_fract_y
 _atom_site_fract_z
 _atom_site_occupancy
 _atom_site_hle17_bader_spin_density
 _atom_site_hle17_ddec_charge
 _atom_site_hle17_ddec_spin_density
 _atom_site_hle17_ddec_sum_bond_order
 _atom_site_hle17_magmom
 _atom_site_hse06_10hf_bader_spin_density
 _atom_site_hse06_10hf_ddec_charge
 _atom_site_hse06_10hf_ddec_spin_density
 _atom_site_hse06_10hf_ddec_sum_bond_order
 _atom_site_hse06_10hf_magmom
 _atom_site_hse06_bader_spin_density
 _atom_site_hse06_ddec_charge
 _atom_site_hse06_ddec_spin_density
 _atom_site_hse06_ddec_sum_bond_order
 _atom_site_hse06_magmom
 _atom_site_pbe_bader_charge
 _atom_site_pbe_bader_spin_density
 _atom_site_pbe_cm5_charge
 _atom_site_pbe_ddec_charge
 _atom_site_pbe_ddec_spin_density
 _atom_site_pbe_ddec_sum_bond_order
 _atom_site_pbe_magmom
Ag  Ag0  1  0.53170303  0.60582208  0.51132904  1  0  0.365443  0  1.812457  0  0  0.252777  0  2.30544  0  0  0.277663  0  2.254117  0  0.43871  0  0.429936  0.234474  0  2.341531  0
Ag  Ag1  1  0.64838057  0.89404451  0.98856280  1  0  0.366067  0  1.81136  0  0  0.25335  0  2.304654  0  0  0.278299  0  2.253244  0  0.438048  0  0.429522  0.234955  0  2.340841  0
Ag  Ag2  1  0.46829637  0.39417419  0.48867197  1  0  0.365405  0  1.812578  0  0  0.252741  0  2.305552  0  0  0.277625  0  2.254231  0  0.439456  0  0.42993  0.234431  0  2.341654  0
Ag  Ag3  1  0.35162777  0.10595772  0.01143777  1  0  0.366121  0  1.811365  0  0  0.253436  0  2.304571  0  0  0.278386  0  2.253187  0  0.438057  0  0.429562  0.235039  0  2.340755  0
P  P4  1  0.18268613  0.69951032  0.53985334  1  0  0.275738  0  3.516442  0  0  0.237387  0  4.013354  0  0  0.246969  0  4.00099  0  1.128246  0  -0.059618  0.230266  0  4.022287  0
P  P5  1  0.42177943  0.80014238  0.96020423  1  0  0.274611  0  3.515138  0  0  0.235726  0  4.012882  0  0  0.245466  0  4.000427  0  1.109797  0  -0.060167  0.228598  0  4.021864  0
P  P6  1  0.81729984  0.30049020  0.46014216  1  0  0.275653  0  3.516153  0  0  0.237348  0  4.013064  0  0  0.24693  0  4.000707  0  1.128209  0  -0.059602  0.230233  0  4.022011  0
P  P7  1  0.57823313  0.19985900  0.03979261  1  0  0.274571  0  3.515056  0  0  0.23579  0  4.012825  0  0  0.24551  0  4.000413  0  1.109846  0  -0.060133  0.22866  0  4.021795  0
H  H8  1  0.13608145  0.90837268  0.51204269  1  0  0.098137  0  0.951087  0  0  0.10805  0  1.021297  0  0  0.110225  0  1.020128  0  0.082432  0  0.104713  0.106432  0  1.022079  0
H  H9  1  0.55621339  0.59131837  0.98813489  1  0  0.096699  0  0.952635  0  0  0.106682  0  1.023083  0  0  0.108925  0  1.021816  0  0.088906  0  0.10445  0.104969  0  1.024013  0
H  H10  1  0.86389655  0.09162615  0.48795429  1  0  0.098066  0  0.951148  0  0  0.107984  0  1.021352  0  0  0.11016  0  1.020185  0  0.082129  0  0.104637  0.106364  0  1.022137  0
H  H11  1  0.44380003  0.40868556  0.01185961  1  0  0.096672  0  0.952637  0  0  0.106706  0  1.023077  0  0  0.108954  0  1.021806  0  0.088893  0  0.104443  0.104989  0  1.024009  0
H  H12  1  0.08879817  0.86477210  0.41997044  1  0  0.094803  0  0.934442  0  0  0.114522  0  0.98804  0  0  0.115698  0  0.987678  0  0.022289  0  0.109564  0.113544  0  0.988464  0
H  H13  1  0.37273720  0.63498457  0.08009881  1  0  0.093982  0  0.934588  0  0  0.113794  0  0.98826  0  0  0.114927  0  0.987952  0  0.021597  0  0.109746  0.112846  0  0.988644  0
H  H14  1  0.91117517  0.13522417  0.58003418  1  0  0.094796  0  0.934442  0  0  0.114465  0  0.988111  0  0  0.115642  0  0.98775  0  0.022473  0  0.109555  0.113487  0  0.988535  0
H  H15  1  0.62727748  0.36501681  0.91990040  1  0  0.093903  0  0.934615  0  0  0.113759  0  0.988283  0  0  0.114887  0  0.987975  0  0.021675  0  0.109753  0.112811  0  0.988666  0
H  H16  1  0.09875593  0.60990793  0.69685784  1  0  0.101292  0  0.939404  0  0  0.11974  0  0.994387  0  0  0.120359  0  0.995349  0  0.08906  0  0.111136  0.119164  0  0.993907  0
H  H17  1  0.40575658  0.88984021  0.80322010  1  0  0.100947  0  0.938796  0  0  0.119493  0  0.993713  0  0  0.120082  0  0.994803  0  0.059533  0  0.110865  0.118946  0  0.993136  0
H  H18  1  0.90125258  0.39009345  0.30313857  1  0  0.101214  0  0.939453  0  0  0.119671  0  0.994437  0  0  0.12029  0  0.995401  0  0.089031  0  0.111106  0.119093  0  0.993956  0
H  H19  1  0.59424594  0.11016287  0.19677832  1  0  0.100932  0  0.938835  0  0  0.119469  0  0.993789  0  0  0.120052  0  0.994877  0  0.05951  0  0.110844  0.118917  0  0.993211  0
H  H20  1  0.14302331  0.74606771  0.68867851  1  0  0.095332  0  0.960977  0  0  0.102772  0  1.034124  0  0  0.105207  0  1.032665  0  0.081983  0  0.103132  0.100965  0  1.03516  0
H  H21  1  0.57832484  0.75377587  0.81132358  1  0  0.095406  0  0.959786  0  0  0.10281  0  1.033185  0  0  0.105306  0  1.031702  0  0.114019  0  0.103407  0.100976  0  1.03422  0
H  H22  1  0.85697828  0.25393452  0.31132133  1  0  0.095312  0  0.960983  0  0  0.102735  0  1.034152  0  0  0.105169  0  1.032697  0  0.082004  0  0.103118  0.100933  0  1.035183  0
H  H23  1  0.42168702  0.24622381  0.18867196  1  0  0.095277  0  0.959857  0  0  0.102744  0  1.033205  0  0  0.105242  0  1.031719  0  0.114115  0  0.103378  0.100904  0  1.034243  0
H  H24  1  0.02267291  0.63640929  0.44070798  1  0  0.119899  0  0.912521  0  0  0.137092  0  0.966685  0  0  0.138835  0  0.965896  0  0.112456  0  0.11543  0.135762  0  0.96751  0
H  H25  1  0.09882871  0.86332011  0.05916866  1  0  0.119776  0  0.912422  0  0  0.137323  0  0.966042  0  0  0.139036  0  0.965327  0  0.068321  0  0.115394  0.136019  0  0.966815  0
H  H26  1  0.97731269  0.36358783  0.55929287  1  0  0.119854  0  0.912528  0  0  0.137053  0  0.966718  0  0  0.138795  0  0.965924  0  0.112674  0  0.11542  0.135731  0  0.967545  0
H  H27  1  0.90117914  0.13668468  0.94082942  1  0  0.11972  0  0.912452  0  0  0.137291  0  0.966085  0  0  0.139003  0  0.965373  0  0.068278  0  0.115371  0.135985  0  0.966858  0
H  H28  1  0.02729799  0.54493652  0.54902652  1  0  0.115195  0  0.952198  0  0  0.1291  0  1.0168  0  0  0.130734  0  1.016305  0  0.081149  0  0.113544  0.127911  0  1.01729  0
H  H29  1  0.12094385  0.95475709  0.95085576  1  0  0.115571  0  0.952163  0  0  0.129095  0  1.017221  0  0  0.130796  0  1.016623  0  0.112726  0  0.113603  0.127901  0  1.017728  0
H  H30  1  0.97269907  0.45505889  0.45097434  1  0  0.115209  0  0.952192  0  0  0.12912  0  1.016778  0  0  0.130759  0  1.016285  0  0.081213  0  0.11357  0.127938  0  1.017278  0
H  H31  1  0.87906887  0.04524344  0.04913693  1  0  0.115621  0  0.952112  0  0  0.129128  0  1.017223  0  0  0.13083  0  1.016623  0  0.112708  0  0.113594  0.127933  0  1.017731  0
H  H32  1  0.87254459  0.91597858  0.64723384  1  0  0.071663  0  0.900696  0  0  0.090683  0  0.954674  0  0  0.09069  0  0.954992  0  0.054141  0  0.120544  0.09054  0  0.954675  0
H  H33  1  0.43645213  0.58368095  0.85287472  1  0  0.072185  0  0.899937  0  0  0.091079  0  0.95414  0  0  0.091062  0  0.954517  0  0.061873  0  0.120641  0.090943  0  0.954096  0
H  H34  1  0.12745160  0.08401599  0.35276987  1  0  0.071633  0  0.900728  0  0  0.090658  0  0.954699  0  0  0.090657  0  0.955019  0  0.054013  0  0.120537  0.090514  0  0.9547  0
H  H35  1  0.56355782  0.41631532  0.14712172  1  0  0.072183  0  0.899819  0  0  0.090994  0  0.95414  0  0  0.091007  0  0.954481  0  0.061937  0  0.120591  0.090855  0  0.954086  0
H  H36  1  0.62489832  0.89784149  0.64302931  1  0  0.053847  0  0.931218  0  0  0.069628  0  0.994918  0  0  0.069885  0  0.994034  0  0.010374  0  0.11435  0.069318  0  0.995684  0
H  H37  1  0.16668588  0.60162034  0.85673984  1  0  0.053105  0  0.932608  0  0  0.068695  0  0.996464  0  0  0.068955  0  0.99563  0  0.03612  0  0.11386  0.068382  0  0.997193  0
H  H38  1  0.37509479  0.10214796  0.35697894  1  0  0.053835  0  0.931129  0  0  0.069615  0  0.994847  0  0  0.069861  0  0.993967  0  0.010587  0  0.114339  0.069303  0  0.995613  0
H  H39  1  0.83332589  0.39837848  0.14326078  1  0  0.052978  0  0.93272  0  0  0.06864  0  0.99649  0  0  0.068896  0  0.995665  0  0.036003  0  0.113856  0.06832  0  0.997216  0
H  H40  1  0.56897816  0.71296167  0.66120847  1  0  0.060253  0  0.925258  0  0  0.070111  0  1.000635  0  0  0.070981  0  0.998982  0  0.030159  0  0.111574  0.069547  0  1.001697  0
H  H41  1  0.94387290  0.78643370  0.83851386  1  0  0.061329  0  0.924188  0  0  0.071405  0  0.99931  0  0  0.072279  0  0.997683  0  0.050881  0  0.1123  0.070842  0  1.000319  0
H  H42  1  0.43102778  0.28702437  0.33879942  1  0  0.060108  0  0.925199  0  0  0.070014  0  1.000649  0  0  0.070883  0  0.998997  0  0.030106  0  0.111547  0.069452  0  1.001701  0
H  H43  1  0.05613212  0.21356513  0.16148603  1  0  0.061345  0  0.924126  0  0  0.071383  0  0.999385  0  0  0.072282  0  0.997725  0  0.050833  0  0.112333  0.070821  0  1.000394  0
H  H44  1  0.77635726  0.59034783  0.67431648  1  0  0.087519  0  0.903944  0  0  0.103461  0  0.960454  0  0  0.104848  0  0.958664  0  0.090456  0  0.1216  0.102372  0  0.961903  0
H  H45  1  0.04127589  0.90919581  0.82539363  1  0  0.087913  0  0.904757  0  0  0.103386  0  0.961886  0  0  0.104817  0  0.960053  0  0.121009  0  0.12162  0.102289  0  0.963319  0
H  H46  1  0.22365623  0.40964077  0.32568835  1  0  0.087381  0  0.903988  0  0  0.103307  0  0.960636  0  0  0.104689  0  0.958846  0  0.090684  0  0.121513  0.102217  0  0.962084  0
H  H47  1  0.95872600  0.09080386  0.17460440  1  0  0.087865  0  0.904736  0  0  0.103399  0  0.961889  0  0  0.104829  0  0.960062  0  0.120911  0  0.12162  0.102302  0  0.963315  0
H  H48  1  0.77134443  0.81768555  0.42510116  1  0  0.074283  0  0.911314  0  0  0.092379  0  0.968607  0  0  0.092686  0  0.968089  0  0.037681  0  0.12127  0.092096  0  0.969088  0
H  H49  1  0.01367013  0.68208986  0.07468508  1  0  0.074338  0  0.910439  0  0  0.092256  0  0.968072  0  0  0.092566  0  0.9675  0  0.039862  0  0.121253  0.091962  0  0.968597  0
H  H50  1  0.22863646  0.18230561  0.57490487  1  0  0.07429  0  0.911557  0  0  0.092391  0  0.968787  0  0  0.092696  0  0.968272  0  0.037752  0  0.121287  0.092106  0  0.969269  0
H  H51  1  0.98634448  0.31791493  0.92531373  1  0  0.07437  0  0.910385  0  0  0.092264  0  0.968047  0  0  0.092574  0  0.967471  0  0.039851  0  0.121233  0.091961  0  0.968584  0
H  H52  1  0.56486146  0.84559885  0.51553994  1  0  0.055509  0  0.921568  0  0  0.067315  0  0.994628  0  0  0.068279  0  0.992466  0  0.071215  0  0.110618  0.06681  0  0.995877  0
H  H53  1  0.92590063  0.65404619  0.98421323  1  0  0.055461  0  0.920208  0  0  0.067549  0  0.992941  0  0  0.068485  0  0.990749  0  0.055964  0  0.110935  0.067028  0  0.994256  0
H  H54  1  0.43512183  0.15438719  0.48447263  1  0  0.055495  0  0.921485  0  0  0.067257  0  0.994585  0  0  0.068221  0  0.992416  0  0.07149  0  0.110551  0.066751  0  0.995835  0
H  H55  1  0.07410685  0.34595349  0.01578968  1  0  0.05545  0  0.920222  0  0  0.067546  0  0.992946  0  0  0.068483  0  0.99075  0  0.055858  0  0.110919  0.067021  0  0.994267  0
H  H56  1  0.26779082  0.30840712  0.79695338  1  0  0.132811  0  0.967667  0  0  0.151398  0  1.027547  0  0  0.154163  0  1.02621  0  0.081568  0  0.092337  0.149365  0  1.02863  0
H  H57  1  0.37087582  0.19043300  0.70322008  1  0  0.133191  0  0.965815  0  0  0.151096  0  1.026406  0  0  0.15386  0  1.025036  0  0.059337  0  0.092271  0.149064  0  1.02752  0
H  H58  1  0.73220395  0.69159681  0.20304482  1  0  0.132794  0  0.967753  0  0  0.151392  0  1.027612  0  0  0.154156  0  1.026277  0  0.081125  0  0.092347  0.14936  0  1.028696  0
H  H59  1  0.62910429  0.80957520  0.29677534  1  0  0.133166  0  0.965996  0  0  0.151119  0  1.026523  0  0  0.153881  0  1.025161  0  0.059522  0  0.092276  0.149088  0  1.027636  0
H  H60  1  0.23290408  0.44949890  0.81086090  1  0  0.110507  0  0.973414  0  0  0.129178  0  1.039164  0  0  0.131273  0  1.038732  0  0.025496  0  0.08739  0.127681  0  1.039503  0
H  H61  1  0.49756893  0.05023508  0.68855507  1  0  0.110798  0  0.973731  0  0  0.129009  0  1.040143  0  0  0.131087  0  1.039764  0  0.023674  0  0.087292  0.127524  0  1.040447  0
H  H62  1  0.76706422  0.55051185  0.18913437  1  0  0.110406  0  0.973471  0  0  0.12907  0  1.039251  0  0  0.131165  0  1.038819  0  0.025532  0  0.087344  0.127573  0  1.039591  0
H  H63  1  0.50244406  0.94977908  0.31143392  1  0  0.110767  0  0.973838  0  0  0.128979  0  1.040259  0  0  0.13106  0  1.039878  0  0.024001  0  0.087235  0.127494  0  1.040562  0
H  H64  1  0.47749482  0.35389938  0.81657508  1  0  0.121359  0  0.959035  0  0  0.141334  0  1.018695  0  0  0.143386  0  1.018044  0  0.051216  0  0.088299  0.139838  0  1.019229  0
H  H65  1  0.64612151  0.14854259  0.68370696  1  0  0.121108  0  0.959185  0  0  0.142053  0  1.017377  0  0  0.144151  0  1.016656  0  0.047846  0  0.088542  0.140539  0  1.017947  0
H  H66  1  0.52248201  0.64611478  0.18343213  1  0  0.121279  0  0.959211  0  0  0.141288  0  1.018816  0  0  0.143337  0  1.018167  0  0.051208  0  0.088302  0.139791  0  1.019351  0
H  H67  1  0.35386248  0.85148179  0.31629913  1  0  0.121142  0  0.959317  0  0  0.142065  0  1.017529  0  0  0.144167  0  1.016807  0  0.047577  0  0.08855  0.140552  0  1.018098  0
C  C68  1  0.06172060  0.85107278  0.49398434  1  0  -0.182301  0  3.64235  0  0  -0.221163  0  3.904705  0  0  -0.221688  0  3.916863  0  -0.097519  0  -0.079782  -0.220468  0  3.896091  0
C  C69  1  0.40632517  0.64860719  0.00607228  1  0  -0.177458  0  3.641395  0  0  -0.216625  0  3.904755  0  0  -0.217008  0  3.916648  0  -0.099557  0  -0.078656  -0.216013  0  3.89631  0
C  C70  1  0.93826579  0.14891922  0.50601719  1  0  -0.182052  0  3.642085  0  0  -0.220955  0  3.904499  0  0  -0.221477  0  3.916657  0  -0.097552  0  -0.079665  -0.22026  0  3.895885  0
C  C71  1  0.59368979  0.35139674  0.99392667  1  0  -0.177268  0  3.641279  0  0  -0.216523  0  3.904713  0  0  -0.216904  0  3.916608  0  -0.099695  0  -0.078644  -0.215907  0  3.896255  0
C  C72  1  0.06679404  0.69898969  0.66028843  1  0  -0.178541  0  3.635637  0  0  -0.215387  0  3.893198  0  0  -0.215808  0  3.905324  0  -0.15402  0  -0.079878  -0.21492  0  3.884981  0
C  C73  1  0.42642508  0.80071244  0.83971843  1  0  -0.177678  0  3.635125  0  0  -0.214322  0  3.892009  0  0  -0.214909  0  3.9044  0  -0.15751  0  -0.080164  -0.213772  0  3.883617  0
C  C74  1  0.93321484  0.30100914  0.33970760  1  0  -0.17844  0  3.635419  0  0  -0.215307  0  3.893054  0  0  -0.215742  0  3.905199  0  -0.153949  0  -0.079853  -0.214838  0  3.884817  0
C  C75  1  0.57358492  0.19928553  0.16027996  1  0  -0.177524  0  3.635111  0  0  -0.214268  0  3.892086  0  0  -0.214845  0  3.904466  0  -0.157518  0  -0.080124  -0.213697  0  3.883663  0
C  C76  1  0.99561948  0.63424323  0.51348480  1  0  -0.182471  0  3.58187  0  0  -0.225423  0  3.837383  0  0  -0.225547  0  3.848616  0  -0.164961  0  -0.079547  -0.22555  0  3.83013  0
C  C77  1  0.14290428  0.86542225  0.98639774  1  0  -0.18345  0  3.583573  0  0  -0.225398  0  3.83717  0  0  -0.225846  0  3.849021  0  -0.127986  0  -0.079355  -0.22544  0  3.829763  0
C  C78  1  0.00437622  0.36575218  0.48651591  1  0  -0.182361  0  3.581805  0  0  -0.225388  0  3.83745  0  0  -0.225481  0  3.848608  0  -0.165035  0  -0.07952  -0.225523  0  3.830166  0
C  C79  1  0.85709688  0.13458083  0.01360053  1  0  -0.183451  0  3.583596  0  0  -0.225511  0  3.837382  0  0  -0.225955  0  3.849238  0  -0.127984  0  -0.079395  -0.225552  0  3.829974  0
C  C80  1  0.79175369  0.86551343  0.62495530  1  0  0.085807  0  3.662309  0  0  0.017288  0  3.926352  0  0  0.025279  0  3.936906  0  0.634793  0  0.022971  0.01186  0  3.919276  0
C  C81  1  0.28271633  0.63410519  0.87496333  1  0  0.086863  0  3.663796  0  0  0.019012  0  3.926873  0  0  0.026914  0  3.937682  0  0.601484  0  0.02384  0.013671  0  3.919606  0
C  C82  1  0.20823324  0.13448710  0.37504673  1  0  0.085923  0  3.662144  0  0  0.017374  0  3.926198  0  0  0.025391  0  3.936701  0  0.63431  0  0.023006  0.011944  0  3.919128  0
C  C83  1  0.71729644  0.36589278  0.12503678  1  0  0.087021  0  3.66388  0  0  0.019225  0  3.92689  0  0  0.027107  0  3.937703  0  0.601675  0  0.023908  0.013911  0  3.91958  0
C  C84  1  0.73555301  0.68075717  0.64203286  1  0  0.078574  0  3.623672  0  0  0.007607  0  3.88532  0  0  0.016053  0  3.894362  0  0.600857  0  0.017336  0.001795  0  3.879163  0
C  C85  1  0.05873686  0.81880948  0.85774916  1  0  0.077441  0  3.625792  0  0  0.006028  0  3.888907  0  0  0.01448  0  3.897892  0  0.548484  0  0.016763  0.000274  0  3.882717  0
C  C86  1  0.26445137  0.31923058  0.35797110  1  0  0.079117  0  3.623337  0  0  0.007908  0  3.885387  0  0  0.016358  0  3.894425  0  0.600993  0  0.017474  0.002104  0  3.879215  0
C  C87  1  0.94127180  0.18118849  0.14224909  1  0  0.077664  0  3.625419  0  0  0.006012  0  3.888981  0  0  0.014448  0  3.897953  0  0.548539  0  0.016709  0.000263  0  3.882785  0
C  C88  1  0.73155653  0.81173529  0.49834833  1  0  0.080231  0  3.650803  0  0  0.00554  0  3.920581  0  0  0.014142  0  3.930241  0  0.580142  0  0.018571  -0.000424  0  3.914009  0
C  C89  1  0.04137204  0.68797025  0.00144478  1  0  0.079904  0  3.648139  0  0  0.005213  0  3.917864  0  0  0.013999  0  3.927293  0  0.59213  0  0.017554  -0.000821  0  3.911358  0
C  C90  1  0.26843652  0.18825586  0.50165900  1  0  0.080233  0  3.651056  0  0  0.005635  0  3.920617  0  0  0.01424  0  3.930274  0  0.57925  0  0.018593  -0.000328  0  3.914044  0
C  C91  1  0.95864443  0.31202687  0.99855511  1  0  0.079843  0  3.648159  0  0  0.005256  0  3.917766  0  0  0.014044  0  3.927196  0  0.592173  0  0.017583  -0.000779  0  3.911258  0
C  C92  1  0.40339249  0.42078036  0.68173520  1  0  0.704912  0  3.901648  0  0  0.671956  0  4.182698  0  0  0.704605  0  4.179575  0  1.552765  0  0.17991  0.649691  0  4.183843  0
C  C93  1  0.50594288  0.07902605  0.81817945  1  0  0.706717  0  3.901579  0  0  0.672801  0  4.184079  0  0  0.705478  0  4.180897  0  1.547471  0  0.180147  0.650518  0  4.185271  0
C  C94  1  0.59660159  0.57922017  0.31826117  1  0  0.70482  0  3.901949  0  0  0.671809  0  4.183068  0  0  0.704455  0  4.179949  0  1.552885  0  0.179832  0.649545  0  4.184213  0
C  C95  1  0.49404643  0.92097618  0.18181622  1  0  0.706683  0  3.901108  0  0  0.672885  0  4.183469  0  0  0.705563  0  4.180287  0  1.547142  0  0.180234  0.650603  0  4.18466  0
C  C96  1  0.34285857  0.37940633  0.78266394  1  0  -0.4451  0  3.675261  0  0  -0.518648  0  3.904219  0  0  -0.526429  0  3.909085  0  -0.111152  0  -0.252984  -0.513075  0  3.900732  0
C  C97  1  0.50477507  0.12083039  0.71730557  1  0  -0.446044  0  3.675846  0  0  -0.519139  0  3.904781  0  0  -0.52698  0  3.909663  0  -0.076682  0  -0.252939  -0.513527  0  3.90125  0
C  C98  1  0.65712607  0.62060271  0.21733543  1  0  -0.444895  0  3.6756  0  0  -0.51845  0  3.90452  0  0  -0.526231  0  3.909393  0  -0.110742  0  -0.252965  -0.512876  0  3.90103  0
C  C99  1  0.49521446  0.87917866  0.28269789  1  0  -0.446004  0  3.676118  0  0  -0.519191  0  3.905059  0  0  -0.527016  0  3.909899  0  -0.076904  0  -0.252918  -0.513581  0  3.901531  0
N  N100  1  0.84353585  0.74657131  0.67312548  1  0  -0.240629  0  3.201784  0  0  -0.171289  0  3.460237  0  0  -0.186568  0  3.479043  0  -1.018756  0  -0.342365  -0.160666  0  3.447146  0
N  N101  1  0.26384893  0.75303112  0.82676287  1  0  -0.241364  0  3.202824  0  0  -0.172237  0  3.462051  0  0  -0.187434  0  3.480896  0  -1.017035  0  -0.342672  -0.161666  0  3.44892  0
N  N102  1  0.15646744  0.25342411  0.32687961  1  0  -0.240693  0  3.201875  0  0  -0.171277  0  3.460385  0  0  -0.18655  0  3.479168  0  -1.018768  0  -0.342392  -0.160661  0  3.447295  0
N  N103  1  0.73615844  0.24696685  0.17323666  1  0  -0.241476  0  3.202646  0  0  -0.172229  0  3.461894  0  0  -0.187432  0  3.480754  0  -1.016978  0  -0.342647  -0.161676  0  3.448758  0
N  N104  1  0.77885548  0.68964549  0.54287041  1  0  -0.211129  0  3.223896  0  0  -0.116748  0  3.47017  0  0  -0.134453  0  3.48945  0  -0.963174  0  -0.347294  -0.103363  0  3.456472  0
N  N105  1  0.01116097  0.81001915  0.95689780  1  0  -0.210895  0  3.224257  0  0  -0.116335  0  3.47001  0  0  -0.134127  0  3.489488  0  -0.966099  0  -0.346718  -0.102874  0  3.456196  0
N  N106  1  0.22113404  0.31034567  0.45713298  1  0  -0.211244  0  3.223828  0  0  -0.116791  0  3.470144  0  0  -0.134499  0  3.489438  0  -0.96327  0  -0.347333  -0.103394  0  3.45645  0
N  N107  1  0.98884568  0.18998223  0.04310197  1  0  -0.210912  0  3.224301  0  0  -0.116269  0  3.4701  0  0  -0.134062  0  3.489586  0  -0.966238  0  -0.346671  -0.102811  0  3.456286  0
N  N108  1  0.83864253  0.88097916  0.52610946  1  0  -0.244144  0  3.189665  0  0  -0.177052  0  3.454888  0  0  -0.191822  0  3.472533  0  -1.004224  0  -0.343254  -0.166878  0  3.442609  0
N  N109  1  0.24561277  0.61872467  0.97380839  1  0  -0.246444  0  3.191189  0  0  -0.179633  0  3.456606  0  0  -0.194496  0  3.474332  0  -1.010082  0  -0.343554  -0.169403  0  3.444298  0
N  N110  1  0.16134347  0.11902052  0.47389399  1  0  -0.244383  0  3.189661  0  0  -0.177191  0  3.454751  0  0  -0.191968  0  3.472387  0  -1.003537  0  -0.343237  -0.167019  0  3.442477  0
N  N111  1  0.75439727  0.38127841  0.02619298  1  0  -0.246564  0  3.191347  0  0  -0.179842  0  3.456882  0  0  -0.194709  0  3.474611  0  -1.010052  0  -0.343609  -0.169609  0  3.444552  0
O  O112  1  0.56188720  0.46165249  0.65499627  1  0  -0.649546  0  1.932965  0  0  -0.589823  0  2.169329  0  0  -0.617156  0  2.159162  0  -1.175964  0  -0.352405  -0.570574  0  2.175578  0
O  O113  1  0.67870421  0.03739469  0.84463538  1  0  -0.650902  0  1.933575  0  0  -0.590904  0  2.17063  0  0  -0.618268  0  2.160474  0  -1.176306  0  -0.352876  -0.571652  0  2.176884  0
O  O114  1  0.43811948  0.53835400  0.34500648  1  0  -0.649433  0  1.933317  0  0  -0.589684  0  2.169687  0  0  -0.617013  0  2.159519  0  -1.176228  0  -0.352284  -0.570438  0  2.175937  0
O  O115  1  0.32126822  0.96260499  0.15536519  1  0  -0.650976  0  1.933196  0  0  -0.591027  0  2.170237  0  0  -0.618398  0  2.160081  0  -1.176058  0  -0.35296  -0.571768  0  2.176486  0
O  O116  1  0.28498601  0.41295461  0.63131478  1  0  -0.649338  0  1.986606  0  0  -0.583788  0  2.238702  0  0  -0.612505  0  2.2279  0  -1.167276  0  -0.357334  -0.563535  0  2.24535  0
O  O117  1  0.32943201  0.08740140  0.86882889  1  0  -0.64913  0  1.985784  0  0  -0.583275  0  2.238466  0  0  -0.611924  0  2.227483  0  -1.168266  0  -0.356701  -0.563076  0  2.245227  0
O  O118  1  0.71501653  0.58704336  0.36868210  1  0  -0.649357  0  1.986431  0  0  -0.583805  0  2.238566  0  0  -0.612519  0  2.227755  0  -1.167209  0  -0.357365  -0.563551  0  2.245213  0
O  O119  1  0.67055862  0.91260764  0.13116898  1  0  -0.649042  0  1.985802  0  0  -0.583197  0  2.238396  0  0  -0.611847  0  2.22741  0  -1.168219  0  -0.356658  -0.563011  0  2.245185  0
