# generated using pymatgen
data_DyPH6(CO4)2
_symmetry_space_group_name_H-M   'P 1'
_cell_length_a   7.67424986
_cell_length_b   8.40041614
_cell_length_c   11.92898847
_cell_angle_alpha   93.04889118
_cell_angle_beta   89.99992233
_cell_angle_gamma   89.99992183
_symmetry_Int_Tables_number   1
_chemical_formula_structural   DyPH6(CO4)2
_chemical_formula_sum   'Dy4 P4 H24 C8 O32'
_cell_volume   767.93627099
_cell_formula_units_Z   4
loop_
 _symmetry_equiv_pos_site_id
 _symmetry_equiv_pos_as_xyz
  1  'x, y, z'
loop_
 _atom_site_type_symbol
 _atom_site_label
 _atom_site_symmetry_multiplicity
 _atom_site_fract_x
 _atom_site_fract_y
 _atom_site_fract_z
 _atom_site_occupancy
 _atom_site_hle17_bader_spin_density
 _atom_site_hle17_ddec_charge
 _atom_site_hle17_ddec_spin_density
 _atom_site_hle17_ddec_sum_bond_order
 _atom_site_hle17_magmom
 _atom_site_hse06_10hf_bader_spin_density
 _atom_site_hse06_10hf_ddec_charge
 _atom_site_hse06_10hf_ddec_spin_density
 _atom_site_hse06_10hf_ddec_sum_bond_order
 _atom_site_hse06_10hf_magmom
 _atom_site_hse06_bader_spin_density
 _atom_site_hse06_ddec_charge
 _atom_site_hse06_ddec_spin_density
 _atom_site_hse06_ddec_sum_bond_order
 _atom_site_hse06_magmom
 _atom_site_pbe_bader_spin_density
 _atom_site_pbe_cm5_charge
 _atom_site_pbe_ddec_charge
 _atom_site_pbe_ddec_spin_density
 _atom_site_pbe_ddec_sum_bond_order
 _atom_site_pbe_magmom
Dy  Dy0  1  0.77583451  0.25264276  0.08107617  1  0  2.277251  0  1.614645  0  0  2.124785  0  2.087746  0  0  2.250102  0  1.896126  0  0  1.519511  2.093933  0  2.113509  0
Dy  Dy1  1  0.27583480  0.24735676  0.41892392  1  0  2.277266  0  1.614568  0  0  2.124807  0  2.087644  0  0  2.250114  0  1.896045  0  0  1.519506  2.09397  0  2.113375  0
Dy  Dy2  1  0.22416892  0.74735818  0.91892204  1  0  2.277275  0  1.614487  0  0  2.124793  0  2.087599  0  0  2.250134  0  1.895953  0  0  1.51951  2.093977  0  2.113294  0
Dy  Dy3  1  0.72416733  0.75264183  0.58107840  1  0  2.277286  0  1.61449  0  0  2.124841  0  2.087564  0  0  2.250149  0  1.895962  0  0  1.519523  2.094019  0  2.113266  0
P  P4  1  0.98019270  0.88135475  0.15993810  1  0  1.225983  0  4.544725  0  0  1.045044  0  5.010922  0  0  1.08629  0  4.994683  0  0  0.225013  1.016877  0  5.027355  0
P  P5  1  0.48019335  0.61864267  0.34006218  1  0  1.225956  0  4.544615  0  0  1.045048  0  5.010792  0  0  1.08629  0  4.994558  0  0  0.225041  1.016882  0  5.027223  0
P  P6  1  0.01980292  0.11863904  0.84005985  1  0  1.225951  0  4.544609  0  0  1.045045  0  5.010796  0  0  1.086295  0  4.994556  0  0  0.225033  1.016879  0  5.027228  0
P  P7  1  0.51980487  0.38135949  0.65994026  1  0  1.225897  0  4.544712  0  0  1.044985  0  5.010893  0  0  1.086239  0  4.994646  0  0  0.224997  1.016813  0  5.027336  0
H  H8  1  0.64805233  0.33395135  0.31710520  1  0  0.443611  0  0.853455  0  0  0.414353  0  0.913601  0  0  0.424707  0  0.898946  0  0  0.308679  0.406916  0  0.924485  0
H  H9  1  0.14805324  0.16604714  0.18289496  1  0  0.443633  0  0.853422  0  0  0.414369  0  0.913578  0  0  0.424723  0  0.898924  0  0  0.30869  0.406932  0  0.924463  0
H  H10  1  0.35194458  0.66604722  0.68289544  1  0  0.443635  0  0.853416  0  0  0.414377  0  0.913563  0  0  0.424731  0  0.898908  0  0  0.308693  0.40694  0  0.924447  0
H  H11  1  0.85194498  0.83395262  0.81710488  1  0  0.443618  0  0.853427  0  0  0.414361  0  0.913576  0  0  0.424715  0  0.898919  0  0  0.308682  0.406924  0  0.92446  0
H  H12  1  0.82043017  0.22073957  0.32679743  1  0  0.449374  0  0.846296  0  0  0.419675  0  0.906153  0  0  0.431757  0  0.888662  0  0  0.304937  0.411456  0  0.918107  0
H  H13  1  0.32043093  0.27925989  0.17320262  1  0  0.449383  0  0.846281  0  0  0.419685  0  0.906134  0  0  0.431767  0  0.888642  0  0  0.30494  0.411467  0  0.918086  0
H  H14  1  0.17956545  0.77925900  0.67320237  1  0  0.449355  0  0.846329  0  0  0.419658  0  0.906178  0  0  0.43174  0  0.888688  0  0  0.304922  0.411439  0  0.918131  0
H  H15  1  0.67956469  0.72073988  0.82679722  1  0  0.449343  0  0.846347  0  0  0.419639  0  0.90621  0  0  0.431721  0  0.888719  0  0  0.304914  0.41142  0  0.918163  0
H  H16  1  0.99437282  0.47238214  0.22546856  1  0  0.4523  0  0.836068  0  0  0.421852  0  0.898551  0  0  0.433492  0  0.881364  0  0  0.306683  0.413881  0  0.9104  0
H  H17  1  0.49437114  0.02761829  0.27453221  1  0  0.452292  0  0.836081  0  0  0.421842  0  0.898568  0  0  0.433483  0  0.88138  0  0  0.306682  0.413871  0  0.910417  0
H  H18  1  0.00562540  0.52761763  0.77453212  1  0  0.452253  0  0.836143  0  0  0.421796  0  0.89864  0  0  0.433437  0  0.881453  0  0  0.306666  0.413825  0  0.91049  0
H  H19  1  0.50562448  0.97238266  0.72546768  1  0  0.452231  0  0.83618  0  0  0.421779  0  0.898669  0  0  0.43342  0  0.881482  0  0  0.306661  0.413808  0  0.910519  0
H  H20  1  0.97995974  0.56143009  0.11036155  1  0  0.454692  0  0.833926  0  0  0.426466  0  0.89194  0  0  0.437038  0  0.876696  0  0  0.310784  0.419212  0  0.902531  0
H  H21  1  0.47996111  0.93856852  0.38963878  1  0  0.454675  0  0.833948  0  0  0.426452  0  0.891958  0  0  0.437023  0  0.876714  0  0  0.310772  0.419198  0  0.902549  0
H  H22  1  0.02003848  0.43857206  0.88963838  1  0  0.454695  0  0.833928  0  0  0.42647  0  0.891938  0  0  0.437043  0  0.876693  0  0  0.310779  0.419217  0  0.902529  0
H  H23  1  0.52003711  0.06143005  0.61036102  1  0  0.454668  0  0.833957  0  0  0.426445  0  0.891967  0  0  0.437016  0  0.876724  0  0  0.310777  0.419191  0  0.902558  0
H  H24  1  0.82635875  0.83543738  0.21453620  1  0  -0.09151  0  0.87342  0  0  -0.061238  0  0.954876  0  0  -0.063054  0  0.950597  0  0  0.098576  -0.059906  0  0.957391  0
H  H25  1  0.32635814  0.66456382  0.28546434  1  0  -0.091487  0  0.873393  0  0  -0.061219  0  0.954848  0  0  -0.063035  0  0.95057  0  0  0.098582  -0.059888  0  0.957364  0
H  H26  1  0.17363687  0.16455760  0.78546096  1  0  -0.091488  0  0.873407  0  0  -0.061238  0  0.954889  0  0  -0.063057  0  0.95061  0  0  0.098583  -0.059904  0  0.9574  0
H  H27  1  0.67363748  0.33543954  0.71453982  1  0  -0.091474  0  0.873428  0  0  -0.061227  0  0.954913  0  0  -0.063047  0  0.950633  0  0  0.098594  -0.059895  0  0.957423  0
H  H28  1  0.11383954  0.86701596  0.24054592  1  0  -0.100796  0  0.873175  0  0  -0.072056  0  0.95957  0  0  -0.073817  0  0.954833  0  0  0.096633  -0.070895  0  0.962759  0
H  H29  1  0.61383906  0.63298076  0.25945549  1  0  -0.100776  0  0.873174  0  0  -0.072041  0  0.959566  0  0  -0.073803  0  0.95483  0  0  0.096638  -0.07088  0  0.962754  0
H  H30  1  0.88615868  0.13298021  0.75945128  1  0  -0.100794  0  0.873184  0  0  -0.072048  0  0.95956  0  0  -0.073809  0  0.954821  0  0  0.09663  -0.070888  0  0.962749  0
H  H31  1  0.38615786  0.36702022  0.74054858  1  0  -0.100782  0  0.873157  0  0  -0.07204  0  0.959542  0  0  -0.0738  0  0.954803  0  0  0.096633  -0.070881  0  0.962731  0
C  C32  1  0.56893889  0.53082631  0.95963585  1  0  0.558658  0  3.935235  0  0  0.514601  0  4.230896  0  0  0.544172  0  4.228803  0  0  0.222508  0.4944  0  4.236771  0
C  C33  1  0.06893574  0.96917389  0.54036305  1  0  0.558599  0  3.935272  0  0  0.514611  0  4.230845  0  0  0.544175  0  4.228758  0  0  0.222474  0.494418  0  4.236712  0
C  C34  1  0.43107106  0.46918058  0.04036004  1  0  0.558366  0  3.935199  0  0  0.514393  0  4.23082  0  0  0.543953  0  4.228739  0  0  0.222436  0.494218  0  4.23667  0
C  C35  1  0.93107160  0.03081993  0.45963994  1  0  0.558308  0  3.935346  0  0  0.514291  0  4.231006  0  0  0.54385  0  4.228925  0  0  0.222365  0.494105  0  4.236864  0
C  C36  1  0.48596071  0.97265649  0.06039779  1  0  0.568099  0  3.92248  0  0  0.524136  0  4.217885  0  0  0.55439  0  4.214897  0  0  0.219215  0.503415  0  4.224587  0
C  C37  1  0.98595870  0.52734568  0.43960014  1  0  0.567979  0  3.922559  0  0  0.524039  0  4.217913  0  0  0.55429  0  4.214931  0  0  0.219205  0.50332  0  4.224611  0
C  C38  1  0.51404011  0.02735397  0.93959656  1  0  0.568026  0  3.922071  0  0  0.524086  0  4.217448  0  0  0.554338  0  4.214463  0  0  0.219234  0.503365  0  4.224148  0
C  C39  1  0.01403821  0.47264576  0.56040277  1  0  0.567997  0  3.922368  0  0  0.524063  0  4.21771  0  0  0.554314  0  4.214728  0  0  0.219252  0.503343  0  4.224408  0
O  O40  1  0.71737038  0.46854997  0.96039504  1  0  -0.620019  0  2.061233  0  0  -0.573405  0  2.306704  0  0  -0.604514  0  2.29582  0  0  -0.345521  -0.5582  0  2.311889  0
O  O41  1  0.21736789  0.03144233  0.53960301  1  0  -0.619994  0  2.061287  0  0  -0.573413  0  2.306732  0  0  -0.604517  0  2.295852  0  0  -0.345495  -0.558212  0  2.311908  0
O  O42  1  0.28263826  0.53144021  0.03959776  1  0  -0.619785  0  2.061351  0  0  -0.573219  0  2.306792  0  0  -0.604327  0  2.295915  0  0  -0.345404  -0.558022  0  2.311956  0
O  O43  1  0.78263685  0.96855985  0.46040194  1  0  -0.61981  0  2.061274  0  0  -0.573232  0  2.306737  0  0  -0.604335  0  2.295859  0  0  -0.345417  -0.558032  0  2.311906  0
O  O44  1  0.51780293  0.64152341  0.89789778  1  0  -0.683544  0  2.116327  0  0  -0.624182  0  2.352498  0  0  -0.660064  0  2.34301  0  0  -0.34865  -0.605846  0  2.356605  0
O  O45  1  0.01779981  0.85847926  0.60210461  1  0  -0.683495  0  2.116197  0  0  -0.624171  0  2.35235  0  0  -0.660047  0  2.342866  0  0  -0.348622  -0.605837  0  2.356453  0
O  O46  1  0.48221093  0.35847874  0.10210298  1  0  -0.683528  0  2.116088  0  0  -0.624218  0  2.352264  0  0  -0.660095  0  2.342779  0  0  -0.348739  -0.605883  0  2.356364  0
O  O47  1  0.98220753  0.14151813  0.39789767  1  0  -0.683448  0  2.116155  0  0  -0.624119  0  2.352339  0  0  -0.659994  0  2.342858  0  0  -0.348666  -0.605784  0  2.356439  0
O  O48  1  0.58561277  0.03420674  0.13555541  1  0  -0.663795  0  2.110495  0  0  -0.606569  0  2.348527  0  0  -0.639865  0  2.337513  0  0  -0.339094  -0.589523  0  2.35407  0
O  O49  1  0.08561024  0.46580256  0.36444434  1  0  -0.663748  0  2.110466  0  0  -0.606533  0  2.348484  0  0  -0.639824  0  2.337474  0  0  -0.339127  -0.589491  0  2.354026  0
O  O50  1  0.41438806  0.96580613  0.86444404  1  0  -0.663766  0  2.110385  0  0  -0.606547  0  2.348405  0  0  -0.63984  0  2.337392  0  0  -0.33918  -0.589507  0  2.353947  0
O  O51  1  0.91438667  0.53418886  0.63555689  1  0  -0.663733  0  2.110447  0  0  -0.606516  0  2.34846  0  0  -0.639804  0  2.337447  0  0  -0.339163  -0.589476  0  2.354002  0
O  O52  1  0.36676085  0.87213288  0.07478553  1  0  -0.675155  0  2.08029  0  0  -0.62969  0  2.333777  0  0  -0.663818  0  2.322641  0  0  -0.37433  -0.613112  0  2.338538  0
O  O53  1  0.86675742  0.62787185  0.42521594  1  0  -0.675127  0  2.080323  0  0  -0.629675  0  2.333798  0  0  -0.6638  0  2.322664  0  0  -0.374336  -0.613096  0  2.338557  0
O  O54  1  0.63324519  0.12788475  0.92521242  1  0  -0.675166  0  2.079958  0  0  -0.629708  0  2.333451  0  0  -0.663835  0  2.322315  0  0  -0.374342  -0.613125  0  2.338213  0
O  O55  1  0.13324080  0.37211601  0.57478516  1  0  -0.675163  0  2.080187  0  0  -0.629716  0  2.333675  0  0  -0.663842  0  2.322543  0  0  -0.374349  -0.613135  0  2.338435  0
O  O56  1  0.96843584  0.05797250  0.13499076  1  0  -0.872285  0  2.073781  0  0  -0.786214  0  2.350662  0  0  -0.823528  0  2.331587  0  0  -0.441495  -0.768726  0  2.362271  0
O  O57  1  0.46843465  0.44202677  0.36500998  1  0  -0.872289  0  2.073752  0  0  -0.786233  0  2.350633  0  0  -0.823544  0  2.331557  0  0  -0.44153  -0.768748  0  2.362239  0
O  O58  1  0.03155978  0.94202368  0.86500728  1  0  -0.872324  0  2.073838  0  0  -0.786267  0  2.350712  0  0  -0.823586  0  2.331638  0  0  -0.441523  -0.768785  0  2.362315  0
O  O59  1  0.53156227  0.55797421  0.63499409  1  0  -0.872275  0  2.07387  0  0  -0.786216  0  2.350738  0  0  -0.823529  0  2.331664  0  0  -0.441491  -0.768732  0  2.362338  0
O  O60  1  0.01192887  0.76211438  0.06092416  1  0  -0.857572  0  2.036623  0  0  -0.772051  0  2.302234  0  0  -0.807891  0  2.282717  0  0  -0.437866  -0.754587  0  2.313033  0
O  O61  1  0.51192915  0.73788486  0.43907659  1  0  -0.857576  0  2.036555  0  0  -0.772091  0  2.302199  0  0  -0.807918  0  2.282663  0  0  -0.437888  -0.754628  0  2.313  0
O  O62  1  0.98806935  0.23788062  0.93907552  1  0  -0.857526  0  2.036543  0  0  -0.772041  0  2.302199  0  0  -0.807872  0  2.282664  0  0  -0.437875  -0.75457  0  2.312993  0
O  O63  1  0.48807037  0.26211730  0.56092417  1  0  -0.857541  0  2.03656  0  0  -0.77204  0  2.302193  0  0  -0.807873  0  2.282668  0  0  -0.437879  -0.75457  0  2.31298  0
O  O64  1  0.73871666  0.27225629  0.27467097  1  0  -0.928638  0  1.872205  0  0  -0.875597  0  2.077424  0  0  -0.905635  0  2.038151  0  0  -0.665154  -0.862162  0  2.100456  0
O  O65  1  0.23871608  0.22774565  0.22532839  1  0  -0.928658  0  1.872154  0  0  -0.8756  0  2.077358  0  0  -0.905636  0  2.038085  0  0  -0.665152  -0.862164  0  2.100377  0
O  O66  1  0.26128156  0.72774585  0.72532811  1  0  -0.928639  0  1.872189  0  0  -0.875594  0  2.077413  0  0  -0.905635  0  2.03814  0  0  -0.665161  -0.862161  0  2.100433  0
O  O67  1  0.76128083  0.77225411  0.77467145  1  0  -0.928622  0  1.872225  0  0  -0.875589  0  2.077468  0  0  -0.905627  0  2.038197  0  0  -0.665153  -0.862153  0  2.100481  0
O  O68  1  0.93494299  0.47103981  0.15144960  1  0  -0.936613  0  1.869068  0  0  -0.889843  0  2.078397  0  0  -0.919708  0  2.035724  0  0  -0.660347  -0.877088  0  2.102257  0
O  O69  1  0.43494245  0.02895950  0.34855034  1  0  -0.93661  0  1.869096  0  0  -0.889841  0  2.078423  0  0  -0.919705  0  2.035749  0  0  -0.660358  -0.877089  0  2.10228  0
O  O70  1  0.06505523  0.52895996  0.84855024  1  0  -0.936576  0  1.869126  0  0  -0.889794  0  2.078448  0  0  -0.919662  0  2.035776  0  0  -0.660324  -0.877045  0  2.102302  0
O  O71  1  0.56505317  0.97104026  0.65144950  1  0  -0.936528  0  1.869155  0  0  -0.889754  0  2.078473  0  0  -0.919617  0  2.035802  0  0  -0.660324  -0.877004  0  2.102328  0
