# generated using pymatgen
data_Co2H18C12O11
_symmetry_space_group_name_H-M   'P 1'
_cell_length_a   7.72943589
_cell_length_b   9.73836728
_cell_length_c   10.84399307
_cell_angle_alpha   98.19628476
_cell_angle_beta   110.87906452
_cell_angle_gamma   90.02313235
_symmetry_Int_Tables_number   1
_chemical_formula_structural   Co2H18C12O11
_chemical_formula_sum   'Co4 H36 C24 O22'
_cell_volume   753.70223789
_cell_formula_units_Z   2
loop_
 _symmetry_equiv_pos_site_id
 _symmetry_equiv_pos_as_xyz
  1  'x, y, z'
loop_
 _atom_site_type_symbol
 _atom_site_label
 _atom_site_symmetry_multiplicity
 _atom_site_fract_x
 _atom_site_fract_y
 _atom_site_fract_z
 _atom_site_occupancy
 _atom_site_hle17_ddec_charge
 _atom_site_hle17_ddec_spin_density
 _atom_site_hle17_ddec_sum_bond_order
 _atom_site_hle17_magmom
 _atom_site_hse06_10hf_ddec_charge
 _atom_site_hse06_10hf_ddec_spin_density
 _atom_site_hse06_10hf_ddec_sum_bond_order
 _atom_site_hse06_10hf_magmom
 _atom_site_hse06_ddec_charge
 _atom_site_hse06_ddec_spin_density
 _atom_site_hse06_ddec_sum_bond_order
 _atom_site_hse06_magmom
 _atom_site_pbe_cm5_charge
 _atom_site_pbe_ddec_charge
 _atom_site_pbe_ddec_spin_density
 _atom_site_pbe_ddec_sum_bond_order
 _atom_site_pbe_magmom
Co  Co0  1  0.65157212  0.06964369  0.95054574  1  1.164384  -2.841107  1.803896  -2.621  1.139883  -2.850803  2.195702  -2.686  1.211715  -2.88478  2.125217  -2.75  0.657782  1.080252  -2.818104  2.249636  -2.623
Co  Co1  1  0.70095816  0.43036729  0.04941053  1  1.164854  -2.8432  1.804848  -2.621  1.140255  -2.852707  2.196912  -2.686  1.212073  -2.88665  2.126326  -2.75  0.658103  1.080758  -2.820115  2.250837  -2.624
Co  Co2  1  0.34842210  0.93040850  0.04946132  1  1.16402  -2.840889  1.804018  -2.62  1.139584  -2.85077  2.195872  -2.686  1.211454  -2.884764  2.125349  -2.75  0.657552  1.079982  -2.818048  2.249754  -2.623
Co  Co3  1  0.29900659  0.56960403  0.95061131  1  1.164981  -2.843422  1.805051  -2.621  1.140114  -2.852706  2.197112  -2.686  1.211925  -2.886649  2.126543  -2.75  0.658097  1.080639  -2.820136  2.251017  -2.624
H  H4  1  0.38771051  0.60628114  0.58802164  1  0.077603  -0.000118  0.975588  0.0  0.092072  -9.6e-05  1.044396  0.0  0.093471  -4.5e-05  1.044064  0.0  0.090867  0.090953  -0.000165  1.044805  0.0
H  H5  1  0.80032114  0.89380902  0.41205062  1  0.077538  -0.000113  0.976259  0.0  0.092356  -9.5e-05  1.044372  0.0  0.093776  -4.5e-05  1.044011  0.0  0.090603  0.091245  -0.000162  1.044777  0.0
H  H6  1  0.61228655  0.39371397  0.41198652  1  0.07756  -0.000116  0.975653  0.0  0.092067  -9.6e-05  1.044409  0.0  0.093467  -4.5e-05  1.044073  0.0  0.090836  0.090944  -0.000165  1.044821  0.0
H  H7  1  0.19973313  0.10620996  0.58795488  1  0.077437  -0.000115  0.976181  0.0  0.092208  -9.5e-05  1.044397  0.0  0.093616  -4.5e-05  1.044047  0.0  0.090477  0.091097  -0.000162  1.044803  0.0
H  H8  1  0.62722998  0.60658310  0.60636801  1  0.086219  -5.4e-05  0.946856  0.0  0.102431  -8.1e-05  1.007863  0.0  0.104601  -5.4e-05  1.00674  0.0  0.091556  0.100748  -0.000126  1.008965  0.0
H  H9  1  0.02130741  0.89336085  0.39350142  1  0.085879  -4.8e-05  0.948725  0.0  0.102236  -7.8e-05  1.009158  0.0  0.104342  -5.2e-05  1.008081  0.0  0.091298  0.100619  -0.000114  1.010192  0.0
H  H10  1  0.37276269  0.39340890  0.39364140  1  0.086212  -5.2e-05  0.947048  0.0  0.102418  -8.1e-05  1.008014  0.0  0.104587  -5.4e-05  1.006893  0.0  0.091546  0.100738  -0.000126  1.009113  0.0
H  H11  1  0.97868921  0.10664554  0.60648496  1  0.085922  -4.9e-05  0.948961  0.0  0.102292  -7.8e-05  1.009369  0.0  0.104396  -5.2e-05  1.008292  0.0  0.091337  0.100675  -0.000114  1.010402  0.0
H  H12  1  0.58660317  0.80832271  0.48060015  1  0.071529  1.7e-05  0.959229  0.0  0.092085  2e-06  1.017037  0.0  0.09218  9e-06  1.018771  0.0  0.090139  0.091891  0.0  1.015893  0.0
H  H13  1  0.10623369  0.69164597  0.51939912  1  0.071862  8e-06  0.959066  0.0  0.092349  1e-06  1.017018  0.0  0.092435  7e-06  1.018769  0.0  0.090136  0.092161  -4e-06  1.015889  0.0
H  H14  1  0.41341214  0.19167552  0.51940847  1  0.071474  1.9e-05  0.959225  0.0  0.092062  2e-06  1.016996  0.0  0.09216  9e-06  1.018724  0.0  0.090092  0.091868  -0.0  1.015855  0.0
H  H15  1  0.89379179  0.30837823  0.48061161  1  0.071793  1.7e-05  0.959181  0.0  0.092294  0.0  1.017045  0.0  0.092378  7e-06  1.0188  0.0  0.090098  0.092101  -4e-06  1.015914  0.0
H  H16  1  0.34719255  0.75384166  0.40703889  1  0.088249  -5.6e-05  0.956054  0.0  0.102249  -2.6e-05  1.0173  0.0  0.104385  -3e-06  1.016646  0.0  0.087974  0.100595  -5.3e-05  1.017922  0.0
H  H17  1  0.94051924  0.74632602  0.59301189  1  0.088015  -5.9e-05  0.956142  0.0  0.101861  -2e-05  1.017607  0.0  0.103973  1e-06  1.016954  0.0  0.087693  0.100243  -4.9e-05  1.018193  0.0
H  H18  1  0.65280036  0.24615343  0.59296728  1  0.08821  -5.4e-05  0.95602  0.0  0.102192  -2.6e-05  1.017301  0.0  0.10433  -3e-06  1.016645  0.0  0.087936  0.100538  -5.2e-05  1.017929  0.0
H  H19  1  0.05949898  0.25369404  0.40700200  1  0.08803  -5.4e-05  0.956124  0.0  0.101826  -2e-05  1.017622  0.0  0.103945  1e-06  1.016975  0.0  0.087645  0.100201  -4.9e-05  1.018219  0.0
H  H20  1  0.29127300  0.89213333  0.60237574  1  0.0808  -6.4e-05  0.95296  0.0  0.099781  -3.4e-05  1.01298  0.0  0.100734  -1.2e-05  1.013329  0.0  0.093703  0.099059  -6e-05  1.012867  0.0
H  H21  1  0.68891200  0.60824233  0.39786123  1  0.080743  -6.3e-05  0.952855  0.0  0.099723  -3.4e-05  1.012573  0.0  0.100673  -1.2e-05  1.012943  0.0  0.093688  0.099023  -6.3e-05  1.012408  0.0
H  H22  1  0.70872824  0.10786176  0.39762980  1  0.080843  -6.3e-05  0.953  0.0  0.099817  -3.4e-05  1.012976  0.0  0.10077  -1.2e-05  1.013323  0.0  0.093721  0.099094  -5.9e-05  1.012863  0.0
H  H23  1  0.31110875  0.39177465  0.60215754  1  0.080675  -6.5e-05  0.952655  0.0  0.09973  -3.4e-05  1.012339  0.0  0.100679  -1.2e-05  1.012711  0.0  0.093656  0.099016  -6.3e-05  1.012198  0.0
H  H24  1  0.49744386  0.99309679  0.62784699  1  0.092466  7.9e-05  0.95803  0.0  0.10552  9.6e-05  1.02492  0.0  0.107441  0.000113  1.024272  0.0  0.094565  0.104147  8.8e-05  1.025451  0.0
H  H25  1  0.86922499  0.50696803  0.37226723  1  0.092219  7.6e-05  0.958238  0.0  0.104964  9.9e-05  1.025373  0.0  0.106853  0.000116  1.024738  0.0  0.094423  0.103616  8.1e-05  1.025873  0.0
H  H26  1  0.50257778  0.00691178  0.37215531  1  0.092574  7.8e-05  0.957981  0.0  0.105508  9.5e-05  1.024981  0.0  0.107414  0.000113  1.024348  0.0  0.094511  0.104131  8.7e-05  1.025511  0.0
H  H27  1  0.13080245  0.49304474  0.62774261  1  0.09209  7.6e-05  0.95836  0.0  0.104904  9.9e-05  1.025443  0.0  0.106794  0.000116  1.024806  0.0  0.094443  0.10356  8.1e-05  1.025936  0.0
H  H28  1  0.86822786  0.25848250  0.91970200  1  0.437818  0.000973  0.864607  0.002  0.406527  0.000299  0.92863  0.0  0.41953  0.000465  0.910183  0.0  0.298649  0.396924  0.000177  0.942239  0.0
H  H29  1  0.94850191  0.24155894  0.08020362  1  0.438777  0.000983  0.863002  0.002  0.407153  0.000308  0.927711  0.0  0.420186  0.000472  0.909198  0.0  0.298947  0.397543  0.000187  0.941341  0.0
H  H30  1  0.13179110  0.74148759  0.08028842  1  0.437775  0.000976  0.864699  0.002  0.406452  0.000301  0.92877  0.0  0.419458  0.000467  0.910319  0.0  0.29866  0.396857  0.000179  0.942363  0.0
H  H31  1  0.05149287  0.75842147  0.91977910  1  0.438734  0.000984  0.863099  0.002  0.407146  0.000308  0.927749  0.0  0.420181  0.000473  0.909234  0.0  0.298933  0.397535  0.000189  0.94138  0.0
H  H32  1  0.98526322  0.99759071  0.13154275  1  0.443797  -0.000569  0.85356  -0.001  0.412766  -0.000635  0.916887  -0.001  0.425227  -0.000384  0.898947  -0.001  0.2985  0.403559  -0.000877  0.930103  -0.002
H  H33  1  0.85347892  0.50240216  0.86820671  1  0.44427  -0.000584  0.853172  -0.001  0.413288  -0.000645  0.916364  -0.001  0.425751  -0.000392  0.898422  -0.001  0.298656  0.404083  -0.000891  0.92958  -0.002
H  H34  1  0.01471103  0.00241587  0.86847387  1  0.443715  -0.00057  0.853627  -0.001  0.412658  -0.000635  0.917024  -0.001  0.42512  -0.000384  0.899081  -0.001  0.298441  0.403442  -0.000878  0.930253  -0.002
H  H35  1  0.14642118  0.49758609  0.13170377  1  0.444546  -0.00058  0.852761  -0.001  0.413553  -0.000643  0.915982  -0.001  0.426013  -0.00039  0.898045  -0.001  0.298777  0.404343  -0.000888  0.929211  -0.002
H  H36  1  0.80885943  0.95275768  0.16932063  1  0.433296  -7.6e-05  0.831797  -0.001  0.410969  -0.000431  0.896929  -0.001  0.419186  -0.00022  0.886974  -0.001  0.315743  0.404935  -0.000622  0.903052  -0.001
H  H37  1  0.63965433  0.54766738  0.83079895  1  0.433027  -9.1e-05  0.831832  -0.001  0.410689  -0.00045  0.897043  -0.001  0.418896  -0.000233  0.887339  -0.001  0.315492  0.404671  -0.000638  0.903154  -0.001
H  H38  1  0.19116207  0.04724881  0.83068045  1  0.433284  -7.5e-05  0.83167  -0.001  0.41092  -0.00043  0.896895  -0.001  0.419136  -0.000218  0.887039  -0.001  0.315764  0.40489  -0.000621  0.903015  -0.001
H  H39  1  0.36041944  0.45243497  0.16925869  1  0.433124  -8.9e-05  0.831466  -0.001  0.410818  -0.000449  0.896598  -0.001  0.419027  -0.000232  0.887062  -0.001  0.315494  0.404793  -0.000637  0.902711  -0.001
C  C40  1  0.74956981  0.84104055  0.78647876  1  0.668103  0.002202  3.803735  0.002  0.614058  -0.002669  4.10787  -0.003  0.648913  -0.001798  4.10123  -0.002  0.224074  0.589355  -0.003713  4.111893  -0.004
C  C41  1  0.96317848  0.65886694  0.21355865  1  0.668176  0.002131  3.801979  0.001  0.613634  -0.002723  4.107279  -0.003  0.648481  -0.001831  4.100632  -0.003  0.224133  0.588956  -0.003765  4.111291  -0.004
C  C42  1  0.25040045  0.15896583  0.21350731  1  0.668235  0.002183  3.802713  0.002  0.613984  -0.002674  4.107106  -0.003  0.648839  -0.001801  4.100474  -0.002  0.2241  0.589291  -0.003721  4.111125  -0.004
C  C43  1  0.03682832  0.34112813  0.78644371  1  0.668304  0.002134  3.801807  0.002  0.613826  -0.002729  4.106966  -0.003  0.648673  -0.001836  4.10032  -0.003  0.224278  0.589147  -0.003772  4.110978  -0.004
C  C44  1  0.54378113  0.79343664  0.71626375  1  -0.158772  -0.005085  3.581324  -0.009  -0.124125  -0.003098  3.806822  -0.005  -0.136342  -0.002086  3.820789  -0.004  -0.020207  -0.115395  -0.004232  3.797764  -0.007
C  C45  1  0.82763477  0.70653705  0.28376103  1  -0.155487  -0.005075  3.579096  -0.009  -0.121856  -0.003095  3.804223  -0.005  -0.134035  -0.002084  3.818148  -0.004  -0.020137  -0.113126  -0.004232  3.795112  -0.007
C  C46  1  0.45620335  0.20657608  0.28373965  1  -0.158768  -0.005083  3.581019  -0.009  -0.124138  -0.0031  3.806614  -0.005  -0.136348  -0.002088  3.820557  -0.004  -0.020275  -0.115412  -0.004234  3.797557  -0.007
C  C47  1  0.17235241  0.29345378  0.71622654  1  -0.15525  -0.005078  3.579224  -0.009  -0.1216  -0.003094  3.804504  -0.005  -0.133772  -0.002083  3.818436  -0.004  -0.020096  -0.112877  -0.004231  3.795413  -0.007
C  C48  1  0.46269064  0.77805782  0.82293262  1  0.694801  0.019247  3.761538  0.013  0.648204  0.00366  4.064014  0.0  0.689169  0.002152  4.051696  -0.001  0.234709  0.617267  0.007448  4.073072  0.003
C  C49  1  0.63994319  0.72194196  0.17705623  1  0.692678  0.019187  3.76574  0.013  0.647608  0.003611  4.066103  0.0  0.688574  0.002114  4.053799  -0.001  0.234217  0.616643  0.0074  4.075148  0.003
C  C50  1  0.53730209  0.22193523  0.17707878  1  0.69508  0.019244  3.761747  0.013  0.648406  0.003661  4.064323  0.0  0.689377  0.00215  4.051995  -0.001  0.234636  0.617465  0.007451  4.07339  0.003
C  C51  1  0.36003254  0.27802390  0.82292349  1  0.692699  0.019197  3.765386  0.013  0.647421  0.00361  4.066026  0.0  0.688384  0.002112  4.053729  -0.001  0.234089  0.616459  0.007401  4.075077  0.003
C  C52  1  0.50969831  0.67174450  0.60023104  1  -0.151823  -0.000783  3.609947  -0.001  -0.20556  -0.000907  3.871375  -0.001  -0.205393  -0.000608  3.88205  -0.001  -0.171424  -0.205602  -0.001254  3.864324  -0.001
C  C53  1  0.90988350  0.82825235  0.39973886  1  -0.152775  -0.000775  3.613598  -0.001  -0.206154  -0.000864  3.873823  -0.001  -0.205973  -0.000579  3.884572  -0.001  -0.17076  -0.206207  -0.001204  3.866686  -0.001
C  C54  1  0.49029119  0.32826098  0.39977460  1  -0.151737  -0.00079  3.610073  -0.001  -0.205496  -0.000907  3.871459  -0.001  -0.205324  -0.000608  3.882125  -0.001  -0.171329  -0.205544  -0.001255  3.864413  -0.001
C  C55  1  0.09013832  0.17173963  0.60026605  1  -0.152743  -0.000766  3.613799  -0.001  -0.206195  -0.000864  3.874114  -0.001  -0.206003  -0.000579  3.884849  -0.001  -0.170725  -0.206242  -0.001205  3.866975  -0.001
C  C56  1  0.46430909  0.77888780  0.50188182  1  -0.116049  -0.000241  3.590108  0.0  -0.15195  -0.000144  3.848643  0.0  -0.153587  -6.4e-05  3.861153  0.0  -0.169797  -0.150469  -0.000221  3.839922  0.0
C  C57  1  0.96273733  0.72115642  0.49816129  1  -0.115907  -0.000214  3.591297  0.0  -0.152108  -0.000144  3.849769  0.0  -0.153721  -6.5e-05  3.862253  0.0  -0.169564  -0.150652  -0.000211  3.841059  0.0
C  C58  1  0.53569416  0.22111557  0.49811880  1  -0.115893  -0.000247  3.590315  0.0  -0.151802  -0.000144  3.848793  0.0  -0.153441  -6.3e-05  3.861306  0.0  -0.169696  -0.150319  -0.000221  3.840076  0.0
C  C59  1  0.03728429  0.27885329  0.50185589  1  -0.116028  -0.000241  3.591286  0.0  -0.152042  -0.000144  3.849605  0.0  -0.153667  -6.5e-05  3.8621  0.0  -0.169479  -0.15058  -0.000212  3.840885  0.0
C  C60  1  0.43684866  0.88750646  0.61120398  1  -0.133024  0.002086  3.556676  0.001  -0.185116  0.001022  3.814292  0.001  -0.184698  0.000851  3.824838  0.001  -0.159643  -0.185356  0.001319  3.807085  0.001
C  C61  1  0.82558836  0.61263669  0.38890682  1  -0.133783  0.002071  3.55719  0.001  -0.18491  0.001008  3.813853  0.001  -0.184512  0.000844  3.824447  0.001  -0.159766  -0.185132  0.001303  3.806589  0.001
C  C62  1  0.56315638  0.11250318  0.38880341  1  -0.133208  0.002084  3.556827  0.001  -0.185161  0.001023  3.814319  0.001  -0.184737  0.000852  3.824871  0.001  -0.15959  -0.185398  0.001322  3.807112  0.001
C  C63  1  0.17443483  0.38737618  0.61111761  1  -0.133588  0.002087  3.556991  0.001  -0.184922  0.001008  3.813774  0.001  -0.184527  0.000844  3.824371  0.001  -0.159758  -0.185129  0.001302  3.806503  0.001
O  O64  1  0.79024917  0.97147137  0.83263633  1  -0.646986  -0.028019  2.089238  -0.051  -0.599145  -0.020649  2.346615  -0.033  -0.63269  -0.0156  2.332806  -0.025  -0.31292  -0.57364  -0.025874  2.355897  -0.041
O  O65  1  0.95756074  0.52844640  0.16729216  1  -0.647338  -0.02807  2.089148  -0.051  -0.599586  -0.02063  2.346998  -0.033  -0.633115  -0.015585  2.333073  -0.025  -0.313004  -0.574061  -0.025912  2.356329  -0.041
O  O66  1  0.20977633  0.02851330  0.16736218  1  -0.647206  -0.028041  2.089092  -0.051  -0.599132  -0.020653  2.3464  -0.033  -0.632685  -0.015602  2.33259  -0.025  -0.312878  -0.573646  -0.025888  2.355697  -0.041
O  O67  1  0.04245028  0.47154637  0.83267411  1  -0.647458  -0.028059  2.08952  -0.051  -0.59967  -0.020623  2.347265  -0.033  -0.633194  -0.015581  2.333335  -0.025  -0.313196  -0.574155  -0.025897  2.356578  -0.041
O  O68  1  0.86759693  0.75074061  0.79589086  1  -0.577368  -0.008914  1.995501  -0.016  -0.523817  -0.006479  2.215589  -0.012  -0.548446  -0.004263  2.206074  -0.009  -0.294712  -0.506272  -0.00906  2.222134  -0.016
O  O69  1  0.07183976  0.74917051  0.20417801  1  -0.577072  -0.008984  1.995231  -0.017  -0.52341  -0.006519  2.215585  -0.012  -0.548029  -0.00429  2.206082  -0.009  -0.294435  -0.505825  -0.009118  2.222096  -0.016
O  O70  1  0.13237886  0.24927028  0.20415066  1  -0.57722  -0.00892  1.995076  -0.017  -0.523596  -0.006487  2.21521  -0.012  -0.548222  -0.00427  2.205709  -0.009  -0.294599  -0.506046  -0.009069  2.221745  -0.016
O  O71  1  0.92817196  0.25081519  0.79581893  1  -0.577103  -0.008984  1.994971  -0.017  -0.523462  -0.006523  2.215254  -0.012  -0.548084  -0.004294  2.205754  -0.009  -0.29442  -0.505881  -0.009121  2.221765  -0.016
O  O72  1  0.47893966  0.88608055  0.91060888  1  -0.670519  -0.048508  2.252597  -0.095  -0.637685  -0.040654  2.551559  -0.069  -0.677437  -0.032743  2.535245  -0.056  -0.306536  -0.6066  -0.048398  2.562103  -0.082
O  O73  1  0.56869379  0.61408609  0.08912754  1  -0.670063  -0.048484  2.254223  -0.095  -0.637527  -0.040677  2.552091  -0.069  -0.677387  -0.032769  2.535915  -0.056  -0.30632  -0.60645  -0.048455  2.562677  -0.082
O  O74  1  0.52106846  0.11395187  0.08938918  1  -0.670558  -0.048514  2.253051  -0.095  -0.637708  -0.040666  2.552062  -0.069  -0.677462  -0.032755  2.535751  -0.056  -0.306511  -0.606615  -0.048405  2.562581  -0.082
O  O75  1  0.43126563  0.38590475  0.91086305  1  -0.670125  -0.048548  2.253556  -0.095  -0.63737  -0.040703  2.551282  -0.069  -0.67725  -0.032784  2.535129  -0.056  -0.306205  -0.606285  -0.048499  2.561874  -0.082
O  O76  1  0.38430011  0.66302492  0.82003284  1  -0.608797  -0.034299  2.074994  -0.062  -0.572594  -0.02787  2.348129  -0.045  -0.605345  -0.021215  2.332958  -0.034  -0.290746  -0.547301  -0.035047  2.358826  -0.057
O  O77  1  0.56437854  0.83688842  0.18014522  1  -0.608144  -0.034314  2.075541  -0.062  -0.572383  -0.027893  2.347771  -0.045  -0.605237  -0.021219  2.332796  -0.034  -0.290226  -0.546973  -0.035091  2.358281  -0.057
O  O78  1  0.61572905  0.33695246  0.17996109  1  -0.609096  -0.034344  2.075429  -0.062  -0.572872  -0.02791  2.348684  -0.045  -0.60564  -0.021245  2.3335  -0.034  -0.29076  -0.547518  -0.035098  2.359282  -0.057
O  O79  1  0.43564959  0.16311505  0.81987010  1  -0.608011  -0.034332  2.07592  -0.062  -0.572228  -0.027903  2.348294  -0.045  -0.605075  -0.021228  2.333312  -0.034  -0.290188  -0.546809  -0.035103  2.35882  -0.057
O  O80  1  0.83064119  0.25005682  0.99997779  1  -0.873327  -0.048974  2.094755  -0.101  -0.844281  -0.043607  2.344409  -0.075  -0.8794  -0.034899  2.299945  -0.062  -0.552803  -0.816675  -0.051284  2.37654  -0.087
O  O81  1  0.16934098  0.74994237  0.00001875  1  -0.87331  -0.048956  2.094761  -0.101  -0.84423  -0.043588  2.344392  -0.075  -0.879359  -0.034883  2.299941  -0.062  -0.55281  -0.816642  -0.051267  2.376547  -0.087
O  O82  1  0.84610899  0.99155299  0.10414891  1  -0.839738  -0.031067  1.966792  -0.055  -0.805071  -0.027707  2.185379  -0.045  -0.833478  -0.021301  2.153744  -0.036  -0.576243  -0.781626  -0.034466  2.206312  -0.055
O  O83  1  0.74157599  0.50791162  0.89543274  1  -0.840171  -0.030951  1.96627  -0.055  -0.805399  -0.027593  2.184914  -0.045  -0.833719  -0.021223  2.153338  -0.036  -0.576408  -0.781929  -0.034351  2.205774  -0.055
O  O84  1  0.15387755  0.00844820  0.89583701  1  -0.839609  -0.031081  1.966534  -0.055  -0.804893  -0.027723  2.185112  -0.045  -0.833311  -0.021313  2.153577  -0.036  -0.576186  -0.781439  -0.034483  2.206014  -0.055
O  O85  1  0.25831910  0.49194896  0.10448199  1  -0.840368  -0.031004  1.965615  -0.055  -0.805666  -0.02763  2.184311  -0.045  -0.834042  -0.021248  2.152993  -0.036  -0.576419  -0.782223  -0.0344  2.205269  -0.055
