# generated using pymatgen
data_CuH5C5NCl
_symmetry_space_group_name_H-M   'P 1'
_cell_length_a   6.61065218
_cell_length_b   7.36492278
_cell_length_c   12.78077324
_cell_angle_alpha   89.99990353
_cell_angle_beta   98.82060337
_cell_angle_gamma   90.00042962
_symmetry_Int_Tables_number   1
_chemical_formula_structural   CuH5C5NCl
_chemical_formula_sum   'Cu4 H20 C20 N4 Cl4'
_cell_volume   614.89753485
_cell_formula_units_Z   4
loop_
 _symmetry_equiv_pos_site_id
 _symmetry_equiv_pos_as_xyz
  1  'x, y, z'
loop_
 _atom_site_type_symbol
 _atom_site_label
 _atom_site_symmetry_multiplicity
 _atom_site_fract_x
 _atom_site_fract_y
 _atom_site_fract_z
 _atom_site_occupancy
 _atom_site_hle17_bader_spin_density
 _atom_site_hle17_ddec_charge
 _atom_site_hle17_ddec_spin_density
 _atom_site_hle17_ddec_sum_bond_order
 _atom_site_hle17_magmom
 _atom_site_hse06_10hf_bader_spin_density
 _atom_site_hse06_10hf_ddec_charge
 _atom_site_hse06_10hf_ddec_spin_density
 _atom_site_hse06_10hf_ddec_sum_bond_order
 _atom_site_hse06_10hf_magmom
 _atom_site_hse06_bader_spin_density
 _atom_site_hse06_ddec_charge
 _atom_site_hse06_ddec_spin_density
 _atom_site_hse06_ddec_sum_bond_order
 _atom_site_hse06_magmom
 _atom_site_pbe_bader_spin_density
 _atom_site_pbe_cm5_charge
 _atom_site_pbe_ddec_charge
 _atom_site_pbe_ddec_spin_density
 _atom_site_pbe_ddec_sum_bond_order
 _atom_site_pbe_magmom
Cu  Cu0  1  0.04580947  0.13992632  0.59500271  1  0  0.560135  0  2.134771  0  0  0.528703  0  2.588617  0  0  0.519465  0  2.554554  0  0  0.503529  0.536386  0  2.61  0
Cu  Cu1  1  0.45420171  0.63993498  0.90500444  1  0  0.560079  0  2.134685  0  0  0.528672  0  2.588526  0  0  0.519457  0  2.554462  0  0  0.503557  0.536364  0  2.609926  0
Cu  Cu2  1  0.95420434  0.86007070  0.40500310  1  0  0.560131  0  2.1347  0  0  0.52875  0  2.588474  0  0  0.51955  0  2.554463  0  0  0.50356  0.536433  0  2.609867  0
Cu  Cu3  1  0.54578597  0.36005390  0.09498998  1  0  0.560211  0  2.134677  0  0  0.5288  0  2.588427  0  0  0.519544  0  2.554397  0  0  0.503596  0.536484  0  2.609834  0
H  H4  1  0.70158412  0.93376215  0.90294782  1  0  0.120324  0  0.9755  0  0  0.122644  0  1.049662  0  0  0.12817  0  1.046058  0  0  0.103034  0.118523  0  1.052499  0
H  H5  1  0.79841046  0.43377374  0.59704254  1  0  0.120339  0  0.975567  0  0  0.122645  0  1.049747  0  0  0.12818  0  1.046136  0  0  0.103049  0.118525  0  1.052586  0
H  H6  1  0.29840203  0.06623079  0.09704649  1  0  0.120404  0  0.975651  0  0  0.122653  0  1.049867  0  0  0.128211  0  1.046236  0  0  0.103073  0.118534  0  1.052703  0
H  H7  1  0.20159411  0.56621649  0.40295707  1  0  0.120366  0  0.975662  0  0  0.122616  0  1.049855  0  0  0.128168  0  1.046233  0  0  0.103046  0.118496  0  1.05269  0
H  H8  1  0.89580261  0.31121837  0.96221981  1  0  0.101529  0  0.944492  0  0  0.110906  0  1.006797  0  0  0.113433  0  1.004426  0  0  0.101438  0.108999  0  1.00865  0
H  H9  1  0.60420764  0.81121109  0.53778286  1  0  0.1016  0  0.944536  0  0  0.110873  0  1.006963  0  0  0.113398  0  1.004585  0  0  0.101409  0.108965  0  1.00882  0
H  H10  1  0.10420819  0.68879223  0.03779046  1  0  0.101524  0  0.944481  0  0  0.110889  0  1.006822  0  0  0.113411  0  1.004444  0  0  0.101413  0.108979  0  1.00868  0
H  H11  1  0.39579686  0.18879951  0.46221128  1  0  0.101547  0  0.94467  0  0  0.11084  0  1.007075  0  0  0.113363  0  1.004694  0  0  0.101344  0.10893  0  1.008933  0
H  H12  1  0.68181970  0.02243766  0.08668865  1  0  0.105421  0  0.953639  0  0  0.117686  0  1.01128  0  0  0.119492  0  1.011904  0  0  0.096562  0.116324  0  1.011042  0
H  H13  1  0.81816865  0.52245107  0.41330861  1  0  0.105358  0  0.953673  0  0  0.117638  0  1.011299  0  0  0.119444  0  1.011925  0  0  0.096519  0.116273  0  1.011064  0
H  H14  1  0.31816649  0.97755936  0.91330878  1  0  0.105398  0  0.953648  0  0  0.117671  0  1.011299  0  0  0.119477  0  1.011926  0  0  0.096547  0.116307  0  1.011064  0
H  H15  1  0.18184967  0.47754731  0.58668971  1  0  0.105491  0  0.953738  0  0  0.117775  0  1.011381  0  0  0.119582  0  1.012004  0  0  0.096592  0.116409  0  1.011149  0
H  H16  1  0.81190148  0.21260140  0.24376651  1  0  0.144868  0  0.978641  0  0  0.153606  0  1.04336  0  0  0.156055  0  1.042263  0  0  0.088194  0.151893  0  1.044047  0
H  H17  1  0.68807828  0.71261990  0.25624159  1  0  0.144939  0  0.978725  0  0  0.153661  0  1.04343  0  0  0.156107  0  1.042349  0  0  0.088282  0.151949  0  1.044121  0
H  H18  1  0.18806341  0.78736982  0.75624103  1  0  0.144906  0  0.978648  0  0  0.153681  0  1.043323  0  0  0.156122  0  1.042249  0  0  0.088307  0.151968  0  1.044013  0
H  H19  1  0.31195228  0.28737033  0.74375689  1  0  0.144932  0  0.978571  0  0  0.153668  0  1.043294  0  0  0.156107  0  1.042223  0  0  0.088304  0.151958  0  1.043972  0
H  H20  1  0.93064304  0.37116691  0.15763553  1  0  0.1381  0  0.949742  0  0  0.151715  0  1.006607  0  0  0.153417  0  1.006075  0  0  0.094617  0.150495  0  1.006965  0
H  H21  1  0.56933836  0.87119146  0.34237015  1  0  0.137953  0  0.949592  0  0  0.151624  0  1.006426  0  0  0.153341  0  1.005886  0  0  0.094568  0.150406  0  1.006784  0
H  H22  1  0.06934332  0.62882196  0.84237678  1  0  0.137918  0  0.950053  0  0  0.151639  0  1.006788  0  0  0.15334  0  1.006257  0  0  0.094627  0.150421  0  1.007143  0
H  H23  1  0.43067680  0.12881507  0.65761932  1  0  0.137904  0  0.950066  0  0  0.151587  0  1.00684  0  0  0.153287  0  1.006312  0  0  0.094621  0.15037  0  1.007199  0
C  C24  1  0.84235374  0.09027514  0.79458083  1  0  0.378081  0  3.755713  0  0  0.375856  0  4.007812  0  0  0.390121  0  4.025937  0  0  0.208358  0.366013  0  3.99594  0
C  C25  1  0.65765575  0.59027052  0.70542441  1  0  0.378121  0  3.755606  0  0  0.375902  0  4.007701  0  0  0.390165  0  4.025833  0  0  0.208424  0.36606  0  3.995834  0
C  C26  1  0.15766925  0.90974224  0.20542489  1  0  0.378211  0  3.755653  0  0  0.375987  0  4.007729  0  0  0.390253  0  4.025866  0  0  0.208422  0.366143  0  3.995867  0
C  C27  1  0.34233965  0.40974144  0.29457608  1  0  0.378159  0  3.755973  0  0  0.375901  0  4.008047  0  0  0.390165  0  4.026182  0  0  0.208302  0.366053  0  3.996173  0
C  C28  1  0.77615943  0.06375322  0.89232873  1  0  -0.184818  0  3.78027  0  0  -0.194479  0  4.028803  0  0  -0.207287  0  4.046825  0  0  -0.091392  -0.185847  0  4.017061  0
C  C29  1  0.72383281  0.56375047  0.60766349  1  0  -0.184863  0  3.780308  0  0  -0.19454  0  4.02884  0  0  -0.207353  0  4.04685  0  0  -0.091411  -0.185906  0  4.017112  0
C  C30  1  0.22383899  0.93627231  0.10766886  1  0  -0.184823  0  3.780485  0  0  -0.194433  0  4.028995  0  0  -0.207266  0  4.046986  0  0  -0.091393  -0.185805  0  4.017265  0
C  C31  1  0.27616705  0.43626420  0.39232560  1  0  -0.184918  0  3.780772  0  0  -0.194456  0  4.029192  0  0  -0.207288  0  4.047183  0  0  -0.091397  -0.185824  0  4.017455  0
C  C32  1  0.81442167  0.18533089  0.97334104  1  0  0.028725  0  3.708826  0  0  0.002911  0  3.970968  0  0  0.015037  0  3.981323  0  0  -0.064995  -0.00569  0  3.964226  0
C  C33  1  0.68556739  0.68533218  0.52666174  1  0  0.028798  0  3.708733  0  0  0.003084  0  3.970853  0  0  0.01521  0  3.981211  0  0  -0.064951  -0.005523  0  3.964122  0
C  C34  1  0.18557844  0.81467835  0.02666998  1  0  0.028643  0  3.708455  0  0  0.002849  0  3.970604  0  0  0.014971  0  3.980978  0  0  -0.06506  -0.005748  0  3.963863  0
C  C35  1  0.31444931  0.31466892  0.47332864  1  0  0.028785  0  3.708159  0  0  0.003053  0  3.97028  0  0  0.015188  0  3.980624  0  0  -0.064897  -0.005554  0  3.96354  0
C  C36  1  0.75858362  0.15138015  0.07614213  1  0  -0.08544  0  3.83594  0  0  -0.101129  0  4.119184  0  0  -0.102696  0  4.130513  0  0  -0.142599  -0.100036  0  4.111435  0
C  C37  1  0.74141376  0.65138501  0.42385801  1  0  -0.085469  0  3.835678  0  0  -0.10119  0  4.118964  0  0  -0.102769  0  4.130318  0  0  -0.142555  -0.100092  0  4.111214  0
C  C38  1  0.24141475  0.84861415  0.92385076  1  0  -0.085412  0  3.83541  0  0  -0.101159  0  4.118788  0  0  -0.10273  0  4.13012  0  0  -0.142579  -0.100064  0  4.111041  0
C  C39  1  0.25859862  0.34861744  0.57615629  1  0  -0.085488  0  3.83503  0  0  -0.101299  0  4.118445  0  0  -0.102861  0  4.129762  0  0  -0.142564  -0.100201  0  4.110689  0
C  C40  1  0.82563364  0.25871197  0.16405313  1  0  -0.274226  0  3.607295  0  0  -0.325694  0  3.882827  0  0  -0.319103  0  3.884823  0  0  -0.220859  -0.329839  0  3.881102  0
C  C41  1  0.67436176  0.75871260  0.33594281  1  0  -0.274119  0  3.607044  0  0  -0.325602  0  3.882564  0  0  -0.319049  0  3.884594  0  0  -0.220906  -0.329745  0  3.880835  0
C  C42  1  0.17432353  0.74127690  0.83594757  1  0  -0.274002  0  3.607193  0  0  -0.325596  0  3.882749  0  0  -0.319018  0  3.88476  0  0  -0.220964  -0.329739  0  3.881021  0
C  C43  1  0.32567333  0.24126269  0.66405132  1  0  -0.274067  0  3.607332  0  0  -0.325529  0  3.882902  0  0  -0.318952  0  3.884912  0  0  -0.221001  -0.329672  0  3.881154  0
N  N44  1  0.89963985  0.10496934  0.71267951  1  0  -0.456025  0  3.030473  0  0  -0.424482  0  3.333159  0  0  -0.432202  0  3.33329  0  0  -0.380262  -0.420292  0  3.333365  0
N  N45  1  0.60036521  0.60496563  0.78732537  1  0  -0.456007  0  3.030565  0  0  -0.424478  0  3.333272  0  0  -0.432203  0  3.333412  0  0  -0.380261  -0.420289  0  3.33349  0
N  N46  1  0.10037855  0.89505212  0.28732587  1  0  -0.456092  0  3.030417  0  0  -0.424552  0  3.333101  0  0  -0.432285  0  3.333252  0  0  -0.38024  -0.42036  0  3.33331  0
N  N47  1  0.39961327  0.39505176  0.21266678  1  0  -0.456082  0  3.030389  0  0  -0.424534  0  3.333063  0  0  -0.432251  0  3.333201  0  0  -0.380183  -0.420337  0  3.333269  0
Cl  Cl48  1  0.19238906  0.84163672  0.55444860  1  0  -0.576757  0  1.17345  0  0  -0.518333  0  1.481797  0  0  -0.533983  0  1.459307  0  0  -0.295708  -0.507019  0  1.496318  0
Cl  Cl49  1  0.30759508  0.34164224  0.94554997  1  0  -0.576719  0  1.173413  0  0  -0.518286  0  1.481737  0  0  -0.53393  0  1.459247  0  0  -0.295688  -0.506992  0  1.496294  0
Cl  Cl50  1  0.80762170  0.15835622  0.44555775  1  0  -0.576805  0  1.173533  0  0  -0.518367  0  1.481891  0  0  -0.534019  0  1.459397  0  0  -0.295709  -0.507047  0  1.496402  0
Cl  Cl51  1  0.69238645  0.65834799  0.05444163  1  0  -0.576768  0  1.173529  0  0  -0.518344  0  1.481901  0  0  -0.533988  0  1.459404  0  0  -0.295719  -0.507037  0  1.496438  0
