# generated using pymatgen
data_CdH14C24S(NO)4
_symmetry_space_group_name_H-M   'P 1'
_cell_length_a   16.09857992
_cell_length_b   16.12696398
_cell_length_c   20.42895531
_cell_angle_alpha   89.99995851
_cell_angle_beta   89.99994344
_cell_angle_gamma   90.00003295
_symmetry_Int_Tables_number   1
_chemical_formula_structural   CdH14C24S(NO)4
_chemical_formula_sum   'Cd8 H112 C192 S8 N32 O32'
_cell_volume   5303.79026624
_cell_formula_units_Z   8
loop_
 _symmetry_equiv_pos_site_id
 _symmetry_equiv_pos_as_xyz
  1  'x, y, z'
loop_
 _atom_site_type_symbol
 _atom_site_label
 _atom_site_symmetry_multiplicity
 _atom_site_fract_x
 _atom_site_fract_y
 _atom_site_fract_z
 _atom_site_occupancy
 _atom_site_pbe_bader_charge
 _atom_site_pbe_bader_spin_density
 _atom_site_pbe_cm5_charge
 _atom_site_pbe_ddec_charge
 _atom_site_pbe_ddec_spin_density
 _atom_site_pbe_ddec_sum_bond_order
 _atom_site_pbe_magmom
Cd  Cd0  1  0.91185743  0.61597532  0.32129539  1  1.286656  0  0.774761  0.882522  0  2.240222  0
Cd  Cd1  1  0.58814247  0.38402519  0.32129558  1  1.286661  0  0.774794  0.882581  0  2.240235  0
Cd  Cd2  1  0.41185807  0.38402458  0.17870392  1  1.286645  0  0.774758  0.882507  0  2.240309  0
Cd  Cd3  1  0.08814262  0.61597515  0.17870447  1  1.286652  0  0.774766  0.882511  0  2.240239  0
Cd  Cd4  1  0.08814224  0.38402426  0.67870416  1  1.286651  0  0.774772  0.882555  0  2.240191  0
Cd  Cd5  1  0.41185782  0.61597502  0.67870397  1  1.286653  0  0.774793  0.882555  0  2.240222  0
Cd  Cd6  1  0.58814285  0.61597562  0.82129612  1  1.286647  0  0.774753  0.882467  0  2.240301  0
Cd  Cd7  1  0.91185767  0.38402505  0.82129606  1  1.28664  0  0.77478  0.882513  0  2.240281  0
H  H8  1  0.80778488  0.46963717  0.27383832  1  0.111118  0  0.121389  0.0957  0  1.012564  0
H  H9  1  0.69221508  0.53036276  0.27383884  1  0.110836  0  0.121386  0.095688  0  1.012558  0
H  H10  1  0.30778554  0.53036206  0.22616156  1  0.111154  0  0.121378  0.095661  0  1.012582  0
H  H11  1  0.19221571  0.46963701  0.22616162  1  0.110789  0  0.12139  0.095704  0  1.012533  0
H  H12  1  0.19221479  0.53036241  0.72616123  1  0.111154  0  0.121379  0.095658  0  1.012575  0
H  H13  1  0.30778522  0.46963744  0.72616169  1  0.110821  0  0.12139  0.095688  0  1.012546  0
H  H14  1  0.69221599  0.46963753  0.77383848  1  0.110806  0  0.121386  0.095683  0  1.01253  0
H  H15  1  0.80778521  0.53036195  0.77383940  1  0.111141  0  0.121381  0.09568  0  1.012565  0
H  H16  1  0.79901512  0.31828320  0.26946908  1  0.131716  0  0.108802  0.120098  0  1.042635  0
H  H17  1  0.70098422  0.68171736  0.26946999  1  0.131737  0  0.108796  0.120034  0  1.042609  0
H  H18  1  0.29901587  0.68171664  0.23053032  1  0.131742  0  0.108814  0.120086  0  1.042622  0
H  H19  1  0.20098538  0.31828243  0.23053046  1  0.131697  0  0.108802  0.120081  0  1.042626  0
H  H20  1  0.20098455  0.68171700  0.73053047  1  0.131727  0  0.108791  0.120051  0  1.042659  0
H  H21  1  0.29901545  0.31828285  0.73052956  1  0.131723  0  0.108788  0.120056  0  1.042645  0
H  H22  1  0.70098504  0.31828294  0.76946874  1  0.1317  0  0.108788  0.120071  0  1.042659  0
H  H23  1  0.79901491  0.68171592  0.76946860  1  0.131729  0  0.108779  0.120058  0  1.042636  0
H  H24  1  0.04328381  0.30904748  0.35826932  1  0.077388  0  0.104378  0.109525  0  1.037527  0
H  H25  1  0.45671479  0.69095333  0.35826953  1  0.077343  0  0.104363  0.109488  0  1.037545  0
H  H26  1  0.54328468  0.69095345  0.14173126  1  0.077362  0  0.104371  0.109525  0  1.037504  0
H  H27  1  0.95671606  0.30904722  0.14173072  1  0.077382  0  0.10437  0.109517  0  1.037527  0
H  H28  1  0.95671524  0.69095334  0.64173122  1  0.077357  0  0.104369  0.109506  0  1.037533  0
H  H29  1  0.54328488  0.30904687  0.64173100  1  0.07736  0  0.104381  0.109498  0  1.037523  0
H  H30  1  0.45671624  0.30904737  0.85826878  1  0.077391  0  0.104362  0.109498  0  1.037482  0
H  H31  1  0.04328423  0.69095298  0.85826785  1  0.077371  0  0.104358  0.109498  0  1.037568  0
H  H32  1  0.04000592  0.46405371  0.36108831  1  0.114313  0  0.121229  0.097719  0  0.989747  0
H  H33  1  0.45999330  0.53594771  0.36108911  1  0.114345  0  0.121243  0.097742  0  0.989718  0
H  H34  1  0.54000670  0.53594722  0.13891080  1  0.114343  0  0.121252  0.097741  0  0.989695  0
H  H35  1  0.95999466  0.46405284  0.13891164  1  0.114296  0  0.121227  0.097738  0  0.98977  0
H  H36  1  0.95999313  0.53594773  0.63891075  1  0.114347  0  0.121228  0.097717  0  0.989732  0
H  H37  1  0.54000699  0.46405249  0.63891094  1  0.114335  0  0.121255  0.097801  0  0.989709  0
H  H38  1  0.45999545  0.46405361  0.86108924  1  0.114357  0  0.121234  0.097727  0  0.989739  0
H  H39  1  0.04000687  0.53594736  0.86108889  1  0.114342  0  0.121234  0.097708  0  0.98973  0
H  H40  1  0.97660453  0.03961884  0.40288022  1  0.081278  0  0.105753  0.108309  0  0.992737  0
H  H41  1  0.52339464  0.96038222  0.40288013  1  0.081366  0  0.105782  0.108341  0  0.992723  0
H  H42  1  0.47660561  0.96038173  0.09712002  1  0.081373  0  0.105766  0.108292  0  0.992786  0
H  H43  1  0.02339456  0.03961808  0.09712046  1  0.080974  0  0.105796  0.10835  0  0.992705  0
H  H44  1  0.02339451  0.96038137  0.59711982  1  0.081379  0  0.105778  0.108343  0  0.992762  0
H  H45  1  0.47660565  0.03961798  0.59711942  1  0.081358  0  0.105778  0.108337  0  0.992717  0
H  H46  1  0.52339406  0.03961910  0.90288051  1  0.081367  0  0.105761  0.108316  0  0.992756  0
H  H47  1  0.97660449  0.96038150  0.90287909  1  0.081006  0  0.105757  0.10831  0  0.992752  0
H  H48  1  0.97838299  0.19178635  0.40435749  1  0.090268  0  0.112607  0.120257  0  0.979961  0
H  H49  1  0.52161680  0.80821408  0.40435749  1  0.090262  0  0.112557  0.120203  0  0.979932  0
H  H50  1  0.47838336  0.80821359  0.09564275  1  0.090246  0  0.112607  0.120267  0  0.979961  0
H  H51  1  0.02161743  0.19178622  0.09564310  1  0.090265  0  0.112573  0.120234  0  0.979909  0
H  H52  1  0.02161730  0.80821323  0.59564353  1  0.090144  0  0.11257  0.120215  0  0.97992  0
H  H53  1  0.47838349  0.19178674  0.59564304  1  0.090236  0  0.112608  0.120261  0  0.979941  0
H  H54  1  0.52161693  0.19178785  0.90435680  1  0.090309  0  0.11259  0.120231  0  0.979859  0
H  H55  1  0.97838162  0.80821213  0.90435596  1  0.090155  0  0.112595  0.120255  0  0.979897  0
H  H56  1  0.03922027  0.92424511  0.35607862  1  0.11749  0  0.102956  0.110342  0  1.021597  0
H  H57  1  0.46077895  0.07575508  0.35607968  1  0.117471  0  0.102931  0.110318  0  1.021569  0
H  H58  1  0.53922203  0.07575396  0.14392147  1  0.117456  0  0.102934  0.110319  0  1.021596  0
H  H59  1  0.96077871  0.92424485  0.14392155  1  0.11748  0  0.10295  0.11033  0  1.021601  0
H  H60  1  0.96077877  0.07575448  0.64392142  1  0.117476  0  0.102934  0.110314  0  1.021587  0
H  H61  1  0.53922196  0.92424512  0.64392085  1  0.117457  0  0.102925  0.110311  0  1.021587  0
H  H62  1  0.46077764  0.92424562  0.85607808  1  0.117449  0  0.102935  0.110318  0  1.021607  0
H  H63  1  0.03922034  0.07575473  0.85607800  1  0.117497  0  0.102958  0.110332  0  1.021584  0
H  H64  1  0.79768537  0.91981800  0.26417006  1  0.110478  0  0.097481  0.106643  0  1.05156  0
H  H65  1  0.70231336  0.08018318  0.26417033  1  0.1103  0  0.097482  0.106631  0  1.051653  0
H  H66  1  0.29768700  0.08018246  0.23582983  1  0.110293  0  0.097484  0.106661  0  1.051609  0
H  H67  1  0.20231362  0.91981660  0.23583012  1  0.110296  0  0.097488  0.106657  0  1.051617  0
H  H68  1  0.20231368  0.08018220  0.73583048  1  0.110282  0  0.097472  0.106632  0  1.051618  0
H  H69  1  0.29768693  0.91981702  0.73582971  1  0.110307  0  0.097489  0.106647  0  1.051633  0
H  H70  1  0.70231267  0.91981774  0.76417021  1  0.110514  0  0.097485  0.106664  0  1.05161  0
H  H71  1  0.79768543  0.08018298  0.76416943  1  0.110265  0  0.097506  0.106649  0  1.051591  0
H  H72  1  0.80482632  0.76474727  0.26820897  1  0.125065  0  0.115314  0.087702  0  1.024667  0
H  H73  1  0.69517240  0.23525452  0.26820819  1  0.125051  0  0.11531  0.087678  0  1.024702  0
H  H74  1  0.30482743  0.23525319  0.23179140  1  0.125074  0  0.115327  0.087682  0  1.024744  0
H  H75  1  0.19517257  0.76474588  0.23179129  1  0.125085  0  0.115309  0.087698  0  1.024713  0
H  H76  1  0.19517273  0.23525355  0.73179156  1  0.125064  0  0.115324  0.087698  0  1.024689  0
H  H77  1  0.30482789  0.76474568  0.73179137  1  0.12509  0  0.115317  0.087662  0  1.024751  0
H  H78  1  0.69517224  0.76474701  0.76820962  1  0.125117  0  0.115337  0.087698  0  1.024747  0
H  H79  1  0.80482648  0.23525371  0.76820875  1  0.125071  0  0.1153  0.087689  0  1.024671  0
H  H80  1  0.03410673  0.76871180  0.35845960  1  0.124243  0  0.121862  0.099284  0  0.985643  0
H  H81  1  0.46589187  0.23128901  0.35845959  1  0.124208  0  0.121858  0.099301  0  0.985654  0
H  H82  1  0.53410858  0.23128851  0.14154098  1  0.124205  0  0.12186  0.099297  0  0.985689  0
H  H83  1  0.96589216  0.76871093  0.14154066  1  0.124202  0  0.121846  0.099271  0  0.985651  0
H  H84  1  0.96589169  0.23128902  0.64154093  1  0.124209  0  0.121864  0.099299  0  0.985677  0
H  H85  1  0.53410842  0.76871057  0.64154094  1  0.124191  0  0.121851  0.099284  0  0.985694  0
H  H86  1  0.46589109  0.76871232  0.85846004  1  0.124193  0  0.121855  0.099274  0  0.985705  0
H  H87  1  0.03410689  0.23128866  0.85845889  1  0.124241  0  0.121859  0.099279  0  0.985641  0
H  H88  1  0.30089297  0.62495141  0.33633457  1  0.067377  0  0.09494  0.093806  0  1.056099  0
H  H89  1  0.19910690  0.37504880  0.33633419  1  0.067371  0  0.09492  0.093774  0  1.056181  0
H  H90  1  0.80089301  0.37504843  0.16366532  1  0.067388  0  0.094931  0.093789  0  1.056127  0
H  H91  1  0.69910646  0.62495161  0.16366577  1  0.067363  0  0.094931  0.093804  0  1.056112  0
H  H92  1  0.69910608  0.37504879  0.66366596  1  0.067353  0  0.09494  0.093806  0  1.056125  0
H  H93  1  0.80089277  0.62495079  0.66366585  1  0.067377  0  0.094936  0.093801  0  1.056134  0
H  H94  1  0.19910666  0.62495177  0.83633424  1  0.067365  0  0.094925  0.093773  0  1.056171  0
H  H95  1  0.30089383  0.37504860  0.83633476  1  0.06737  0  0.094935  0.093776  0  1.056136  0
H  H96  1  0.38259266  0.62582508  0.44167522  1  0.092091  0  0.095623  0.096662  0  1.038533  0
H  H97  1  0.11740770  0.37417379  0.44167539  1  0.092113  0  0.095625  0.096649  0  1.038554  0
H  H98  1  0.88259221  0.37417543  0.05832510  1  0.092101  0  0.095624  0.096663  0  1.038553  0
H  H99  1  0.61740740  0.62582532  0.05832464  1  0.092117  0  0.095621  0.096656  0  1.038538  0
H  H100  1  0.61740701  0.37417450  0.55832531  1  0.092076  0  0.095634  0.096692  0  1.038502  0
H  H101  1  0.88259197  0.62582455  0.55832465  1  0.092201  0  0.095628  0.096665  0  1.038545  0
H  H102  1  0.11740746  0.62582539  0.94167495  1  0.092103  0  0.095619  0.096657  0  1.038539  0
H  H103  1  0.38259289  0.37417426  0.94167443  1  0.0921  0  0.095612  0.096658  0  1.038538  0
H  H104  1  0.15666831  0.60823331  0.55107689  1  0.06873  0  0.099765  0.107394  0  1.014961  0
H  H105  1  0.34333129  0.39176732  0.55107639  1  0.06875  0  0.099747  0.107345  0  1.014982  0
H  H106  1  0.65666862  0.39176661  0.94892285  1  0.068728  0  0.099748  0.107345  0  1.014994  0
H  H107  1  0.84333173  0.60823270  0.94892320  1  0.06873  0  0.099771  0.107398  0  1.014962  0
H  H108  1  0.84333136  0.39176627  0.44892315  1  0.06873  0  0.099765  0.107391  0  1.014951  0
H  H109  1  0.65666775  0.60823164  0.44892316  1  0.068729  0  0.099783  0.107405  0  1.014923  0
H  H110  1  0.34333167  0.60823297  0.05107670  1  0.068739  0  0.09978  0.107415  0  1.014936  0
H  H111  1  0.15666794  0.39176688  0.05107684  1  0.068742  0  0.099787  0.107416  0  1.01493  0
H  H112  1  0.07393934  0.60866491  0.44680825  1  0.084512  0  0.103239  0.117714  0  1.010505  0
H  H113  1  0.42606040  0.39133644  0.44680769  1  0.084511  0  0.103227  0.117707  0  1.010496  0
H  H114  1  0.57393890  0.39133356  0.05319230  1  0.084528  0  0.103237  0.117717  0  1.010507  0
H  H115  1  0.92606133  0.60866471  0.05319308  1  0.084505  0  0.10324  0.117721  0  1.010483  0
H  H116  1  0.92606095  0.39133591  0.55319277  1  0.084506  0  0.103242  0.117729  0  1.010494  0
H  H117  1  0.57393865  0.60866314  0.55319284  1  0.084494  0  0.103229  0.117702  0  1.010511  0
H  H118  1  0.42606139  0.60866478  0.94680725  1  0.084504  0  0.103241  0.117721  0  1.010493  0
H  H119  1  0.07393958  0.39133611  0.94680696  1  0.084517  0  0.103237  0.117725  0  1.010522  0
C  C120  1  0.85875022  0.43208578  0.29235272  1  0.556718  0  0.058293  0.117428  0  3.918524  0
C  C121  1  0.64124785  0.56791476  0.29235228  1  0.556717  0  0.058299  0.117434  0  3.918605  0
C  C122  1  0.35875217  0.56791409  0.20764810  1  0.556701  0  0.058332  0.117549  0  3.918479  0
C  C123  1  0.14125034  0.43208561  0.20764725  1  0.556724  0  0.058309  0.117437  0  3.918513  0
C  C124  1  0.14124821  0.56791442  0.70764830  1  0.556695  0  0.058326  0.117536  0  3.918442  0
C  C125  1  0.35875244  0.43208545  0.70764679  1  0.556736  0  0.058333  0.117504  0  3.918578  0
C  C126  1  0.64124998  0.43208611  0.79235292  1  0.556701  0  0.058335  0.117516  0  3.918438  0
C  C127  1  0.85875057  0.56791335  0.79235279  1  0.556466  0  0.058338  0.117501  0  3.918364  0
C  C128  1  0.85470636  0.34625127  0.28953028  1  -0.032567  0  -0.072639  -0.140616  0  3.912587  0
C  C129  1  0.64529357  0.65374865  0.28953076  1  -0.032567  0  -0.072596  -0.140505  0  3.912455  0
C  C130  1  0.35470650  0.65374798  0.21046957  1  -0.032584  0  -0.072668  -0.140681  0  3.912584  0
C  C131  1  0.14529477  0.34625049  0.21046925  1  -0.032559  0  -0.072672  -0.140618  0  3.912587  0
C  C132  1  0.14529393  0.65374831  0.71047025  1  -0.032584  0  -0.072665  -0.140664  0  3.912586  0
C  C133  1  0.35470486  0.34625156  0.71046928  1  -0.032554  0  -0.072603  -0.140612  0  3.912543  0
C  C134  1  0.64529441  0.34625098  0.78952999  1  -0.032563  0  -0.072632  -0.140619  0  3.912567  0
C  C135  1  0.85470614  0.65374848  0.78952982  1  -0.032574  0  -0.0727  -0.140727  0  3.91251  0
C  C136  1  0.92100473  0.29933421  0.31359170  1  0.022967  0  0.009249  0.105519  0  3.986553  0
C  C137  1  0.57899518  0.70066631  0.31359270  1  0.023226  0  0.009234  0.1055  0  3.986554  0
C  C138  1  0.42100492  0.70066570  0.18640809  1  0.023067  0  0.009253  0.105547  0  3.986564  0
C  C139  1  0.07899576  0.29933340  0.18640785  1  0.023252  0  0.009279  0.105556  0  3.986523  0
C  C140  1  0.07899494  0.70066600  0.68640785  1  0.023318  0  0.009251  0.105539  0  3.986563  0
C  C141  1  0.42100574  0.29933389  0.68640685  1  0.023236  0  0.009181  0.105477  0  3.986555  0
C  C142  1  0.57899537  0.29933450  0.81359195  1  0.023059  0  0.00926  0.105513  0  3.986555  0
C  C143  1  0.92100453  0.70066556  0.81359072  1  0.023072  0  0.009258  0.105543  0  3.986523  0
C  C144  1  0.98896476  0.34237517  0.34043151  1  -0.017247  0  -0.082955  -0.177389  0  3.941067  0
C  C145  1  0.51103449  0.65762594  0.34043161  1  -0.017269  0  -0.082937  -0.17736  0  3.941029  0
C  C146  1  0.48896558  0.65762540  0.15956872  1  -0.017358  0  -0.08297  -0.17743  0  3.941081  0
C  C147  1  0.01103638  0.34237373  0.15956802  1  -0.017283  0  -0.082955  -0.177382  0  3.941043  0
C  C148  1  0.01103491  0.65762627  0.65956902  1  -0.017363  0  -0.082962  -0.177403  0  3.941074  0
C  C149  1  0.48896455  0.34237426  0.65956844  1  -0.017274  0  -0.082913  -0.177273  0  3.941046  0
C  C150  1  0.51103595  0.34237481  0.84043132  1  -0.017333  0  -0.08294  -0.17734  0  3.941017  0
C  C151  1  0.98896516  0.65762585  0.84043056  1  -0.017385  0  -0.082935  -0.177352  0  3.941025  0
C  C152  1  0.98818086  0.42847879  0.34127441  1  0.495294  0  0.049911  0.10217  0  3.937892  0
C  C153  1  0.51181777  0.57152294  0.34127455  1  0.495258  0  0.049888  0.102155  0  3.937773  0
C  C154  1  0.48818163  0.57152240  0.15872533  1  0.495253  0  0.04989  0.102192  0  3.937801  0
C  C155  1  0.01181970  0.42847798  0.15872507  1  0.495352  0  0.049876  0.102102  0  3.937896  0
C  C156  1  0.01181819  0.57152265  0.65872564  1  0.495277  0  0.049892  0.102177  0  3.93778  0
C  C157  1  0.48818252  0.42847788  0.65872549  1  0.495257  0  0.04983  0.101999  0  3.93783  0
C  C158  1  0.51181928  0.42847905  0.84127471  1  0.495268  0  0.049895  0.102128  0  3.937869  0
C  C159  1  0.98818183  0.57152223  0.84127448  1  0.495443  0  0.049888  0.102158  0  3.937761  0
C  C160  1  0.91954681  0.20819616  0.31153387  1  -0.011009  0  0.008255  0.025742  0  3.939589  0
C  C161  1  0.58045496  0.79180436  0.31153481  1  -0.010748  0  0.008254  0.025751  0  3.939629  0
C  C162  1  0.41954519  0.79180437  0.18846544  1  -0.010951  0  0.008248  0.025702  0  3.93968  0
C  C163  1  0.08045362  0.20819473  0.18846574  1  -0.010741  0  0.008259  0.025776  0  3.939672  0
C  C164  1  0.08045472  0.79180466  0.68846569  1  -0.010724  0  0.008269  0.025725  0  3.939751  0
C  C165  1  0.41954533  0.20819584  0.68846523  1  -0.010745  0  0.008281  0.025779  0  3.939599  0
C  C166  1  0.58045324  0.20819583  0.81153362  1  -0.011095  0  0.008278  0.025826  0  3.939554  0
C  C167  1  0.91954543  0.79180423  0.81153284  1  -0.011075  0  0.008297  0.025805  0  3.93963  0
C  C168  1  0.88454747  0.16346178  0.25770735  1  0.478756  0  0.113221  0.122285  0  3.986917  0
C  C169  1  0.61545312  0.83653879  0.25770775  1  0.478767  0  0.113209  0.122309  0  3.986826  0
C  C170  1  0.38454705  0.83653811  0.24229296  1  0.478726  0  0.113217  0.122321  0  3.986916  0
C  C171  1  0.11545294  0.16346094  0.24229326  1  0.478769  0  0.11323  0.122311  0  3.986876  0
C  C172  1  0.11545344  0.83653843  0.74229318  1  0.478777  0  0.113247  0.122358  0  3.986868  0
C  C173  1  0.38454779  0.16346079  0.74229229  1  0.47876  0  0.113247  0.122303  0  3.986851  0
C  C174  1  0.61545262  0.16346147  0.75770659  1  0.478861  0  0.113217  0.12231  0  3.98682  0
C  C175  1  0.88454673  0.83653864  0.75770630  1  0.478805  0  0.11317  0.122259  0  3.986914  0
C  C176  1  0.88374116  0.07344297  0.25662069  1  0.467379  0  0.108355  0.125056  0  4.001178  0
C  C177  1  0.61625881  0.92655822  0.25662104  1  0.466888  0  0.108329  0.124997  0  4.001184  0
C  C178  1  0.38374204  0.92655753  0.24337914  1  0.467416  0  0.108298  0.124955  0  4.001131  0
C  C179  1  0.11625857  0.07344214  0.24337949  1  0.467367  0  0.10833  0.125008  0  4.001187  0
C  C180  1  0.11625850  0.92655785  0.74337936  1  0.466892  0  0.108315  0.124975  0  4.001132  0
C  C181  1  0.38374210  0.07344199  0.74337950  1  0.467378  0  0.108319  0.125001  0  4.001111  0
C  C182  1  0.61625763  0.07344205  0.75662042  1  0.467425  0  0.108324  0.124982  0  4.001179  0
C  C183  1  0.88374110  0.92655806  0.75661958  1  0.466932  0  0.10836  0.125069  0  4.001163  0
C  C184  1  0.91758137  0.02677702  0.30981479  1  0.01432  0  -0.003981  0.002721  0  3.9562  0
C  C185  1  0.58242040  0.97322413  0.30981563  1  0.014453  0  -0.003996  0.002715  0  3.956167  0
C  C186  1  0.41758047  0.97322289  0.19018501  1  0.014192  0  -0.003978  0.002762  0  3.956131  0
C  C187  1  0.08241958  0.02677621  0.19018541  1  0.014471  0  -0.003988  0.00275  0  3.956084  0
C  C188  1  0.08242016  0.97322381  0.69018476  1  0.014452  0  -0.003996  0.00273  0  3.956189  0
C  C189  1  0.41758113  0.02677608  0.69018490  1  0.014547  0  -0.00402  0.002735  0  3.956192  0
C  C190  1  0.58241858  0.02677669  0.80981504  1  0.014209  0  -0.00401  0.002699  0  3.956159  0
C  C191  1  0.91758071  0.97322275  0.80981415  1  0.01419  0  -0.003991  0.002789  0  3.956216  0
C  C192  1  0.95135638  0.07275652  0.36079975  1  -0.10708  0  -0.083301  -0.115646  0  3.991912  0
C  C193  1  0.54864347  0.92724396  0.36080113  1  -0.107094  0  -0.083316  -0.115637  0  3.991758  0
C  C194  1  0.45135738  0.92724341  0.13919904  1  -0.107093  0  -0.083297  -0.115611  0  3.991763  0
C  C195  1  0.04864211  0.07275636  0.13919944  1  -0.106708  0  -0.083282  -0.115561  0  3.991765  0
C  C196  1  0.04864329  0.92724369  0.63919931  1  -0.107087  0  -0.083283  -0.115618  0  3.99178  0
C  C197  1  0.45135807  0.07275563  0.63919940  1  -0.107183  0  -0.083289  -0.115623  0  3.991756  0
C  C198  1  0.54864167  0.07275679  0.86080100  1  -0.107094  0  -0.083261  -0.115585  0  3.991718  0
C  C199  1  0.95135694  0.92724384  0.86079913  1  -0.106669  0  -0.083284  -0.115609  0  3.99182  0
C  C200  1  0.95245588  0.16035577  0.36171901  1  0.025392  0  -0.081587  -0.119425  0  3.974021  0
C  C201  1  0.54754459  0.83964408  0.36171946  1  0.025385  0  -0.081514  -0.119407  0  3.974022  0
C  C202  1  0.45245559  0.83964354  0.13828125  1  0.025405  0  -0.081596  -0.119455  0  3.974116  0
C  C203  1  0.04754391  0.16035499  0.13828160  1  0.025394  0  -0.081604  -0.119551  0  3.974185  0
C  C204  1  0.04754441  0.83964381  0.63828152  1  0.025521  0  -0.081573  -0.119429  0  3.974094  0
C  C205  1  0.45245633  0.16035612  0.63828058  1  0.025412  0  -0.081616  -0.119502  0  3.974064  0
C  C206  1  0.54754408  0.16035667  0.86171830  1  0.02535  0  -0.081599  -0.119479  0  3.973929  0
C  C207  1  0.95245576  0.83964335  0.86171795  1  0.025553  0  -0.081612  -0.119514  0  3.973948  0
C  C208  1  0.98463658  0.89148969  0.33800098  1  -0.139152  0  -0.085935  -0.18167  0  3.947498  0
C  C209  1  0.51536267  0.10851205  0.33800237  1  -0.13871  0  -0.085838  -0.181577  0  3.947677  0
C  C210  1  0.48463771  0.10851088  0.16199876  1  -0.139147  0  -0.085924  -0.181658  0  3.947594  0
C  C211  1  0.01536238  0.89148825  0.16199872  1  -0.138899  0  -0.085917  -0.181639  0  3.947554  0
C  C212  1  0.01536309  0.10851114  0.66199857  1  -0.138901  0  -0.085904  -0.181634  0  3.947578  0
C  C213  1  0.48463824  0.89148815  0.66199816  1  -0.138697  0  -0.085893  -0.181616  0  3.94753  0
C  C214  1  0.51536134  0.89148932  0.83800079  1  -0.139136  0  -0.08593  -0.181699  0  3.947577  0
C  C215  1  0.98463667  0.10851071  0.83800034  1  -0.139163  0  -0.085937  -0.181595  0  3.947598  0
C  C216  1  0.91753442  0.93557051  0.31102262  1  0.038982  0  0.009313  0.120357  0  3.98623  0
C  C217  1  0.58246424  0.06443001  0.31102398  1  0.038818  0  0.009274  0.120354  0  3.986386  0
C  C218  1  0.41753673  0.06442878  0.18897669  1  0.03906  0  0.009357  0.120424  0  3.98626  0
C  C219  1  0.08246457  0.93556971  0.18897706  1  0.039005  0  0.009359  0.120389  0  3.986273  0
C  C220  1  0.08246463  0.06442969  0.68897644  1  0.039001  0  0.009242  0.1203  0  3.986331  0
C  C221  1  0.41753605  0.93557020  0.68897655  1  0.038815  0  0.009351  0.120348  0  3.986392  0
C  C222  1  0.58246294  0.93557081  0.81102287  1  0.039078  0  0.009339  0.120445  0  3.986197  0
C  C223  1  0.91753572  0.06442987  0.81102201  1  0.03895  0  0.009313  0.120205  0  3.986359  0
C  C224  1  0.85121429  0.88903292  0.28567041  1  -0.029521  0  -0.089494  -0.176111  0  3.939387  0
C  C225  1  0.64878441  0.11096887  0.28566924  1  -0.029283  0  -0.08956  -0.176236  0  3.939598  0
C  C226  1  0.35121597  0.11096819  0.21433091  1  -0.029375  0  -0.089546  -0.176266  0  3.939566  0
C  C227  1  0.14878405  0.88903151  0.21433076  1  -0.029287  0  -0.089536  -0.176221  0  3.939653  0
C  C228  1  0.14878476  0.11096853  0.71433110  1  -0.029285  0  -0.089482  -0.176158  0  3.939459  0
C  C229  1  0.35121588  0.88903134  0.71433031  1  -0.029272  0  -0.089546  -0.176208  0  3.939624  0
C  C230  1  0.64878432  0.88903263  0.78567011  1  -0.029621  0  -0.089541  -0.176257  0  3.939523  0
C  C231  1  0.85121437  0.11096807  0.78566928  1  -0.029232  0  -0.089523  -0.176121  0  3.939478  0
C  C232  1  0.85467047  0.80300557  0.28803276  1  0.435324  0  0.047241  0.096359  0  3.948223  0
C  C233  1  0.64532885  0.19699497  0.28803253  1  0.435325  0  0.047263  0.096423  0  3.948288  0
C  C234  1  0.35467220  0.19699431  0.21196757  1  0.435337  0  0.047253  0.096451  0  3.948415  0
C  C235  1  0.14532845  0.80300478  0.21196797  1  0.435202  0  0.047252  0.096383  0  3.948373  0
C  C236  1  0.14532796  0.19699464  0.71196777  1  0.435329  0  0.047272  0.096443  0  3.948336  0
C  C237  1  0.35467206  0.80300461  0.71196800  1  0.435306  0  0.047268  0.096479  0  3.948304  0
C  C238  1  0.64532747  0.80300528  0.78803296  1  0.435265  0  0.047221  0.09638  0  3.948371  0
C  C239  1  0.85467060  0.19699543  0.78803256  1  0.435203  0  0.047231  0.096372  0  3.948272  0
C  C240  1  0.98296188  0.80527693  0.33855121  1  0.529042  0  0.051901  0.104604  0  3.942919  0
C  C241  1  0.51703800  0.19472294  0.33855205  1  0.529016  0  0.051932  0.104604  0  3.942828  0
C  C242  1  0.48296367  0.19472177  0.16144805  1  0.529007  0  0.051947  0.10465  0  3.942744  0
C  C243  1  0.01703766  0.80527673  0.16144855  1  0.529017  0  0.051897  0.104566  0  3.942959  0
C  C244  1  0.01703717  0.19472265  0.66144835  1  0.529019  0  0.051975  0.104662  0  3.942693  0
C  C245  1  0.48296292  0.80527664  0.66144799  1  0.529009  0  0.051946  0.104637  0  3.942727  0
C  C246  1  0.51703662  0.80527719  0.83855199  1  0.529013  0  0.051963  0.104665  0  3.942746  0
C  C247  1  0.98296201  0.19472347  0.83855101  1  0.529041  0  0.051925  0.104625  0  3.942894  0
C  C248  1  0.13480628  0.61811375  0.32222134  1  1.505772  0  0.201289  0.571118  0  4.233528  0
C  C249  1  0.36519423  0.38188585  0.32222132  1  1.505774  0  0.201283  0.571111  0  4.233589  0
C  C250  1  0.63480630  0.38188599  0.17777868  1  1.505776  0  0.201285  0.571113  0  4.233586  0
C  C251  1  0.86519377  0.61811403  0.17777901  1  1.505779  0  0.201262  0.571067  0  4.233562  0
C  C252  1  0.86519401  0.38188645  0.67777870  1  1.505753  0  0.201266  0.571087  0  4.233559  0
C  C253  1  0.63480544  0.61811435  0.67777873  1  1.505771  0  0.201331  0.57117  0  4.233521  0
C  C254  1  0.36519461  0.61811421  0.82222136  1  1.505779  0  0.20132  0.57112  0  4.233536  0
C  C255  1  0.13480776  0.38188617  0.82222054  1  1.505776  0  0.201265  0.571143  0  4.233501  0
C  C256  1  0.18268934  0.61779440  0.38519615  1  -0.084972  0  -0.026508  -0.043352  0  3.987798  0
C  C257  1  0.31731109  0.38220515  0.38519616  1  -0.084989  0  -0.026536  -0.043398  0  3.987827  0
C  C258  1  0.68268820  0.38220537  0.11480334  1  -0.084933  0  -0.026552  -0.043402  0  3.98787  0
C  C259  1  0.81731071  0.61779470  0.11480371  1  -0.084967  0  -0.026545  -0.04339  0  3.987744  0
C  C260  1  0.81731095  0.38220642  0.61480389  1  -0.084964  0  -0.026558  -0.043414  0  3.987813  0
C  C261  1  0.68268858  0.61779382  0.61480388  1  -0.084968  0  -0.026545  -0.043429  0  3.987739  0
C  C262  1  0.31731146  0.61779483  0.88519621  1  -0.084972  0  -0.026561  -0.043437  0  3.987773  0
C  C263  1  0.18268834  0.38220612  0.88519633  1  -0.084929  0  -0.026558  -0.043419  0  3.987808  0
C  C264  1  0.26974734  0.62209406  0.38354601  1  -0.051342  0  -0.096332  -0.105009  0  4.00133  0
C  C265  1  0.23025310  0.37790549  0.38354560  1  -0.051203  0  -0.096311  -0.105008  0  4.001317  0
C  C266  1  0.76974743  0.37790577  0.11645342  1  -0.051214  0  -0.096339  -0.105017  0  4.001354  0
C  C267  1  0.73025210  0.62209369  0.11645434  1  -0.051356  0  -0.096316  -0.105024  0  4.001218  0
C  C268  1  0.73025171  0.37790615  0.61645453  1  -0.05123  0  -0.096307  -0.104966  0  4.001198  0
C  C269  1  0.76974719  0.62209347  0.61645395  1  -0.051356  0  -0.096347  -0.10501  0  4.001333  0
C  C270  1  0.23025224  0.62209382  0.88354565  1  -0.051208  0  -0.096305  -0.104971  0  4.00125  0
C  C271  1  0.26974820  0.37790651  0.88354570  1  -0.051346  0  -0.096309  -0.104944  0  4.001168  0
C  C272  1  0.31498483  0.62281209  0.44143343  1  -0.071413  0  -0.094585  -0.109804  0  3.997852  0
C  C273  1  0.18501491  0.37718740  0.44143355  1  -0.071408  0  -0.094576  -0.10977  0  3.997825  0
C  C274  1  0.81498376  0.37718838  0.05856645  1  -0.071398  0  -0.094595  -0.109813  0  3.997883  0
C  C275  1  0.68501584  0.62281113  0.05856692  1  -0.071424  0  -0.094579  -0.109767  0  3.99787  0
C  C276  1  0.68501546  0.37718749  0.55856710  1  -0.071388  0  -0.094606  -0.109859  0  3.997856  0
C  C277  1  0.81498352  0.62281342  0.55856747  1  -0.071492  0  -0.09458  -0.1098  0  3.997828  0
C  C278  1  0.18501529  0.62281121  0.94143360  1  -0.071416  0  -0.094571  -0.109779  0  3.997872  0
C  C279  1  0.31498445  0.37718907  0.94143313  1  -0.071425  0  -0.094584  -0.10981  0  3.997885  0
C  C280  1  0.27426319  0.61875487  0.50191965  1  0.036757  0  -0.015  -0.012519  0  3.958602  0
C  C281  1  0.22573710  0.38124518  0.50191925  1  0.036583  0  -0.015001  -0.012488  0  3.958499  0
C  C282  1  0.77426281  0.38124449  0.99807999  1  0.036764  0  -0.014979  -0.012491  0  3.958475  0
C  C283  1  0.72573686  0.61875416  0.99808043  1  0.036628  0  -0.015003  -0.012557  0  3.958543  0
C  C284  1  0.72573710  0.38124471  0.49808088  1  0.036626  0  -0.015028  -0.012551  0  3.958524  0
C  C285  1  0.77426257  0.61875564  0.49808030  1  0.036789  0  -0.014988  -0.012496  0  3.958438  0
C  C286  1  0.22573686  0.61875447  0.00191956  1  0.036619  0  -0.015003  -0.012535  0  3.958559  0
C  C287  1  0.27426343  0.38124481  0.00191912  1  0.036766  0  -0.015036  -0.012598  0  3.958585  0
C  C288  1  0.18735179  0.61312701  0.50368287  1  -0.048542  0  -0.086326  -0.092168  0  3.95884  0
C  C289  1  0.31264849  0.38687367  0.50368338  1  -0.048556  0  -0.086325  -0.092106  0  3.958718  0
C  C290  1  0.68735080  0.38687169  0.99631684  1  -0.048563  0  -0.086276  -0.092015  0  3.958827  0
C  C291  1  0.81264949  0.61312634  0.99631673  1  -0.048553  0  -0.086335  -0.092141  0  3.958727  0
C  C292  1  0.81264912  0.38687258  0.49631717  1  -0.048535  0  -0.086296  -0.09207  0  3.958694  0
C  C293  1  0.68734994  0.61312715  0.49631666  1  -0.048557  0  -0.086344  -0.092152  0  3.958663  0
C  C294  1  0.31264887  0.61312727  0.00368320  1  -0.048546  0  -0.086311  -0.092116  0  3.958675  0
C  C295  1  0.18735142  0.38687262  0.00368282  1  -0.048551  0  -0.086279  -0.092042  0  3.958773  0
C  C296  1  0.14159872  0.61299556  0.44572545  1  0.008746  0  -0.088432  -0.102947  0  3.966391  0
C  C297  1  0.35840101  0.38700517  0.44572494  1  0.008749  0  -0.088394  -0.102924  0  3.966313  0
C  C298  1  0.64159891  0.38700295  0.05427407  1  0.008673  0  -0.088396  -0.102967  0  3.966561  0
C  C299  1  0.85840070  0.61299533  0.05427490  1  0.008749  0  -0.08841  -0.102943  0  3.966333  0
C  C300  1  0.85840095  0.38700464  0.55427508  1  0.008742  0  -0.088419  -0.10299  0  3.966436  0
C  C301  1  0.64159866  0.61299442  0.55427461  1  0.008733  0  -0.088407  -0.102932  0  3.966295  0
C  C302  1  0.35840076  0.61299540  0.94572499  1  0.00875  0  -0.088431  -0.102966  0  3.966352  0
C  C303  1  0.14159959  0.38700425  0.94572563  1  0.00871  0  -0.088394  -0.102972  0  3.966528  0
C  C304  1  0.32443341  0.61993735  0.56378672  1  1.515359  0  0.180593  0.550817  0  4.243795  0
C  C305  1  0.17556680  0.38006203  0.56378636  1  1.515353  0  0.180678  0.550834  0  4.243855  0
C  C306  1  0.82443311  0.38006266  0.93621338  1  1.515339  0  0.180544  0.550697  0  4.243901  0
C  C307  1  0.67556726  0.61993666  0.93621336  1  1.515342  0  0.180578  0.550784  0  4.243849  0
C  C308  1  0.67556688  0.38006223  0.43621381  1  1.515354  0  0.18068  0.550826  0  4.243835  0
C  C309  1  0.82443225  0.61993755  0.43621368  1  1.515331  0  0.180687  0.550795  0  4.243831  0
C  C310  1  0.17556656  0.61993692  0.06378667  1  1.515355  0  0.180561  0.550738  0  4.243871  0
C  C311  1  0.32443303  0.38006230  0.06378668  1  1.515358  0  0.18065  0.550845  0  4.243904  0
S  S312  1  0.82438135  0.12115378  0.15650006  1  1.272671  0  0.39657  0.435518  0  3.280445  0
S  S313  1  0.67561813  0.87884688  0.15649990  1  1.272676  0  0.396533  0.435459  0  3.280526  0
S  S314  1  0.32438207  0.87884669  0.34350030  1  1.272669  0  0.396543  0.435485  0  3.280514  0
S  S315  1  0.17561904  0.12115289  0.34350009  1  1.272658  0  0.396554  0.435497  0  3.280474  0
S  S316  1  0.17561894  0.87884642  0.84350047  1  1.272637  0  0.396532  0.43546  0  3.28047  0
S  S317  1  0.32438154  0.12115270  0.84350014  1  1.272546  0  0.396508  0.43541  0  3.280573  0
S  S318  1  0.67561884  0.12115289  0.65649974  1  1.27253  0  0.396532  0.435478  0  3.280464  0
S  S319  1  0.82438187  0.87884793  0.65649849  1  1.272529  0  0.396555  0.435511  0  3.280368  0
N  N320  1  0.85091345  0.04221579  0.20071379  1  -1.218642  0  -0.312378  -0.371975  0  3.215548  0
N  N321  1  0.64908597  0.95778483  0.20071360  1  -1.217906  0  -0.312344  -0.371893  0  3.215548  0
N  N322  1  0.35091427  0.95778408  0.29928655  1  -1.218375  0  -0.312323  -0.371871  0  3.215492  0
N  N323  1  0.14908565  0.04221554  0.29928640  1  -1.218676  0  -0.312364  -0.371939  0  3.215589  0
N  N324  1  0.14908622  0.95778442  0.79928675  1  -1.218155  0  -0.312347  -0.371914  0  3.215494  0
N  N325  1  0.35091494  0.04221537  0.79928644  1  -1.218284  0  -0.312328  -0.371862  0  3.215567  0
N  N326  1  0.64908478  0.04221550  0.70071349  1  -1.218272  0  -0.312291  -0.371852  0  3.215486  0
N  N327  1  0.85091464  0.95778528  0.70071266  1  -1.218104  0  -0.312345  -0.371964  0  3.215552  0
N  N328  1  0.85206080  0.19729519  0.20272510  1  -1.186167  0  -0.292191  -0.331775  0  3.198813  0
N  N329  1  0.64793862  0.80270543  0.20272501  1  -1.186136  0  -0.292187  -0.331794  0  3.198725  0
N  N330  1  0.35206091  0.80270530  0.29727524  1  -1.186162  0  -0.292187  -0.331798  0  3.198848  0
N  N331  1  0.14793901  0.19729495  0.29727500  1  -1.186151  0  -0.292204  -0.331812  0  3.198761  0
N  N332  1  0.14793949  0.80270501  0.79727543  1  -1.186168  0  -0.292196  -0.331782  0  3.198809  0
N  N333  1  0.35206105  0.19729416  0.79727454  1  -1.186105  0  -0.292185  -0.331757  0  3.198757  0
N  N334  1  0.64793938  0.19729490  0.70272481  1  -1.186153  0  -0.292209  -0.331836  0  3.198781  0
N  N335  1  0.85206004  0.80270588  0.70272357  1  -1.186132  0  -0.292194  -0.331791  0  3.198655  0
N  N336  1  0.92425165  0.47282687  0.31712683  1  -1.235688  0  -0.32484  -0.236298  0  3.505198  0
N  N337  1  0.57574825  0.52717364  0.31712695  1  -1.235499  0  -0.324838  -0.2363  0  3.505248  0
N  N338  1  0.42425237  0.52717304  0.18287345  1  -1.235684  0  -0.324831  -0.23633  0  3.505198  0
N  N339  1  0.07574894  0.47282669  0.18287311  1  -1.235498  0  -0.324797  -0.236232  0  3.505162  0
N  N340  1  0.07574802  0.52717333  0.68287321  1  -1.235669  0  -0.324797  -0.236275  0  3.505138  0
N  N341  1  0.42425142  0.47282656  0.68287358  1  -1.235687  0  -0.324837  -0.236282  0  3.505253  0
N  N342  1  0.57574979  0.47282716  0.81712708  1  -1.235526  0  -0.324867  -0.236319  0  3.505166  0
N  N343  1  0.92425259  0.52717351  0.81712742  1  -1.235458  0  -0.324786  -0.236215  0  3.505125  0
N  N344  1  0.91930409  0.76160038  0.31373549  1  -1.227065  0  -0.3186  -0.220653  0  3.48774  0
N  N345  1  0.58069457  0.23840075  0.31373479  1  -1.227074  0  -0.318612  -0.220656  0  3.487612  0
N  N346  1  0.41930526  0.23840015  0.18626480  1  -1.227208  0  -0.318625  -0.220712  0  3.487537  0
N  N347  1  0.08069356  0.76159896  0.18626576  1  -1.227163  0  -0.318591  -0.220598  0  3.48773  0
N  N348  1  0.08069434  0.23839982  0.68626554  1  -1.227242  0  -0.318641  -0.220706  0  3.487548  0
N  N349  1  0.41930634  0.76159945  0.68626574  1  -1.227258  0  -0.318642  -0.220713  0  3.487523  0
N  N350  1  0.58069441  0.76160006  0.81373622  1  -1.227007  0  -0.318622  -0.220636  0  3.487502  0
N  N351  1  0.91930425  0.23840062  0.81373575  1  -1.226988  0  -0.318582  -0.220625  0  3.487739  0
O  O352  1  0.05607325  0.62097230  0.32429490  1  -1.160699  0  -0.342746  -0.603916  0  2.369567  0
O  O353  1  0.44392664  0.37902792  0.32429432  1  -1.160699  0  -0.342774  -0.603921  0  2.369637  0
O  O354  1  0.55607265  0.37902802  0.17570616  1  -1.160984  0  -0.342785  -0.603932  0  2.369635  0
O  O355  1  0.94392618  0.62097138  0.17570545  1  -1.16096  0  -0.342748  -0.603915  0  2.369696  0
O  O356  1  0.94392642  0.37902791  0.67570515  1  -1.160692  0  -0.342765  -0.603915  0  2.369635  0
O  O357  1  0.55607365  0.62097166  0.67570572  1  -1.160706  0  -0.342765  -0.603924  0  2.369721  0
O  O358  1  0.44392702  0.62097156  0.82429437  1  -1.160996  0  -0.342757  -0.603879  0  2.369671  0
O  O359  1  0.05607286  0.37902820  0.82429459  1  -1.160958  0  -0.342786  -0.603965  0  2.369392  0
O  O360  1  0.17640377  0.61624859  0.26887253  1  -1.165764  0  -0.324646  -0.554188  0  2.283163  0
O  O361  1  0.32359619  0.38375168  0.26887254  1  -1.165747  0  -0.32462  -0.554161  0  2.283152  0
O  O362  1  0.67640435  0.38375180  0.23112696  1  -1.165752  0  -0.324625  -0.55418  0  2.283178  0
O  O363  1  0.82359628  0.61624941  0.23112782  1  -1.165777  0  -0.324614  -0.554127  0  2.283074  0
O  O364  1  0.82359590  0.38375161  0.73112800  1  -1.165737  0  -0.324602  -0.554144  0  2.283106  0
O  O365  1  0.67640410  0.61624914  0.73112750  1  -1.165749  0  -0.32467  -0.554198  0  2.283051  0
O  O366  1  0.32359656  0.61624902  0.76887210  1  -1.16575  0  -0.324666  -0.554186  0  2.283087  0
O  O367  1  0.17640339  0.38375203  0.76887223  1  -1.165796  0  -0.324624  -0.554192  0  2.283285  0
O  O368  1  0.40356213  0.62286787  0.55981096  1  -1.133141  0  -0.352973  -0.577589  0  2.128691  0
O  O369  1  0.09643870  0.37713213  0.55981115  1  -1.133121  0  -0.352964  -0.577541  0  2.128751  0
O  O370  1  0.90356183  0.37713281  0.94018907  1  -1.13313  0  -0.352931  -0.577516  0  2.128739  0
O  O371  1  0.59643854  0.62286713  0.94018912  1  -1.133115  0  -0.352951  -0.577546  0  2.128725  0
O  O372  1  0.59643816  0.37713233  0.44018957  1  -1.133139  0  -0.352976  -0.577537  0  2.128704  0
O  O373  1  0.90356097  0.62286621  0.44018938  1  -1.13309  0  -0.35297  -0.577535  0  2.128673  0
O  O374  1  0.09643784  0.62286739  0.05981146  1  -1.133137  0  -0.352939  -0.577534  0  2.128725  0
O  O375  1  0.40356238  0.37713307  0.05981092  1  -1.133139  0  -0.352967  -0.577565  0  2.128717  0
O  O376  1  0.28569269  0.61819613  0.61832795  1  -1.166539  0  -0.338863  -0.560331  0  2.201565  0
O  O377  1  0.21430745  0.38180258  0.61832805  1  -1.166478  0  -0.338934  -0.560418  0  2.201628  0
O  O378  1  0.78569308  0.38180386  0.88167218  1  -1.166479  0  -0.338858  -0.560306  0  2.201614  0
O  O379  1  0.71430797  0.61819551  0.88167263  1  -1.16654  0  -0.33885  -0.560301  0  2.201586  0
O  O380  1  0.71430698  0.38180283  0.38167209  1  -1.166474  0  -0.33892  -0.560398  0  2.201623  0
O  O381  1  0.78569222  0.61819576  0.38167199  1  -1.166548  0  -0.338929  -0.560362  0  2.201594  0
O  O382  1  0.21430721  0.61819634  0.11832787  1  -1.166537  0  -0.338855  -0.560298  0  2.201593  0
O  O383  1  0.28569294  0.38180345  0.11832742  1  -1.166472  0  -0.338899  -0.560358  0  2.201687  0
