# generated using pymatgen
data_Ag2P2H28C35N8
_symmetry_space_group_name_H-M   'P 1'
_cell_length_a   10.14488909
_cell_length_b   13.17898282
_cell_length_c   16.82100000
_cell_angle_alpha   73.23074730
_cell_angle_beta   85.63900451
_cell_angle_gamma   77.78582944
_symmetry_Int_Tables_number   1
_chemical_formula_structural   Ag2P2H28C35N8
_chemical_formula_sum   'Ag4 P4 H56 C70 N16'
_cell_volume   2104.30444185
_cell_formula_units_Z   2
loop_
 _symmetry_equiv_pos_site_id
 _symmetry_equiv_pos_as_xyz
  1  'x, y, z'
loop_
 _atom_site_type_symbol
 _atom_site_label
 _atom_site_symmetry_multiplicity
 _atom_site_fract_x
 _atom_site_fract_y
 _atom_site_fract_z
 _atom_site_occupancy
 _atom_site_hle17_bader_spin_density
 _atom_site_hle17_ddec_charge
 _atom_site_hle17_ddec_spin_density
 _atom_site_hle17_ddec_sum_bond_order
 _atom_site_hle17_magmom
 _atom_site_hse06_10hf_bader_spin_density
 _atom_site_hse06_10hf_ddec_charge
 _atom_site_hse06_10hf_ddec_spin_density
 _atom_site_hse06_10hf_ddec_sum_bond_order
 _atom_site_hse06_10hf_magmom
 _atom_site_hse06_bader_spin_density
 _atom_site_hse06_ddec_charge
 _atom_site_hse06_ddec_spin_density
 _atom_site_hse06_ddec_sum_bond_order
 _atom_site_hse06_magmom
 _atom_site_pbe_bader_charge
 _atom_site_pbe_bader_spin_density
 _atom_site_pbe_cm5_charge
 _atom_site_pbe_ddec_charge
 _atom_site_pbe_ddec_spin_density
 _atom_site_pbe_ddec_sum_bond_order
 _atom_site_pbe_magmom
Ag  Ag0  1  0.48196044  0.88177502  0.07636571  1  0  0.445251  0  1.920528  0  0  0.344356  0  2.43493  0  0  0.355411  0  2.395449  0  0.48426  0  0.502373  0.336947  0  2.462085  0
Ag  Ag1  1  0.51804082  0.11822718  0.92363052  1  0  0.445238  0  1.920522  0  0  0.344348  0  2.434902  0  0  0.355405  0  2.395424  0  0.484265  0  0.502389  0.336941  0  2.462056  0
Ag  Ag2  1  0.02632705  0.40589958  0.14040121  1  0  0.387146  0  1.880063  0  0  0.276166  0  2.378948  0  0  0.288031  0  2.341607  0  0.454691  0  0.495633  0.267917  0  2.404969  0
Ag  Ag3  1  0.97367523  0.59409453  0.85960275  1  0  0.387099  0  1.880159  0  0  0.276161  0  2.379017  0  0  0.28803  0  2.341676  0  0.454766  0  0.495653  0.267924  0  2.405018  0
P  P4  1  0.59579081  0.82702098  0.20267475  1  0  0.266665  0  3.70242  0  0  0.212558  0  4.189493  0  0  0.223892  0  4.182702  0  1.309729  0  -0.029752  0.205053  0  4.193692  0
P  P5  1  0.40420986  0.17297960  0.79732307  1  0  0.266761  0  3.702395  0  0  0.212632  0  4.18941  0  0  0.223964  0  4.182628  0  1.309739  0  -0.029747  0.205115  0  4.193601  0
P  P6  1  0.00851073  0.51793130  0.22689056  1  0  0.291936  0  3.71794  0  0  0.237325  0  4.208457  0  0  0.249099  0  4.201059  0  1.369029  0  -0.029671  0.229554  0  4.212919  0
P  P7  1  0.99149054  0.48206686  0.77311253  1  0  0.291942  0  3.718087  0  0  0.237336  0  4.208608  0  0  0.249105  0  4.201209  0  1.369687  0  -0.029695  0.229561  0  4.21307  0
H  H8  1  0.52683681  0.64133510  0.12681955  1  0  0.096086  0  0.969853  0  0  0.107504  0  1.031254  0  0  0.110809  0  1.028757  0  0.04513  0  0.102006  0.104984  0  1.033324  0
H  H9  1  0.47316309  0.35866063  0.87318118  1  0  0.096152  0  0.969919  0  0  0.107544  0  1.031335  0  0  0.110851  0  1.028838  0  0.045125  0  0.102033  0.105023  0  1.033406  0
H  H10  1  0.47563601  0.60551918  0.99787970  1  0  0.098964  0  0.949873  0  0  0.111572  0  1.004032  0  0  0.113763  0  1.004325  0  0.065528  0  0.106282  0.109835  0  1.004381  0
H  H11  1  0.52436843  0.39447817  0.00211867  1  0  0.098939  0  0.949857  0  0  0.11155  0  1.004018  0  0  0.113742  0  1.004308  0  0.065495  0  0.106273  0.109813  0  1.004368  0
H  H12  1  0.66059033  0.58242245  0.89196774  1  0  0.074656  0  0.939478  0  0  0.083119  0  1.004406  0  0  0.085823  0  1.002924  0  0.094787  0  0.109447  0.081091  0  1.00563  0
H  H13  1  0.33941667  0.41757651  0.10803312  1  0  0.074639  0  0.939497  0  0  0.08315  0  1.004378  0  0  0.085852  0  1.002901  0  0.094726  0  0.109454  0.08111  0  1.005613  0
H  H14  1  0.94046252  0.63101419  0.03597327  1  0  0.071196  0  1.001862  0  0  0.076624  0  1.077214  0  0  0.079594  0  1.074194  0  0.073993  0  0.106024  0.074485  0  1.079718  0
H  H15  1  0.05954035  0.36898154  0.96403089  1  0  0.071238  0  1.00184  0  0  0.076661  0  1.0772  0  0  0.079631  0  1.074177  0  0.07409  0  0.106046  0.074519  0  1.07971  0
H  H16  1  0.72850466  0.65565291  0.28821469  1  0  0.093981  0  0.976357  0  0  0.108742  0  1.040618  0  0  0.109031  0  1.042577  0  0.05371  0  0.108106  0.1085  0  1.039376  0
H  H17  1  0.27149284  0.34435253  0.71178455  1  0  0.093941  0  0.976399  0  0  0.10871  0  1.040633  0  0  0.109  0  1.042587  0  0.053587  0  0.108091  0.108463  0  1.039399  0
H  H18  1  0.59896219  0.63266696  0.23553547  1  0  0.099428  0  0.958205  0  0  0.116268  0  1.019881  0  0  0.11642  0  1.021184  0  0.075978  0  0.111132  0.11617  0  1.01893  0
H  H19  1  0.40103710  0.36733524  0.76446442  1  0  0.099434  0  0.958188  0  0  0.116259  0  1.019864  0  0  0.116408  0  1.021169  0  0.075781  0  0.111127  0.11616  0  1.018912  0
H  H20  1  0.91467213  0.70751299  0.22463674  1  0  0.10089  0  0.967231  0  0  0.114811  0  1.030974  0  0  0.115167  0  1.03316  0  0.094799  0  0.111268  0.114384  0  1.029605  0
H  H21  1  0.08532915  0.29248517  0.77536278  1  0  0.100864  0  0.967217  0  0  0.114817  0  1.030918  0  0  0.115172  0  1.033103  0  0.094813  0  0.111267  0.114371  0  1.029575  0
H  H22  1  0.96941989  0.69640046  0.12494353  1  0  0.109487  0  0.95188  0  0  0.121043  0  1.016978  0  0  0.121756  0  1.018037  0  0.101503  0  0.11241  0.120273  0  1.016556  0
H  H23  1  0.03058337  0.30359365  0.87505741  1  0  0.109508  0  0.951876  0  0  0.121077  0  1.016944  0  0  0.121788  0  1.018001  0  0.101468  0  0.112442  0.120308  0  1.016523  0
H  H24  1  0.23744843  0.35846737  0.29203023  1  0  0.108357  0  0.964371  0  0  0.118068  0  1.027632  0  0  0.121308  0  1.02538  0  0.119252  0  0.101722  0.11566  0  1.029321  0
H  H25  1  0.76255521  0.64153321  0.70796983  1  0  0.108332  0  0.96439  0  0  0.118034  0  1.027665  0  0  0.121274  0  1.025413  0  0.119332  0  0.101698  0.115618  0  1.029361  0
H  H26  1  0.45236440  0.36216750  0.35202371  1  0  0.080994  0  0.95838  0  0  0.093957  0  1.014528  0  0  0.096642  0  1.013449  0  0.049093  0  0.098116  0.092025  0  1.015422  0
H  H27  1  0.54764063  0.63783146  0.64797309  1  0  0.080968  0  0.958335  0  0  0.093882  0  1.014546  0  0  0.096567  0  1.013468  0  0.049122  0  0.098085  0.09195  0  1.01544  0
H  H28  1  0.50149366  0.53678451  0.35918627  1  0  0.078165  0  0.973806  0  0  0.086218  0  1.041993  0  0  0.088402  0  1.042117  0  0.083329  0  0.093126  0.084857  0  1.041531  0
H  H29  1  0.49851236  0.46321445  0.64081048  1  0  0.078126  0  0.973745  0  0  0.0862  0  1.041922  0  0  0.088384  0  1.042047  0  0.083431  0  0.09309  0.084834  0  1.041476  0
H  H30  1  0.33666987  0.70877844  0.30211018  1  0  0.08342  0  0.99682  0  0  0.092438  0  1.060624  0  0  0.093862  0  1.062576  0  0.07924  0  0.094113  0.091474  0  1.059383  0
H  H31  1  0.66333574  0.29122214  0.69788800  1  0  0.083369  0  0.996813  0  0  0.092387  0  1.060622  0  0  0.09381  0  1.062575  0  0.079237  0  0.094099  0.091423  0  1.059383  0
H  H32  1  0.12463160  0.70655480  0.24188818  1  0  0.091313  0  0.962464  0  0  0.10277  0  1.02357  0  0  0.105095  0  1.02346  0  0.083465  0  0.100977  0.10121  0  1.023669  0
H  H33  1  0.87537125  0.29344497  0.75811329  1  0  0.091261  0  0.96249  0  0  0.102716  0  1.023598  0  0  0.105041  0  1.02349  0  0.083525  0  0.100988  0.101155  0  1.023698  0
H  H34  1  0.82939142  0.36801931  0.27648260  1  0  0.096904  0  0.946225  0  0  0.10573  0  1.010646  0  0  0.109767  0  1.007233  0  0.101577  0  0.102423  0.102864  0  1.01292  0
H  H35  1  0.17061223  0.63197723  0.72352432  1  0  0.096952  0  0.946278  0  0  0.105713  0  1.010758  0  0  0.109748  0  1.007345  0  0.101467  0  0.102393  0.102847  0  1.013032  0
H  H36  1  0.68336347  0.31640181  0.40115580  1  0  0.079945  0  0.963264  0  0  0.093384  0  1.019621  0  0  0.095388  0  1.019363  0  0.074086  0  0.100543  0.091747  0  1.020293  0
H  H37  1  0.31663124  0.68360686  0.59884819  1  0  0.079947  0  0.963193  0  0  0.093379  0  1.019559  0  0  0.095381  0  1.019303  0  0.073975  0  0.100542  0.091743  0  1.02023  0
H  H38  1  0.68309660  0.39710449  0.51843385  1  0  0.082066  0  0.980814  0  0  0.089857  0  1.048176  0  0  0.091821  0  1.048769  0  0.072063  0  0.095096  0.088659  0  1.047395  0
H  H39  1  0.31688919  0.60291226  0.48156634  1  0  0.08207  0  0.980861  0  0  0.08988  0  1.048194  0  0  0.091842  0  1.048787  0  0.072309  0  0.095106  0.088682  0  1.047416  0
H  H40  1  0.83002956  0.52868886  0.51069828  1  0  0.091005  0  0.952133  0  0  0.10251  0  1.009315  0  0  0.104811  0  1.009682  0  0.083046  0  0.099977  0.100866  0  1.009132  0
H  H41  1  0.16995563  0.47133032  0.48929842  1  0  0.090957  0  0.952253  0  0  0.102474  0  1.009412  0  0  0.104776  0  1.009777  0  0.083308  0  0.099964  0.100791  0  1.009271  0
H  H42  1  0.97742916  0.57936677  0.38652770  1  0  0.088642  0  0.956964  0  0  0.099801  0  1.018667  0  0  0.102186  0  1.01831  0  0.074339  0  0.100196  0.097949  0  1.019202  0
H  H43  1  0.02256239  0.42064271  0.61347209  1  0  0.088654  0  0.956932  0  0  0.099792  0  1.018663  0  0  0.102185  0  1.018301  0  0.072145  0  0.100177  0.097935  0  1.019204  0
H  H44  1  0.76169414  0.84147705  0.33854072  1  0  0.08348  0  0.967546  0  0  0.0963  0  1.02653  0  0  0.098585  0  1.025923  0  0.048786  0  0.096322  0.094736  0  1.026804  0
H  H45  1  0.23830457  0.15851949  0.66145691  1  0  0.083466  0  0.967538  0  0  0.096269  0  1.026545  0  0  0.098558  0  1.025934  0  0.048852  0  0.096307  0.094703  0  1.02682  0
H  H46  1  0.97617742  0.90484425  0.33255103  1  0  0.083169  0  0.949478  0  0  0.095834  0  1.004287  0  0  0.098453  0  1.003829  0  0.058089  0  0.098628  0.094159  0  1.004375  0
H  H47  1  0.02382447  0.09514743  0.66744933  1  0  0.083191  0  0.949512  0  0  0.095862  0  1.004313  0  0  0.098484  0  1.003853  0  0.05806  0  0.09863  0.094181  0  1.004406  0
H  H48  1  0.07772455  0.98821449  0.19484755  1  0  0.091859  0  0.980303  0  0  0.098136  0  1.047396  0  0  0.100763  0  1.046683  0  0.086398  0  0.099356  0.096537  0  1.047378  0
H  H49  1  0.92227753  0.01178043  0.80515505  1  0  0.091833  0  0.980316  0  0  0.098134  0  1.047392  0  0  0.100767  0  1.04667  0  0.086426  0  0.099349  0.096535  0  1.047373  0
H  H50  1  0.96140670  0.01026755  0.06537011  1  0  0.09214  0  0.949388  0  0  0.103879  0  1.006338  0  0  0.106377  0  1.005794  0  0.080404  0  0.103618  0.102014  0  1.006807  0
H  H51  1  0.03859753  0.98973465  0.93463015  1  0  0.092162  0  0.949406  0  0  0.103893  0  1.00636  0  0  0.106402  0  1.005803  0  0.0805  0  0.103637  0.102028  0  1.006829  0
H  H52  1  0.74605856  0.94654676  0.07056660  1  0  0.092831  0  0.97244  0  0  0.099634  0  1.044345  0  0  0.102774  0  1.042199  0  0.077371  0  0.096838  0.097319  0  1.04593  0
H  H53  1  0.25394269  0.05345948  0.92943051  1  0  0.092877  0  0.972383  0  0  0.099641  0  1.044331  0  0  0.102782  0  1.042183  0  0.077398  0  0.096823  0.097327  0  1.045916  0
H  H54  1  0.63155574  0.71233222  0.38702228  1  0  0.081244  0  0.969978  0  0  0.092758  0  1.032174  0  0  0.095308  0  1.031337  0  0.049721  0  0.097644  0.090853  0  1.032965  0
H  H55  1  0.36844138  0.28766675  0.61297606  1  0  0.081292  0  0.969972  0  0  0.092816  0  1.032145  0  0  0.095364  0  1.031313  0  0.049831  0  0.097694  0.090922  0  1.032924  0
H  H56  1  0.48668131  0.73218566  0.50716310  1  0  0.080361  0  0.964835  0  0  0.091894  0  1.024849  0  0  0.094448  0  1.023888  0  0.101193  0  0.098531  0.089913  0  1.02587  0
H  H57  1  0.51331779  0.26781330  0.49283574  1  0  0.080353  0  0.964848  0  0  0.09188  0  1.024868  0  0  0.094435  0  1.023907  0  0.101158  0  0.098534  0.089892  0  1.025898  0
H  H58  1  0.26695831  0.86427459  0.48849877  1  0  0.088124  0  0.939575  0  0  0.101862  0  0.991842  0  0  0.104631  0  0.990871  0  0.064591  0  0.104942  0.099816  0  0.992659  0
H  H59  1  0.73304097  0.13572761  0.51149993  1  0  0.088186  0  0.93967  0  0  0.101913  0  0.991933  0  0  0.104683  0  0.990962  0  0.064567  0  0.104956  0.099868  0  0.992749  0
H  H60  1  0.19629406  0.97886551  0.34615433  1  0  0.096451  0  0.941012  0  0  0.109963  0  0.993628  0  0  0.112363  0  0.993302  0  0.059735  0  0.106676  0.108106  0  0.994059  0
H  H61  1  0.80370741  0.02113588  0.65384445  1  0  0.096402  0  0.940921  0  0  0.109921  0  0.993543  0  0  0.112317  0  0.993218  0  0.059714  0  0.106661  0.108065  0  0.993973  0
H  H62  1  0.34066882  0.95635260  0.22437257  1  0  0.083379  0  0.996028  0  0  0.088751  0  1.070747  0  0  0.091602  0  1.069143  0  0.115079  0  0.098176  0.086669  0  1.07171  0
H  H63  1  0.65933265  0.04364879  0.77562562  1  0  0.083368  0  0.996055  0  0  0.088736  0  1.070781  0  0  0.091589  0  1.069175  0  0.115021  0  0.09817  0.086655  0  1.071742  0
C  C64  1  0.74048037  0.63869181  0.09486496  1  0  0.152258  0  3.803851  0  0  0.145427  0  4.051783  0  0  0.15245  0  4.072971  0  0.412906  0  0.100811  0.140605  0  4.037438  0
C  C65  1  0.25952151  0.36130392  0.90513746  1  0  0.152274  0  3.803857  0  0  0.14553  0  4.051741  0  0  0.152549  0  4.072929  0  0.41258  0  0.100834  0.140705  0  4.037405  0
C  C66  1  0.60746617  0.63114195  0.08155227  1  0  -0.136866  0  3.735421  0  0  -0.15854  0  3.988794  0  0  -0.159909  0  4.005809  0  -0.060559  0  -0.092235  -0.157492  0  3.977397  0
C  C67  1  0.39253669  0.36885378  0.91844833  1  0  -0.136946  0  3.735629  0  0  -0.158611  0  3.988978  0  0  -0.159974  0  4.005989  0  -0.060553  0  -0.092258  -0.157565  0  3.977583  0
C  C68  1  0.57821282  0.61075887  0.00884914  1  0  -0.08838  0  3.778361  0  0  -0.099547  0  4.025617  0  0  -0.102726  0  4.047526  0  0.048092  0  -0.087323  -0.097577  0  4.011037  0
C  C69  1  0.42179202  0.38923686  0.99114958  1  0  -0.088304  0  3.77843  0  0  -0.099468  0  4.025699  0  0  -0.102643  0  4.047604  0  0.048085  0  -0.087303  -0.097497  0  4.011115  0
C  C70  1  0.67968720  0.59819249  0.94977612  1  0  0.075407  0  3.742052  0  0  0.039833  0  4.005289  0  0  0.043173  0  4.024121  0  0.446265  0  0.021168  0.037842  0  3.99244  0
C  C71  1  0.32031625  0.40180486  0.05022408  1  0  0.075347  0  3.742126  0  0  0.039682  0  4.005393  0  0  0.043009  0  4.024225  0  0.446368  0  0.021094  0.0377  0  3.992547  0
C  C72  1  0.83622118  0.62503139  0.03123412  1  0  0.001577  0  3.706322  0  0  -0.034934  0  3.971799  0  0  -0.032182  0  3.98705  0  0.526827  0  0.020082  -0.036919  0  3.962069  0
C  C73  1  0.16378168  0.37496434  0.96876766  1  0  0.001518  0  3.70622  0  0  -0.035022  0  3.971651  0  0  -0.032275  0  3.986907  0  0.526626  0  0.020032  -0.037007  0  3.961925  0
C  C74  1  0.67802534  0.68020025  0.22839676  1  0  -0.175997  0  3.654005  0  0  -0.222206  0  3.907648  0  0  -0.22155  0  3.921013  0  0.001494  0  -0.06817  -0.222615  0  3.898556  0
C  C75  1  0.32197315  0.31980114  0.77160216  1  0  -0.176016  0  3.653987  0  0  -0.222154  0  3.907633  0  0  -0.221491  0  3.920993  0  0.001819  0  -0.068134  -0.222558  0  3.898533  0
C  C76  1  0.91557113  0.65911046  0.18137956  1  0  -0.177276  0  3.63388  0  0  -0.219846  0  3.883962  0  0  -0.219692  0  3.897081  0  -0.060011  0  -0.064943  -0.219855  0  3.874927  0
C  C77  1  0.08442915  0.34088770  0.81862179  1  0  -0.177389  0  3.633827  0  0  -0.219962  0  3.884034  0  0  -0.21981  0  3.897167  0  -0.060257  0  -0.065019  -0.219926  0  3.874927  0
C  C78  1  0.16531898  0.53170168  0.26462463  1  0  -0.086804  0  3.761599  0  0  -0.048065  0  4.001396  0  0  -0.053415  0  4.027309  0  -0.50089  0  -0.024282  -0.044364  0  3.983619  0
C  C79  1  0.83468308  0.46829728  0.73537824  1  0  -0.086862  0  3.761665  0  0  -0.048121  0  4.00145  0  0  -0.05347  0  4.027363  0  -0.500783  0  -0.024285  -0.044421  0  3.983675  0
C  C80  1  0.25936174  0.43497910  0.29524463  1  0  -0.08228  0  3.733015  0  0  -0.098792  0  3.966818  0  0  -0.100605  0  3.989396  0  -0.047448  0  -0.084701  -0.096999  0  3.950657  0
C  C81  1  0.74064052  0.56501905  0.70475723  1  0  -0.082226  0  3.733096  0  0  -0.098725  0  3.966887  0  0  -0.100541  0  3.989467  0  -0.047747  0  -0.084668  -0.096926  0  3.950728  0
C  C82  1  0.37965867  0.43741864  0.32891769  1  0  -0.077155  0  3.791198  0  0  -0.087264  0  4.0331  0  0  -0.090637  0  4.056253  0  -0.074092  0  -0.093988  -0.084421  0  4.016499  0
C  C83  1  0.62034418  0.56258114  0.67108140  1  0  -0.077121  0  3.79112  0  0  -0.087191  0  4.033026  0  0  -0.090562  0  4.056178  0  -0.074128  0  -0.093963  -0.084348  0  4.016422  0
C  C84  1  0.40759184  0.53567350  0.33213153  1  0  -0.078095  0  3.786182  0  0  -0.091308  0  4.034265  0  0  -0.092332  0  4.055641  0  -0.075449  0  -0.095753  -0.090443  0  4.019398  0
C  C85  1  0.59241220  0.46432546  0.66786768  1  0  -0.078072  0  3.78617  0  0  -0.091304  0  4.034229  0  0  -0.092328  0  4.055604  0  -0.075499  0  -0.09571  -0.090439  0  4.019358  0
C  C86  1  0.31540678  0.63186483  0.30038300  1  0  -0.075995  0  3.772341  0  0  -0.08458  0  4.015532  0  0  -0.087493  0  4.037629  0  -0.053141  0  -0.096196  -0.083213  0  4.001356  0
C  C87  1  0.68459766  0.36813251  0.69961775  1  0  -0.075953  0  3.772365  0  0  -0.084534  0  4.015557  0  0  -0.087449  0  4.03766  0  -0.053041  0  -0.096196  -0.083167  0  4.00138  0
C  C88  1  0.19459916  0.63026948  0.26651341  1  0  -0.073907  0  3.737728  0  0  -0.093486  0  3.975698  0  0  -0.094162  0  3.996851  0  -0.102566  0  -0.086578  -0.093309  0  3.962009  0
C  C89  1  0.80540409  0.36972868  0.73348840  1  0  -0.073816  0  3.737674  0  0  -0.093386  0  3.97564  0  0  -0.094059  0  3.996787  0  -0.10272  0  -0.086577  -0.093211  0  3.961956  0
C  C90  1  0.91120000  0.47776594  0.32294259  1  0  -0.084613  0  3.741712  0  0  -0.044011  0  3.975855  0  0  -0.049633  0  4.002115  0  -0.456066  0  -0.025392  -0.040647  0  3.958099  0
C  C91  1  0.08879631  0.52224031  0.67706366  1  0  -0.084496  0  3.741545  0  0  -0.043909  0  3.97572  0  0  -0.049529  0  4.001979  0  -0.456508  0  -0.025287  -0.040548  0  3.957973  0
C  C92  1  0.82849086  0.40341720  0.32784154  1  0  -0.064353  0  3.731753  0  0  -0.080774  0  3.965434  0  0  -0.082044  0  3.987349  0  -0.010993  0  -0.079467  -0.079498  0  3.950298  0
C  C93  1  0.17150842  0.59658500  0.67216430  1  0  -0.064419  0  3.731699  0  0  -0.080787  0  3.965409  0  0  -0.082055  0  3.987321  0  -0.010857  0  -0.079464  -0.079512  0  3.950277  0
C  C94  1  0.74658518  0.37488105  0.39794134  1  0  -0.071759  0  3.783216  0  0  -0.081759  0  4.025744  0  0  -0.08542  0  4.049855  0  -0.123863  0  -0.088847  -0.079318  0  4.009455  0
C  C95  1  0.25341093  0.62512600  0.60206117  1  0  -0.071878  0  3.783062  0  0  -0.08185  0  4.025588  0  0  -0.085509  0  4.049698  0  -0.123379  0  -0.08893  -0.079405  0  4.009291  0
C  C96  1  0.74633574  0.42010337  0.46348859  1  0  -0.070688  0  3.776071  0  0  -0.083378  0  4.021084  0  0  -0.084419  0  4.043247  0  -0.039849  0  -0.090711  -0.082397  0  4.005546  0
C  C97  1  0.25365223  0.57991257  0.53651050  1  0  -0.070619  0  3.776096  0  0  -0.083326  0  4.021098  0  0  -0.084366  0  4.04326  0  -0.040555  0  -0.090643  -0.082344  0  4.005548  0
C  C98  1  0.82951552  0.49388124  0.45920777  1  0  -0.0823  0  3.775116  0  0  -0.091771  0  4.019575  0  0  -0.094917  0  4.041416  0  -0.068882  0  -0.094548  -0.089575  0  4.004743  0
C  C99  1  0.17047305  0.50613227  0.54079124  1  0  -0.082211  0  3.775253  0  0  -0.091691  0  4.019666  0  0  -0.094837  0  4.04151  0  -0.068773  0  -0.094544  -0.089462  0  4.004839  0
C  C100  1  0.91206375  0.52230580  0.38939146  1  0  -0.083721  0  3.754693  0  0  -0.103804  0  3.998041  0  0  -0.104569  0  4.019496  0  -0.10656  0  -0.089154  -0.103133  0  3.98362  0
C  C101  1  0.08793176  0.47770367  0.61061053  1  0  -0.083824  0  3.754608  0  0  -0.103892  0  3.99801  0  0  -0.104665  0  4.019459  0  -0.104588  0  -0.089203  -0.103215  0  3.983581  0
C  C102  1  0.74139043  0.88722577  0.20469428  1  0  -0.090907  0  3.757027  0  0  -0.050264  0  3.99255  0  0  -0.056133  0  4.018748  0  -0.50768  0  -0.031434  -0.046475  0  3.974488  0
C  C103  1  0.25860905  0.11277562  0.79530401  1  0  -0.09102  0  3.7571  0  0  -0.050352  0  3.992575  0  0  -0.056219  0  4.018771  0  -0.507659  0  -0.031473  -0.046565  0  3.974517  0
C  C104  1  0.80565874  0.87735201  0.27842389  1  0  -0.089614  0  3.773781  0  0  -0.108416  0  4.013044  0  0  -0.10934  0  4.035497  0  -0.071221  0  -0.09415  -0.107356  0  3.997287  0
C  C105  1  0.19434274  0.12264534  0.72157462  1  0  -0.089601  0  3.773812  0  0  -0.108394  0  4.013066  0  0  -0.109321  0  4.03552  0  -0.071306  0  -0.094118  -0.10733  0  3.997304  0
C  C106  1  0.92643428  0.91321403  0.27504184  1  0  -0.08451  0  3.796894  0  0  -0.093197  0  4.039749  0  0  -0.096889  0  4.062551  0  -0.064079  0  -0.094229  -0.090643  0  4.023945  0
C  C107  1  0.07356641  0.08678251  0.72495748  1  0  -0.084448  0  3.79701  0  0  -0.093146  0  4.039852  0  0  -0.096839  0  4.062659  0  -0.063953  0  -0.094207  -0.090587  0  4.024049  0
C  C108  1  0.98365531  0.95966784  0.19831833  1  0  -0.055386  0  3.748575  0  0  -0.067807  0  3.992411  0  0  -0.068606  0  4.014145  0  0.000145  0  -0.085045  -0.067057  0  3.977155  0
C  C109  1  0.01634716  0.04032951  0.80168133  1  0  -0.055398  0  3.748591  0  0  -0.067834  0  3.992413  0  0  -0.068635  0  4.014153  0  -1e-05  0  -0.085069  -0.067085  0  3.977159  0
C  C110  1  0.91826430  0.97205390  0.12505975  1  0  -0.056323  0  3.744218  0  0  -0.067991  0  3.986506  0  0  -0.071642  0  4.009686  0  -0.062016  0  -0.08454  -0.065561  0  3.970805  0
C  C111  1  0.08173638  0.02794668  0.87493985  1  0  -0.056389  0  3.744211  0  0  -0.068054  0  3.986493  0  0  -0.071716  0  4.009673  0  -0.062005  0  -0.084595  -0.065625  0  3.970795  0
C  C112  1  0.79734193  0.93634956  0.12792778  1  0  -0.06738  0  3.726789  0  0  -0.085319  0  3.964882  0  0  -0.086391  0  3.987172  0  -0.020244  0  -0.082198  -0.084411  0  3.949746  0
C  C113  1  0.20265636  0.06365264  0.87207096  1  0  -0.067353  0  3.726734  0  0  -0.085266  0  3.964803  0  0  -0.086339  0  3.987097  0  -0.020296  0  -0.08214  -0.084359  0  3.94967  0
C  C114  1  0.49742713  0.83538752  0.29667493  1  0  -0.089369  0  3.749703  0  0  -0.04775  0  3.983183  0  0  -0.053294  0  4.008558  0  -0.495797  0  -0.025892  -0.04414  0  3.965827  0
C  C115  1  0.50257256  0.16461307  0.70332293  1  0  -0.089369  0  3.749661  0  0  -0.04773  0  3.983118  0  0  -0.053284  0  4.008509  0  -0.49577  0  -0.025917  -0.044092  0  3.965728  0
C  C116  1  0.53703729  0.77157882  0.37694058  1  0  -0.078301  0  3.751362  0  0  -0.095867  0  3.989799  0  0  -0.096662  0  4.0112  0  -0.069942  0  -0.086826  -0.095463  0  3.975515  0
C  C117  1  0.46296379  0.22842015  0.62305580  1  0  -0.07839  0  3.751501  0  0  -0.09597  0  3.989942  0  0  -0.096763  0  4.011346  0  -0.070325  0  -0.086835  -0.095581  0  3.975642  0
C  C118  1  0.45427242  0.78237114  0.44536695  1  0  -0.07926  0  3.788989  0  0  -0.089214  0  4.035551  0  0  -0.092404  0  4.058179  0  -0.095493  0  -0.091821  -0.087206  0  4.020636  0
C  C119  1  0.54572964  0.21762782  0.55463117  1  0  -0.079274  0  3.78917  0  0  -0.089223  0  4.035724  0  0  -0.092413  0  4.058351  0  -0.095211  0  -0.091895  -0.087211  0  4.020815  0
C  C120  1  0.33153980  0.85646437  0.43483656  1  0  -0.062251  0  3.770562  0  0  -0.076667  0  4.01584  0  0  -0.077637  0  4.037447  0  -0.081047  0  -0.084414  -0.076065  0  4.00131  0
C  C121  1  0.66846107  0.14353541  0.56516203  1  0  -0.06231  0  3.770754  0  0  -0.076715  0  4.016021  0  0  -0.077688  0  4.037627  0  -0.081112  0  -0.084395  -0.076114  0  4.001488  0
C  C122  1  0.29119953  0.92001593  0.35526117  1  0  -0.062262  0  3.752473  0  0  -0.073418  0  3.99482  0  0  -0.076349  0  4.017325  0  0.056666  0  -0.084422  -0.07143  0  3.979106  0
C  C123  1  0.70879976  0.07998627  0.64473753  1  0  -0.062173  0  3.752386  0  0  -0.073332  0  3.994743  0  0  -0.076258  0  4.017246  0  0.056693  0  -0.084388  -0.071343  0  3.97903  0
C  C124  1  0.37336668  0.90880314  0.28670935  1  0  -0.071044  0  3.737774  0  0  -0.089123  0  3.976092  0  0  -0.090315  0  3.99771  0  -0.106966  0  -0.081334  -0.087658  0  3.960544  0
C  C125  1  0.62663260  0.09119906  0.71328994  1  0  -0.071049  0  3.737792  0  0  -0.089135  0  3.976102  0  0  -0.090326  0  3.997722  0  -0.106894  0  -0.081339  -0.087677  0  3.960542  0
C  C126  1  0.23772029  0.78112105  0.04094664  1  0  0.480682  0  4.0147  0  0  0.452862  0  4.285554  0  0  0.476457  0  4.299299  0  1.536275  0  0.29675  0.436988  0  4.275356  0
C  C127  1  0.76228159  0.21887468  0.95905222  1  0  0.480715  0  4.014797  0  0  0.452905  0  4.285633  0  0  0.476501  0  4.299376  0  1.536349  0  0.296781  0.437032  0  4.275438  0
C  C128  1  0.15153175  0.68624288  0.96757644  1  0  0.476818  0  4.006793  0  0  0.448532  0  4.280506  0  0  0.472058  0  4.293717  0  1.510294  0  0.295781  0.432355  0  4.27174  0
C  C129  1  0.84846954  0.31375123  0.03242876  1  0  0.476887  0  4.006914  0  0  0.448592  0  4.280625  0  0  0.472119  0  4.293833  0  1.510134  0  0.295798  0.432418  0  4.271858  0
C  C130  1  0.68873119  0.88581153  0.91140611  1  0  0.492039  0  3.997281  0  0  0.459465  0  4.268695  0  0  0.483614  0  4.282093  0  1.568064  0  0.29981  0.442939  0  4.25931  0
C  C131  1  0.31125899  0.11419148  0.08858926  1  0  0.492114  0  3.99707  0  0  0.45952  0  4.268478  0  0  0.483646  0  4.281872  0  1.568227  0  0.299969  0.442981  0  4.259093  0
C  C132  1  0.81451408  0.81970400  0.80967460  1  0  0.463562  0  4.006212  0  0  0.432219  0  4.290976  0  0  0.454764  0  4.304488  0  1.481999  0  0.272158  0.416778  0  4.281653  0
C  C133  1  0.18548504  0.18028688  0.19031538  1  0  0.463151  0  4.006454  0  0  0.431769  0  4.29126  0  0  0.454295  0  4.304778  0  1.482222  0  0.271871  0.416318  0  4.281926  0
N  N134  1  0.80656999  0.60575124  0.96150128  1  0  -0.263593  0  3.332766  0  0  -0.191735  0  3.613535  0  0  -0.204119  0  3.630683  0  -1.212537  0  -0.337527  -0.183178  0  3.601851  0
N  N135  1  0.19343208  0.39424368  0.03850251  1  0  -0.26361  0  3.332706  0  0  -0.191664  0  3.613419  0  0  -0.204031  0  3.630548  0  -1.212418  0  -0.337487  -0.183107  0  3.601732  0
N  N136  1  0.77684775  0.65889052  0.16560941  1  0  -0.130015  0  3.478063  0  0  -0.038624  0  3.698344  0  0  -0.058063  0  3.726555  0  -1.18309  0  -0.284051  -0.02514  0  3.678375  0
N  N137  1  0.22315274  0.34110683  0.83439271  1  0  -0.129839  0  3.47779  0  0  -0.038634  0  3.698222  0  0  -0.058077  0  3.726425  0  -1.182685  0  -0.28401  -0.025151  0  3.678255  0
N  N138  1  0.28538879  0.84867274  0.05464088  1  0  -0.570167  0  2.891461  0  0  -0.524846  0  3.186859  0  0  -0.543298  0  3.189656  0  -1.23876  0  -0.415066  -0.512326  0  3.18464  0
N  N139  1  0.71461743  0.15132542  0.94535604  1  0  -0.570213  0  2.891618  0  0  -0.524887  0  3.186972  0  0  -0.543335  0  3.189765  0  -1.238939  0  -0.415112  -0.512365  0  3.184754  0
N  N140  1  0.18364983  0.70303579  0.03522108  1  0  -0.474653  0  3.313215  0  0  -0.418386  0  3.566506  0  0  -0.442486  0  3.572684  0  -1.32349  0  -0.315507  -0.401719  0  3.561532  0
N  N141  1  0.81634690  0.29696074  0.96478318  1  0  -0.474672  0  3.313142  0  0  -0.418411  0  3.566439  0  0  -0.442522  0  3.572614  0  -1.323313  0  -0.315532  -0.401753  0  3.561474  0
N  N142  1  0.11723154  0.66141172  0.91157425  1  0  -0.557613  0  2.897014  0  0  -0.510958  0  3.188784  0  0  -0.52947  0  3.191823  0  -1.231844  0  -0.416283  -0.498403  0  3.187131  0
N  N143  1  0.88277232  0.33857996  0.08842781  1  0  -0.557644  0  2.897125  0  0  -0.51098  0  3.188878  0  0  -0.529489  0  3.191914  0  -1.231773  0  -0.416267  -0.498423  0  3.18722  0
N  N144  1  0.59640049  0.90891391  0.95471756  1  0  -0.598541  0  2.974975  0  0  -0.544837  0  3.29367  0  0  -0.563164  0  3.292888  0  -1.284361  0  -0.43061  -0.532291  0  3.294142  0
N  N145  1  0.40359444  0.09108990  0.04527800  1  0  -0.59861  0  2.974892  0  0  -0.54491  0  3.293596  0  0  -0.563234  0  3.292823  0  -1.284242  0  -0.430722  -0.53237  0  3.294081  0
N  N146  1  0.79492910  0.87176057  0.86584425  1  0  -0.454795  0  3.310854  0  0  -0.396886  0  3.561122  0  0  -0.421683  0  3.569085  0  -1.343636  0  -0.310852  -0.379547  0  3.554953  0
N  N147  1  0.20506386  0.12824325  0.13415260  1  0  -0.45454  0  3.311523  0  0  -0.396563  0  3.561708  0  0  -0.421312  0  3.569666  0  -1.344621  0  -0.310759  -0.3792  0  3.555519  0
N  N148  1  0.84492459  0.77457547  0.75743907  1  0  -0.585649  0  2.623848  0  0  -0.55678  0  2.863543  0  0  -0.572231  0  2.868821  0  -1.20051  0  -0.400333  -0.546274  0  2.860207  0
N  N149  1  0.15507649  0.22541945  0.24256476  1  0  -0.585528  0  2.623136  0  0  -0.556652  0  2.862855  0  0  -0.572111  0  2.868148  0  -1.200047  0  -0.400186  -0.54614  0  2.859512  0
