# generated using pymatgen
data_ZnH3C16Br3NO7
_symmetry_space_group_name_H-M   'P 1'
_cell_length_a   10.21677728
_cell_length_b   10.89721188
_cell_length_c   11.62144297
_cell_angle_alpha   86.48267259
_cell_angle_beta   85.22326396
_cell_angle_gamma   76.82526392
_symmetry_Int_Tables_number   1
_chemical_formula_structural   ZnH3C16Br3NO7
_chemical_formula_sum   'Zn2 H6 C32 Br6 N2 O14'
_cell_volume   1254.23783710
_cell_formula_units_Z   2
loop_
 _symmetry_equiv_pos_site_id
 _symmetry_equiv_pos_as_xyz
  1  'x, y, z'
loop_
 _atom_site_type_symbol
 _atom_site_label
 _atom_site_symmetry_multiplicity
 _atom_site_fract_x
 _atom_site_fract_y
 _atom_site_fract_z
 _atom_site_occupancy
 _atom_site_pbe_bader_charge
 _atom_site_pbe_bader_spin_density
 _atom_site_pbe_cm5_charge
 _atom_site_pbe_ddec_charge
 _atom_site_pbe_ddec_spin_density
 _atom_site_pbe_ddec_sum_bond_order
 _atom_site_pbe_magmom
Zn  Zn0  1  0.64065588  0.47154235  0.47936217  1  1.30132  0  0.679668  0.863373  0  2.28371  0
Zn  Zn1  1  0.34005976  0.53311202  0.49026412  1  1.310715  0  0.687796  0.899184  0  2.220054  0
H  H2  1  0.30246970  0.18758052  0.62631338  1  0.060157  0  0.100979  0.036575  0  1.003287  0
H  H3  1  0.82721020  0.23402806  0.97277686  1  0.122733  0  0.092926  0.033541  0  1.033021  0
H  H4  1  0.70876827  0.27830429  0.63393762  1  0.16417  0  0.114021  0.070128  0  1.024822  0
H  H5  1  0.78148226  0.47558792  0.31116997  1  0.082952  0  0.097972  0.043089  0  1.05487  0
H  H6  1  0.34205220  0.81079325  0.59017407  1  0.08496  0  0.109842  0.068523  0  1.006534  0
H  H7  1  0.30682135  0.37559707  0.65172342  1  0.104178  0  0.100718  0.034349  0  1.092367  0
C  C8  1  0.53620253  0.25888961  0.46061893  1  1.556797  0  0.21701  0.598145  0  4.124631  0
C  C9  1  0.51574634  0.87360428  0.41030389  1  -0.056167  0  0.012357  -0.04148  0  3.847376  0
C  C10  1  0.10987663  0.40127398  0.74305578  1  0.054924  0  -0.008236  -0.076141  0  3.914784  0
C  C11  1  0.46083453  0.54913503  0.69817729  1  1.645863  0  0.237184  0.669314  0  4.197419  0
C  C12  1  0.02838003  0.37838507  0.84082534  1  -0.077766  0  0.016653  0.06776  0  3.901316  0
C  C13  1  0.89714759  0.36069861  0.83078871  1  0.029738  0  0.012267  0.007705  0  3.903195  0
C  C14  1  0.84658917  0.36607147  0.72279306  1  0.040398  0  0.0056  -0.04346  0  3.888805  0
C  C15  1  0.91399723  0.41686809  0.62465556  1  0.517671  0  0.131089  0.149037  0  3.919335  0
C  C16  1  0.04587769  0.43901678  0.63718948  1  0.501694  0  0.142178  0.18294  0  3.908913  0
C  C17  1  0.03395203  0.55118371  0.46303284  1  0.591884  0  0.147243  0.207843  0  3.927076  0
C  C18  1  0.92259950  0.50211082  0.43677728  1  0.592862  0  0.129643  0.113736  0  3.913724  0
C  C19  1  0.82696390  0.00327081  0.21259925  1  -0.048948  0  -0.026523  0.02744  0  3.969168  0
C  C20  1  0.51945167  0.73343690  0.42917721  1  1.607231  0  0.206838  0.582123  0  4.195012  0
C  C21  1  0.43404823  0.50230829  0.27105513  1  1.672111  0  0.21582  0.649149  0  4.229101  0
C  C22  1  0.45474805  0.56042086  0.82056076  1  0.302227  0  -0.010876  -0.147879  0  3.836933  0
C  C23  1  0.44736346  0.55027792  0.92617550  1  -0.37073  0  0.013386  0.078232  0  4.169739  0
C  C24  1  0.43951872  0.53452054  0.04211889  1  -0.277061  0  0.00167  0.045557  0  4.177637  0
C  C25  1  0.43369572  0.51684595  0.14721604  1  0.231685  0  -0.00766  -0.124513  0  3.834595  0
C  C26  1  0.72530945  0.09196972  0.26953354  1  0.008587  0  -0.026715  0.002002  0  3.907047  0
C  C27  1  0.29504557  0.17234258  0.53377280  1  1.01769  0  0.091431  0.298476  0  3.999804  0
C  C28  1  0.81330092  0.33321642  0.93918065  1  0.971882  0  0.089447  0.26447  0  4.009603  0
C  C29  1  0.73393187  0.30173208  0.71924905  1  0.905482  0  0.102445  0.280239  0  3.9109  0
C  C30  1  0.80480676  0.88313879  0.19227542  1  -0.023046  0  -0.037371  -0.001343  0  4.018634  0
C  C31  1  0.88059401  0.50066243  0.31719065  1  0.996021  0  0.101052  0.245069  0  3.943152  0
C  C32  1  0.32673585  0.91284569  0.56862038  1  0.945837  0  0.098974  0.270144  0  3.908905  0
C  C33  1  0.25866005  0.37508555  0.74013285  1  0.911857  0  0.078309  0.261886  0  3.994451  0
C  C34  1  0.68923291  0.85000583  0.24346264  1  -0.051659  0  -0.024468  0.008247  0  3.940488  0
C  C35  1  0.60921545  0.92292028  0.33309944  1  0.098392  0  -0.004296  0.020402  0  3.924407  0
C  C36  1  0.62178089  0.05250598  0.34307717  1  0.035714  0  0.00527  0.046448  0  3.887631  0
C  C37  1  0.52482343  0.13248993  0.42025515  1  0.01801  0  -0.001491  -0.091978  0  3.834124  0
C  C38  1  0.41703089  0.08704074  0.47390113  1  -0.00745  0  0.013394  0.027186  0  3.867827  0
C  C39  1  0.41946910  0.95591370  0.47813808  1  0.016541  0  -0.010717  -0.035477  0  3.947804  0
Br  Br40  1  0.71329564  0.26067665  0.21581862  1  0.056836  0  0.097883  0.054567  0  1.865198  0
Br  Br41  1  0.98593361  0.04902052  0.14807810  1  0.010076  0  0.051323  -0.025532  0  1.58848  0
Br  Br42  1  0.91916269  0.78033710  0.08344476  1  0.039601  0  0.059508  0.005569  0  1.619489  0
Br  Br43  1  0.62573816  0.72214050  0.17864385  1  0.039587  0  0.091781  0.042949  0  1.735181  0
Br  Br44  1  0.06839943  0.69583397  0.38057286  1  0.085112  0  0.135179  0.063596  0  1.568772  0
Br  Br45  1  0.08926461  0.36330610  0.99086335  1  0.089023  0  0.124846  0.08089  0  1.536735  0
N  N46  1  0.10269815  0.50922771  0.55374466  1  -1.175983  0  -0.280165  -0.27916  0  3.364222  0
N  N47  1  0.85924232  0.44338718  0.52040571  1  -1.200192  0  -0.265267  -0.218342  0  3.357938  0
O  O48  1  0.65242130  0.28355378  0.46406168  1  -1.141327  0  -0.311544  -0.541441  0  2.382279  0
O  O49  1  0.74718520  0.42254071  0.99290116  1  -1.075143  0  -0.254237  -0.346455  0  2.217867  0
O  O50  1  0.68094612  0.26360834  0.80917104  1  -1.036349  0  -0.219286  -0.290792  0  2.137341  0
O  O51  1  0.95293935  0.51553283  0.23130670  1  -1.04494  0  -0.230529  -0.304761  0  2.242517  0
O  O52  1  0.23787136  0.98810025  0.62236063  1  -1.048746  0  -0.236962  -0.321811  0  2.138702  0
O  O53  1  0.32708464  0.34406095  0.82319155  1  -1.047548  0  -0.244795  -0.33074  0  2.195066  0
O  O54  1  0.42756263  0.33275303  0.49798223  1  -1.18096  0  -0.300048  -0.548259  0  2.39608  0
O  O55  1  0.57528678  0.50364495  0.64731154  1  -1.151578  0  -0.28919  -0.529764  0  2.367869  0
O  O56  1  0.34886293  0.58220595  0.64963452  1  -1.127991  0  -0.298038  -0.529258  0  2.327937  0
O  O57  1  0.63301167  0.66042555  0.44979576  1  -1.149504  0  -0.319784  -0.546507  0  2.331231  0
O  O58  1  0.40716748  0.70223654  0.43166749  1  -1.163724  0  -0.308961  -0.566717  0  2.386509  0
O  O59  1  0.54586415  0.49122663  0.31487775  1  -1.154914  0  -0.302196  -0.566191  0  2.443973  0
O  O60  1  0.32018294  0.50450567  0.32726173  1  -1.10924  0  -0.305808  -0.510572  0  2.315166  0
O  O61  1  0.19631904  0.22189329  0.48084755  1  -1.101551  0  -0.288539  -0.381309  0  2.129355  0
