# generated using pymatgen
data_Cu2H5C9SN7O4
_symmetry_space_group_name_H-M   'P 1'
_cell_length_a   12.99461825
_cell_length_b   20.24628598
_cell_length_c   20.25006147
_cell_angle_alpha   115.56252308
_cell_angle_beta   102.34693729
_cell_angle_gamma   102.33784213
_symmetry_Int_Tables_number   1
_chemical_formula_structural   Cu2H5C9SN7O4
_chemical_formula_sum   'Cu12 H30 C54 S6 N42 O24'
_cell_volume   4402.96892644
_cell_formula_units_Z   6
loop_
 _symmetry_equiv_pos_site_id
 _symmetry_equiv_pos_as_xyz
  1  'x, y, z'
loop_
 _atom_site_type_symbol
 _atom_site_label
 _atom_site_symmetry_multiplicity
 _atom_site_fract_x
 _atom_site_fract_y
 _atom_site_fract_z
 _atom_site_occupancy
 _atom_site_pbe_bader_charge
 _atom_site_pbe_bader_spin_density
 _atom_site_pbe_cm5_charge
 _atom_site_pbe_ddec_charge
 _atom_site_pbe_ddec_spin_density
 _atom_site_pbe_ddec_sum_bond_order
 _atom_site_pbe_magmom
Cu  Cu0  1  0.69985947  0.31398391  0.82429621  1  1.041401  0.545435  0.784809  0.720063  0.705576  2.2962  0.544
Cu  Cu1  1  0.54728217  0.08776792  0.61271702  1  1.043377  0.540834  0.780456  0.693605  0.698999  2.284338  0.543
Cu  Cu2  1  0.38562695  0.51040164  0.68615149  1  1.044273  0.545787  0.786288  0.721919  0.705855  2.296949  0.544
Cu  Cu3  1  0.45938367  0.52497992  0.91226069  1  1.044008  0.540705  0.77935  0.690528  0.69867  2.285704  0.543
Cu  Cu4  1  0.87538154  0.17557054  0.48949182  1  1.040284  0.545377  0.78485  0.719603  0.704925  2.295525  0.544
Cu  Cu5  1  0.93447246  0.38726052  0.47506090  1  1.044213  0.540477  0.779981  0.691552  0.698683  2.284869  0.542
Cu  Cu6  1  0.30014047  0.68601823  0.17570465  1  1.041246  0.545435  0.784842  0.720062  0.70558  2.296252  0.544
Cu  Cu7  1  0.45271963  0.91223480  0.38728534  1  1.04337  0.540829  0.78047  0.693579  0.69899  2.284269  0.543
Cu  Cu8  1  0.61437360  0.48959700  0.31384794  1  1.044244  0.54579  0.78631  0.721896  0.70586  2.297081  0.544
Cu  Cu9  1  0.54061314  0.47501755  0.08773822  1  1.043933  0.540698  0.779325  0.690528  0.698663  2.285682  0.543
Cu  Cu10  1  0.12461801  0.82442927  0.51050600  1  1.040213  0.545375  0.78484  0.719619  0.704921  2.295494  0.544
Cu  Cu11  1  0.06553024  0.61273928  0.52493982  1  1.044169  0.540481  0.780016  0.691593  0.698687  2.28491  0.542
H  H12  1  0.85267735  0.48457851  0.94910222  1  0.111429  0.002565  0.116861  0.083965  0.001223  1.00359  0.002
H  H13  1  0.02321826  0.58026563  0.96023578  1  0.116627  0.001412  0.116456  0.122603  0.000723  0.975645  0.001
H  H14  1  0.10857378  0.53639554  0.85484625  1  0.187481  0.000381  0.11274  0.12184  0.000383  1.038717  0.0
H  H15  1  0.02327273  0.39801699  0.74541323  1  0.136703  0.001287  0.125305  0.150506  0.000709  0.96372  0.001
H  H16  1  0.67119019  0.99933845  0.36879066  1  0.205422  0.001242  0.155326  0.138081  0.000533  0.958582  0.001
H  H17  1  0.36715898  0.46441282  0.51548229  1  0.108601  0.002567  0.117078  0.084246  0.001224  1.002047  0.002
H  H18  1  0.44197772  0.37989026  0.41966271  1  0.069632  0.001443  0.116592  0.122463  0.000723  0.976331  0.001
H  H19  1  0.57130661  0.31825556  0.46332882  1  0.178269  0.000381  0.114208  0.124218  0.000382  1.035793  0.0
H  H20  1  0.62439316  0.34710653  0.60167610  1  0.139684  0.001284  0.124539  0.150273  0.000708  0.964128  0.001
H  H21  1  0.67200419  0.36945172  0.00055716  1  0.193532  0.001255  0.155686  0.138795  0.000536  0.958589  0.001
H  H22  1  0.90331895  0.05086828  0.53544403  1  0.085968  0.002598  0.117353  0.084442  0.001225  1.003011  0.002
H  H23  1  0.06257699  0.03968865  0.62005734  1  0.072157  0.001434  0.11672  0.123002  0.000721  0.975706  0.001
H  H24  1  0.25338261  0.14516246  0.68175118  1  0.179989  0.000387  0.113017  0.122793  0.000393  1.037955  0.0
H  H25  1  0.27741862  0.25460239  0.65278370  1  0.164484  0.001264  0.12397  0.148873  0.000709  0.964096  0.001
H  H26  1  0.30206358  0.63122623  0.63086569  1  0.208725  0.001252  0.15584  0.138682  0.000539  0.957173  0.001
H  H27  1  0.14732278  0.51542246  0.05089817  1  0.111446  0.002564  0.116858  0.083984  0.001223  1.003546  0.002
H  H28  1  0.97678391  0.41973944  0.03976912  1  0.116717  0.001412  0.116455  0.122581  0.000723  0.975689  0.001
H  H29  1  0.89142948  0.46361011  0.14515756  1  0.187523  0.000381  0.112745  0.121868  0.000383  1.038741  0.0
H  H30  1  0.97673102  0.60198807  0.25458942  1  0.136839  0.001287  0.125272  0.150449  0.000709  0.963691  0.001
H  H31  1  0.32881172  0.00066136  0.63121094  1  0.205418  0.001242  0.155334  0.138098  0.000533  0.95856  0.001
H  H32  1  0.63284147  0.53558407  0.48451588  1  0.108905  0.002567  0.117054  0.084184  0.001224  1.002109  0.002
H  H33  1  0.55802795  0.62010604  0.58033840  1  0.069542  0.001443  0.116559  0.122414  0.000723  0.976358  0.001
H  H34  1  0.42869807  0.68174192  0.53667266  1  0.179795  0.000381  0.11418  0.124285  0.000382  1.035767  0.0
H  H35  1  0.37560601  0.65289095  0.39832462  1  0.139571  0.001284  0.124558  0.150284  0.000708  0.964175  0.001
H  H36  1  0.32799703  0.63054983  0.99944412  1  0.193579  0.001255  0.155681  0.138781  0.000536  0.958597  0.001
H  H37  1  0.09667500  0.94912978  0.46455425  1  0.086132  0.002598  0.11736  0.084455  0.001225  1.002989  0.002
H  H38  1  0.93741912  0.96031057  0.37994223  1  0.072166  0.001434  0.116742  0.123073  0.000721  0.975621  0.001
H  H39  1  0.74661341  0.85483501  0.31824712  1  0.180043  0.000387  0.113009  0.122759  0.000393  1.038057  0.0
H  H40  1  0.72257860  0.74539275  0.34721179  1  0.164635  0.001263  0.12396  0.148805  0.000709  0.964141  0.001
H  H41  1  0.69794050  0.36877475  0.36913376  1  0.208519  0.001252  0.155846  0.138682  0.000539  0.957233  0.001
C  C42  1  0.89324671  0.46813916  0.90549966  1  0.48524  0.000402  0.046618  0.094962  8e-06  3.988116  0.0
C  C43  1  0.98830395  0.52064744  0.91124892  1  -0.035669  0.004262  -0.080266  -0.135951  0.00289  3.969719  0.004
C  C44  1  0.03594271  0.49603147  0.85318441  1  -0.036285  -0.001524  -0.051195  0.000225  -0.001956  3.896826  -0.001
C  C45  1  0.98778614  0.41917822  0.79138460  1  -0.03756  0.003867  -0.061645  -0.121465  0.002795  3.854944  0.003
C  C46  1  0.89194286  0.37003603  0.78897680  1  0.473453  0.001172  0.127685  0.17086  0.000384  3.995932  0.001
C  C47  1  0.82845642  0.29013797  0.72649262  1  0.995477  0.002206  0.216154  0.2383  0.001212  4.045644  0.005
C  C48  1  0.75402558  0.18251337  0.62404864  1  1.033945  0.002525  0.217065  0.223519  0.001476  4.091713  0.005
C  C49  1  0.71263686  0.11495723  0.54718731  1  1.01532  0.001888  0.224612  0.239375  0.000931  4.063373  0.004
C  C50  1  0.67161440  0.03035759  0.42792850  1  0.996719  0.000562  0.16805  0.186635  -0.000162  3.863306  0.004
C  C51  1  0.42410106  0.43714453  0.53179044  1  0.443053  0.000495  0.047749  0.095716  1e-05  3.986177  0.0
C  C52  1  0.46654180  0.39033250  0.47919801  1  0.025377  0.004173  -0.080018  -0.134653  0.002892  3.970274  0.004
C  C53  1  0.53892254  0.35689088  0.50371493  1  -0.056597  -0.00149  -0.053244  -0.002528  -0.001909  3.89617  -0.001
C  C54  1  0.56770704  0.37193419  0.58056057  1  0.008102  0.003863  -0.060995  -0.121854  0.0028  3.854242  0.003
C  C55  1  0.52113658  0.41874088  0.62980484  1  0.479691  0.001175  0.128391  0.171317  0.000402  3.991951  0.001
C  C56  1  0.53776207  0.43624391  0.70974671  1  0.995293  0.002187  0.214969  0.237203  0.001228  4.042905  0.005
C  C57  1  0.57140771  0.44160259  0.81746340  1  1.048385  0.002467  0.211763  0.214512  0.001492  4.097335  0.005
C  C58  1  0.59768863  0.43228346  0.88501235  1  1.039842  0.001847  0.226965  0.242371  0.000899  4.060099  0.004
C  C59  1  0.64142366  0.39762806  0.96959646  1  0.987282  0.000696  0.16611  0.18421  -0.00014  3.861957  0.004
C  C60  1  0.98745233  0.09448327  0.56270926  1  0.473833  0.000452  0.047136  0.095898  1.4e-05  3.988484  0.0
C  C61  1  0.07669469  0.08874760  0.60953800  1  0.015994  0.004212  -0.080151  -0.135027  0.002894  3.970627  0.004
C  C62  1  0.18240183  0.14678984  0.64299790  1  -0.056283  -0.001476  -0.052036  -0.003065  -0.001899  3.897799  -0.001
C  C63  1  0.19601222  0.20860258  0.62795704  1  -0.03072  0.003901  -0.060785  -0.119331  0.002801  3.853677  0.003
C  C64  1  0.10262462  0.21096092  0.58111813  1  0.472231  0.001184  0.127881  0.169451  0.00041  3.993715  0.001
C  C65  1  0.10164382  0.27342483  0.56366692  1  0.983855  0.002227  0.214367  0.237799  0.001238  4.044032  0.005
C  C66  1  0.12973555  0.37583375  0.55841442  1  1.031563  0.002429  0.215023  0.217264  0.001472  4.096875  0.005
C  C67  1  0.16526309  0.45273723  0.56781363  1  1.035797  0.001869  0.223686  0.238599  0.000912  4.067018  0.004
C  C68  1  0.24339606  0.57206259  0.60267753  1  0.989256  0.000572  0.168189  0.187389  -0.000186  3.85876  0.004
C  C69  1  0.10675508  0.53186357  0.09450220  1  0.485066  0.000402  0.046648  0.095001  8e-06  3.988149  0.0
C  C70  1  0.01169566  0.47935879  0.08875415  1  -0.035422  0.004262  -0.080304  -0.135988  0.002891  3.969752  0.004
C  C71  1  0.96405888  0.50397242  0.14681892  1  -0.03625  -0.001525  -0.051173  0.000148  -0.001957  3.896781  -0.001
C  C72  1  0.01221703  0.58082568  0.20861844  1  -0.037827  0.003867  -0.061597  -0.121277  0.002795  3.854769  0.003
C  C73  1  0.10805766  0.62996728  0.21102366  1  0.473472  0.001172  0.127651  0.170775  0.000384  3.996067  0.001
C  C74  1  0.17154509  0.70986417  0.27350846  1  0.995533  0.002206  0.216145  0.238298  0.001212  4.045784  0.005
C  C75  1  0.24597237  0.81749111  0.37595049  1  1.033883  0.002525  0.217124  0.223565  0.001476  4.091699  0.005
C  C76  1  0.28736129  0.88504608  0.45281233  1  1.014984  0.001892  0.224528  0.239215  0.000933  4.063559  0.004
C  C77  1  0.32838366  0.96964397  0.57207186  1  0.996659  0.000564  0.168096  0.18666  -0.00016  3.863209  0.004
C  C78  1  0.57590027  0.56285411  0.46820960  1  0.442958  0.000495  0.047747  0.095742  1e-05  3.986269  0.0
C  C79  1  0.53345856  0.60966264  0.52080236  1  0.025213  0.004173  -0.07995  -0.134487  0.002892  3.970314  0.004
C  C80  1  0.46107762  0.64310543  0.49628542  1  -0.058077  -0.001491  -0.053213  -0.002721  -0.00191  3.896337  -0.001
C  C81  1  0.43229292  0.62806328  0.41944025  1  0.008217  0.003863  -0.061064  -0.121829  0.0028  3.854426  0.003
C  C82  1  0.47886151  0.58125601  0.37019498  1  0.47952  0.001176  0.128406  0.171335  0.000402  3.992226  0.001
C  C83  1  0.46223199  0.56375122  0.29025378  1  0.995485  0.002186  0.214969  0.237022  0.001227  4.04305  0.005
C  C84  1  0.42859586  0.55839897  0.18254018  1  1.048056  0.002466  0.211821  0.21459  0.001492  4.097267  0.005
C  C85  1  0.40230444  0.56771285  0.11498751  1  1.039739  0.001849  0.226929  0.242226  0.000901  4.060165  0.004
C  C86  1  0.35857627  0.60237408  0.03040588  1  0.987215  0.000695  0.166114  0.184205  -0.000141  3.861806  0.004
C  C87  1  0.01254291  0.90551420  0.43728548  1  0.473821  0.000451  0.047087  0.095864  1.4e-05  3.988498  0.0
C  C88  1  0.92329798  0.91125104  0.39045986  1  0.015996  0.004213  -0.080135  -0.135077  0.002895  3.970729  0.004
C  C89  1  0.81759381  0.85320529  0.35699787  1  -0.056426  -0.001475  -0.052085  -0.003084  -0.001898  3.898013  -0.001
C  C90  1  0.80398471  0.79139197  0.37203865  1  -0.031046  0.0039  -0.060749  -0.119196  0.0028  3.853556  0.003
C  C91  1  0.89737484  0.78903713  0.41887942  1  0.472566  0.001182  0.127912  0.169516  0.000411  3.993638  0.001
C  C92  1  0.89835763  0.72657089  0.43632891  1  0.983885  0.002229  0.214367  0.237688  0.001241  4.044223  0.005
C  C93  1  0.87026558  0.62416606  0.44158559  1  1.031212  0.002434  0.215006  0.217287  0.001472  4.096781  0.005
C  C94  1  0.83474128  0.54726433  0.43218709  1  1.036026  0.001868  0.223776  0.238723  0.000912  4.066837  0.004
C  C95  1  0.75660279  0.42793897  0.39732293  1  0.989628  0.000572  0.168181  0.187423  -0.000185  3.858871  0.004
S  S96  1  0.48115299  0.18319175  0.75123234  1  3.761586  -0.003867  0.538194  1.372925  -0.004419  6.404125  -0.006
S  S97  1  0.29789166  0.56820153  0.81678550  1  3.746156  -0.003991  0.537889  1.373396  -0.004373  6.406384  -0.006
S  S98  1  0.72952488  0.24850431  0.43184295  1  3.764967  -0.003944  0.537529  1.374616  -0.004444  6.410018  -0.006
S  S99  1  0.51884764  0.81680864  0.24876737  1  3.761805  -0.003869  0.538189  1.372884  -0.004418  6.404297  -0.006
S  S100  1  0.70210997  0.43179770  0.18321482  1  3.746118  -0.003992  0.537866  1.373369  -0.004374  6.406422  -0.006
S  S101  1  0.27047724  0.75149433  0.56815423  1  3.76532  -0.003944  0.537458  1.374468  -0.004443  6.410344  -0.006
N  N102  1  0.84567617  0.39471341  0.84552241  1  -1.23847  0.086795  -0.342442  -0.297694  0.057778  3.621639  0.075
N  N103  1  0.73476061  0.25218409  0.73256695  1  -0.682044  0.08545  -0.261744  -0.206071  0.058232  3.559714  0.073
N  N104  1  0.68631553  0.18270116  0.66649314  1  -0.698397  0.078738  -0.253266  -0.207166  0.054094  3.512716  0.068
N  N105  1  0.84421288  0.24793535  0.65911350  1  -1.134241  0.011068  -0.317097  -0.365319  0.006921  3.134361  0.008
N  N106  1  0.61501339  0.06034427  0.52709845  1  -0.743381  0.078156  -0.264872  -0.251988  0.053827  3.519988  0.067
N  N107  1  0.58913876  0.00620194  0.45092910  1  -0.736882  0.084083  -0.264175  -0.165945  0.057659  3.563934  0.073
N  N108  1  0.75123659  0.09808584  0.48716656  1  -1.202216  0.073331  -0.365915  -0.332007  0.049368  3.564599  0.063
N  N109  1  0.45024773  0.45069171  0.60524385  1  -1.226772  0.086825  -0.343714  -0.299011  0.057794  3.623075  0.075
N  N110  1  0.48219421  0.48036590  0.74783260  1  -0.692855  0.085544  -0.259512  -0.204358  0.058118  3.557723  0.073
N  N111  1  0.50351549  0.48389059  0.81736488  1  -0.702622  0.078716  -0.25108  -0.202333  0.054105  3.514286  0.068
N  N112  1  0.59588016  0.41110284  0.75191561  1  -1.149279  0.011079  -0.315653  -0.362297  0.006923  3.133478  0.008
N  N113  1  0.55463386  0.46676219  0.93964327  1  -0.746093  0.078191  -0.265165  -0.251316  0.053922  3.518701  0.068
N  N114  1  0.58301494  0.44474074  0.99377240  1  -0.720661  0.08394  -0.263038  -0.165067  0.057646  3.562454  0.073
N  N115  1  0.65325622  0.38916478  0.90185819  1  -1.209967  0.073379  -0.367174  -0.332378  0.049421  3.561948  0.063
N  N116  1  0.99988286  0.15437296  0.54913903  1  -1.211242  0.086734  -0.342757  -0.297446  0.057797  3.622825  0.075
N  N117  1  0.00195513  0.26732687  0.51952643  1  -0.694406  0.085425  -0.259387  -0.20525  0.058064  3.556737  0.073
N  N118  1  0.01964054  0.33337221  0.51605751  1  -0.706132  0.078813  -0.252788  -0.203466  0.054221  3.514096  0.068
N  N119  1  0.18477074  0.34080879  0.58889552  1  -1.121044  0.011033  -0.315783  -0.362173  0.006909  3.133309  0.008
N  N120  1  0.08776603  0.47284057  0.53325040  1  -0.738798  0.078271  -0.264698  -0.25001  0.054014  3.519794  0.068
N  N121  1  0.13799822  0.54905916  0.55542642  1  -0.727289  0.084035  -0.264407  -0.166229  0.057748  3.561441  0.073
N  N122  1  0.26377147  0.51279081  0.61111157  1  -1.216571  0.073531  -0.366815  -0.333765  0.049452  3.566416  0.063
N  N123  1  0.15432750  0.60528990  0.15447947  1  -1.238507  0.086797  -0.342471  -0.297702  0.057779  3.621692  0.075
N  N124  1  0.26524218  0.74781747  0.26743405  1  -0.681985  0.085451  -0.261702  -0.206042  0.058232  3.559696  0.073
N  N125  1  0.31368291  0.81730274  0.33350630  1  -0.698507  0.078739  -0.253343  -0.207185  0.054094  3.512691  0.068
N  N126  1  0.15578606  0.75206796  0.34088576  1  -1.134182  0.011067  -0.317078  -0.365335  0.006921  3.134476  0.008
N  N127  1  0.38498633  0.93965904  0.47290239  1  -0.743186  0.078157  -0.264837  -0.251865  0.053828  3.520044  0.067
N  N128  1  0.41085989  0.99380078  0.54907134  1  -0.736852  0.084084  -0.264208  -0.166054  0.057659  3.564082  0.073
N  N129  1  0.24876019  0.90191631  0.51283190  1  -1.202058  0.073326  -0.36591  -0.331956  0.049365  3.564493  0.063
N  N130  1  0.54975360  0.54930693  0.39475619  1  -1.226787  0.086828  -0.34369  -0.298979  0.057797  3.623167  0.075
N  N131  1  0.51779957  0.51962865  0.25216760  1  -0.692271  0.085544  -0.259559  -0.204191  0.058117  3.557667  0.073
N  N132  1  0.49648995  0.51611156  0.18263921  1  -0.703096  0.078713  -0.251109  -0.202448  0.054103  3.514493  0.068
N  N133  1  0.40411989  0.58889638  0.24808746  1  -1.149015  0.011078  -0.315664  -0.362283  0.006922  3.13345  0.008
N  N134  1  0.44535813  0.53323354  0.06035571  1  -0.746042  0.078188  -0.265172  -0.251247  0.053921  3.518678  0.068
N  N135  1  0.41698275  0.55525848  0.00622887  1  -0.720562  0.08394  -0.26301  -0.164982  0.057647  3.562329  0.073
N  N136  1  0.34674284  0.61083561  0.09814377  1  -1.209987  0.073382  -0.367157  -0.332371  0.049423  3.561955  0.063
N  N137  1  0.00011346  0.84562509  0.45085661  1  -1.211251  0.08674  -0.342723  -0.297483  0.057799  3.62284  0.075
N  N138  1  0.99804699  0.73267177  0.48046927  1  -0.694654  0.085421  -0.259385  -0.205124  0.058061  3.556868  0.073
N  N139  1  0.98036117  0.66662877  0.48394260  1  -0.705468  0.078808  -0.252792  -0.203603  0.05422  3.514111  0.068
N  N140  1  0.81523109  0.65918927  0.41110136  1  -1.12099  0.011031  -0.315829  -0.362194  0.006908  3.133368  0.008
N  N141  1  0.91223480  0.52715865  0.46674933  1  -0.739141  0.078276  -0.264706  -0.249983  0.054016  3.519798  0.068
N  N142  1  0.86199876  0.45094182  0.44457452  1  -0.727553  0.084036  -0.264404  -0.16626  0.057748  3.561399  0.073
N  N143  1  0.73622925  0.48721133  0.38888693  1  -1.216469  0.073532  -0.366861  -0.333873  0.049453  3.566351  0.063
O  O144  1  0.58998441  0.23086191  0.82189900  1  -1.229788  0.140495  -0.375894  -0.609428  0.088524  2.258129  0.124
O  O145  1  0.46543250  0.22543534  0.70875687  1  -1.315693  0.023055  -0.372331  -0.670702  0.014101  2.114741  0.02
O  O146  1  0.38954519  0.16194732  0.77716741  1  -1.287967  0.085656  -0.344283  -0.570112  0.054769  2.023583  0.073
O  O147  1  0.49587585  0.10630834  0.69908338  1  -1.22424  0.148408  -0.375209  -0.623551  0.093573  2.323813  0.132
O  O148  1  0.35951349  0.59142952  0.76942783  1  -1.225535  0.140505  -0.375786  -0.610035  0.088554  2.256433  0.123
O  O149  1  0.23984107  0.48347220  0.77426687  1  -1.317936  0.022844  -0.372385  -0.671088  0.013954  2.116088  0.02
O  O150  1  0.22746868  0.61535606  0.83800283  1  -1.279202  0.085604  -0.344539  -0.570663  0.054716  2.024278  0.073
O  O151  1  0.38913293  0.59269322  0.89369881  1  -1.223597  0.148454  -0.37475  -0.622708  0.093566  2.3266  0.132
O  O152  1  0.76810100  0.17797985  0.40864137  1  -1.222134  0.140679  -0.376337  -0.609997  0.08857  2.258132  0.124
O  O153  1  0.75582202  0.29053516  0.51651222  1  -1.329092  0.023015  -0.371269  -0.669873  0.014104  2.116578  0.02
O  O154  1  0.61204463  0.22249914  0.38451677  1  -1.29048  0.086398  -0.343379  -0.570732  0.055241  2.023756  0.074
O  O155  1  0.79636328  0.30111285  0.40756948  1  -1.220567  0.148037  -0.375484  -0.624523  0.093196  2.328274  0.131
O  O156  1  0.41001552  0.76914024  0.17810136  1  -1.229954  0.140496  -0.375867  -0.609412  0.088523  2.258182  0.124
O  O157  1  0.53456589  0.77456213  0.29123979  1  -1.315715  0.023054  -0.372364  -0.670714  0.0141  2.114771  0.02
O  O158  1  0.61045731  0.83805365  0.22283429  1  -1.287932  0.085655  -0.344275  -0.570064  0.054767  2.023619  0.073
O  O159  1  0.50412665  0.89369263  0.30091733  1  -1.224229  0.148411  -0.375188  -0.623543  0.093575  2.323846  0.132
O  O160  1  0.64048763  0.40857029  0.23057218  1  -1.225567  0.140507  -0.375797  -0.610038  0.088555  2.256495  0.123
O  O161  1  0.76016291  0.51652702  0.22573674  1  -1.317885  0.022843  -0.37234  -0.671016  0.013953  2.116143  0.02
O  O162  1  0.77252833  0.38464025  0.16199462  1  -1.279234  0.085609  -0.344521  -0.570632  0.05472  2.024219  0.073
O  O163  1  0.61086683  0.40730542  0.10630249  1  -1.223535  0.14846  -0.374773  -0.622762  0.09357  2.326632  0.132
O  O164  1  0.23190112  0.82201879  0.59135433  1  -1.222524  0.140682  -0.376317  -0.609986  0.088572  2.258216  0.124
O  O165  1  0.24417648  0.70945940  0.48348418  1  -1.329039  0.023017  -0.371256  -0.669824  0.014105  2.116586  0.02
O  O166  1  0.38795630  0.77750184  0.61548224  1  -1.290477  0.086395  -0.343336  -0.570687  0.055239  2.023825  0.074
O  O167  1  0.20363764  0.69888812  0.59242855  1  -1.22065  0.148036  -0.375509  -0.624502  0.093194  2.328411  0.131
