# generated using pymatgen
data_SmH7C8NO8
_symmetry_space_group_name_H-M   'P 1'
_cell_length_a   7.54398324
_cell_length_b   9.91411129
_cell_length_c   14.87321443
_cell_angle_alpha   89.99984091
_cell_angle_beta   97.90479139
_cell_angle_gamma   90.00016414
_symmetry_Int_Tables_number   1
_chemical_formula_structural   SmH7C8NO8
_chemical_formula_sum   'Sm4 H28 C32 N4 O32'
_cell_volume   1101.82578686
_cell_formula_units_Z   4
loop_
 _symmetry_equiv_pos_site_id
 _symmetry_equiv_pos_as_xyz
  1  'x, y, z'
loop_
 _atom_site_type_symbol
 _atom_site_label
 _atom_site_symmetry_multiplicity
 _atom_site_fract_x
 _atom_site_fract_y
 _atom_site_fract_z
 _atom_site_occupancy
 _atom_site_hle17_bader_spin_density
 _atom_site_hle17_ddec_charge
 _atom_site_hle17_ddec_spin_density
 _atom_site_hle17_ddec_sum_bond_order
 _atom_site_hle17_magmom
 _atom_site_hse06_10hf_bader_spin_density
 _atom_site_hse06_10hf_ddec_charge
 _atom_site_hse06_10hf_ddec_spin_density
 _atom_site_hse06_10hf_ddec_sum_bond_order
 _atom_site_hse06_10hf_magmom
 _atom_site_hse06_bader_spin_density
 _atom_site_hse06_ddec_charge
 _atom_site_hse06_ddec_spin_density
 _atom_site_hse06_ddec_sum_bond_order
 _atom_site_hse06_magmom
 _atom_site_pbe_bader_spin_density
 _atom_site_pbe_cm5_charge
 _atom_site_pbe_ddec_charge
 _atom_site_pbe_ddec_spin_density
 _atom_site_pbe_ddec_sum_bond_order
 _atom_site_pbe_magmom
Sm  Sm0  1  0.14366742  0.04284033  0.85709530  1  0  2.333222  0  1.656148  0  0  2.241564  0  2.01994  0  0  2.283991  0  1.975184  0  0  1.504742  2.152735  0  2.161029  0
Sm  Sm1  1  0.35632538  0.54284145  0.64290285  1  0  2.333224  0  1.656238  0  0  2.241568  0  2.020026  0  0  2.283997  0  1.975276  0  0  1.504745  2.152716  0  2.161148  0
Sm  Sm2  1  0.85632849  0.95715855  0.14290352  1  0  2.333239  0  1.656197  0  0  2.241584  0  2.019979  0  0  2.284013  0  1.975228  0  0  1.504759  2.152727  0  2.161115  0
Sm  Sm3  1  0.64366786  0.45715743  0.35709577  1  0  2.333202  0  1.656128  0  0  2.241549  0  2.019909  0  0  2.283975  0  1.975158  0  0  1.504724  2.152706  0  2.161014  0
H  H4  1  0.39277935  0.28389573  0.02077203  1  0  0.086285  0  0.95957  0  0  0.093661  0  1.025652  0  0  0.096252  0  1.023282  0  0  0.120742  0.091487  0  1.027802  0
H  H5  1  0.10722284  0.78389591  0.47923153  1  0  0.086258  0  0.959576  0  0  0.093634  0  1.02567  0  0  0.096224  0  1.023299  0  0  0.120744  0.09146  0  1.027818  0
H  H6  1  0.60722723  0.71610416  0.97923092  1  0  0.086237  0  0.959569  0  0  0.093613  0  1.02567  0  0  0.096204  0  1.023298  0  0  0.120723  0.091439  0  1.027819  0
H  H7  1  0.89278505  0.21610600  0.52077420  1  0  0.086251  0  0.959622  0  0  0.093676  0  1.02565  0  0  0.096267  0  1.02328  0  0  0.120746  0.091502  0  1.027799  0
H  H8  1  0.16915096  0.61592955  0.85617799  1  0  0.12105  0  0.925954  0  0  0.128363  0  0.991378  0  0  0.133516  0  0.985307  0  0  0.127587  0.124718  0  0.995331  0
H  H9  1  0.33084472  0.11592771  0.64382493  1  0  0.121009  0  0.925939  0  0  0.128344  0  0.991364  0  0  0.133496  0  0.985287  0  0  0.127579  0.124699  0  0.995316  0
H  H10  1  0.83084493  0.38407034  0.14382351  1  0  0.120997  0  0.925935  0  0  0.128312  0  0.991371  0  0  0.133469  0  0.985289  0  0  0.127574  0.124668  0  0.995325  0
H  H11  1  0.66915250  0.88407822  0.35617734  1  0  0.121074  0  0.925949  0  0  0.128385  0  0.991384  0  0  0.133547  0  0.985306  0  0  0.127599  0.124741  0  0.995334  0
H  H12  1  0.21063680  0.61816829  0.14832257  1  0  0.101214  0  0.924967  0  0  0.108219  0  0.98921  0  0  0.112342  0  0.984555  0  0  0.12473  0.104909  0  0.993197  0
H  H13  1  0.28937691  0.11816852  0.35168011  1  0  0.101239  0  0.924973  0  0  0.108234  0  0.989219  0  0  0.112359  0  0.984565  0  0  0.124706  0.104923  0  0.993209  0
H  H14  1  0.78937648  0.38183059  0.85168087  1  0  0.101215  0  0.925019  0  0  0.108214  0  0.989262  0  0  0.112338  0  0.984607  0  0  0.124691  0.104901  0  0.993255  0
H  H15  1  0.71063503  0.88183036  0.64832255  1  0  0.101245  0  0.92495  0  0  0.108238  0  0.989208  0  0  0.112363  0  0.984552  0  0  0.12474  0.104929  0  0.993196  0
H  H16  1  0.03262222  0.27203303  0.70649673  1  0  0.450461  0  0.819341  0  0  0.424917  0  0.876359  0  0  0.434372  0  0.862354  0  0  0.313439  0.417679  0  0.886985  0
H  H17  1  0.46738066  0.77203074  0.79350642  1  0  0.450299  0  0.819427  0  0  0.424743  0  0.876585  0  0  0.434198  0  0.862579  0  0  0.31337  0.417504  0  0.887211  0
H  H18  1  0.96738168  0.72796786  0.29350669  1  0  0.450321  0  0.819404  0  0  0.424765  0  0.876556  0  0  0.434221  0  0.862549  0  0  0.313373  0.417526  0  0.887182  0
H  H19  1  0.53262460  0.22796511  0.20649576  1  0  0.450468  0  0.819403  0  0  0.424925  0  0.876361  0  0  0.434379  0  0.862357  0  0  0.313443  0.417687  0  0.886986  0
H  H20  1  0.92041731  0.13657663  0.67922384  1  0  0.392836  0  0.93064  0  0  0.349689  0  1.014894  0  0  0.361473  0  0.998115  0  0  0.283308  0.341309  0  1.026661  0
H  H21  1  0.57958537  0.63657640  0.82077805  1  0  0.392813  0  0.930648  0  0  0.349638  0  1.014943  0  0  0.361423  0  0.998163  0  0  0.283317  0.341259  0  1.02671  0
H  H22  1  0.07958660  0.86342224  0.32077824  1  0  0.392791  0  0.930679  0  0  0.349619  0  1.014972  0  0  0.3614  0  0.998198  0  0  0.283291  0.341239  0  1.026739  0
H  H23  1  0.42041855  0.36341945  0.17922336  1  0  0.392762  0  0.930732  0  0  0.349621  0  1.014977  0  0  0.361405  0  0.998197  0  0  0.283265  0.341242  0  1.026743  0
H  H24  1  0.75168959  0.05060683  0.79279381  1  0  0.438781  0  0.799013  0  0  0.424136  0  0.847943  0  0  0.431894  0  0.839443  0  0  0.334331  0.418392  0  0.853558  0
H  H25  1  0.74831411  0.55060341  0.70721100  1  0  0.438788  0  0.798862  0  0  0.42414  0  0.847804  0  0  0.431901  0  0.839297  0  0  0.334322  0.418395  0  0.853422  0
H  H26  1  0.24831430  0.94939406  0.20721029  1  0  0.438795  0  0.798911  0  0  0.424137  0  0.847866  0  0  0.431904  0  0.839351  0  0  0.334331  0.418393  0  0.853481  0
H  H27  1  0.25168843  0.44938740  0.29279435  1  0  0.438704  0  0.79904  0  0  0.424062  0  0.847969  0  0  0.43182  0  0.839473  0  0  0.334295  0.418318  0  0.853584  0
H  H28  1  0.78461446  0.94209862  0.86915970  1  0  0.439147  0  0.855243  0  0  0.407302  0  0.920693  0  0  0.41887  0  0.903592  0  0  0.303581  0.399028  0  0.932745  0
H  H29  1  0.71538788  0.44209860  0.63084362  1  0  0.439063  0  0.8553  0  0  0.407248  0  0.920768  0  0  0.418793  0  0.903686  0  0  0.303586  0.398975  0  0.932819  0
H  H30  1  0.21539079  0.05789925  0.13084316  1  0  0.439119  0  0.855264  0  0  0.407311  0  0.92069  0  0  0.418856  0  0.903609  0  0  0.303601  0.399037  0  0.932741  0
H  H31  1  0.28461069  0.55789826  0.36915808  1  0  0.439141  0  0.855264  0  0  0.407323  0  0.920673  0  0  0.418876  0  0.903585  0  0  0.303609  0.399049  0  0.932724  0
C  C32  1  0.33088649  0.38301197  0.01374145  1  0  0.136315  0  3.671504  0  0  0.091231  0  3.927882  0  0  0.100915  0  3.944105  0  0  0.060794  0.084804  0  3.917942  0
C  C33  1  0.16911875  0.88301024  0.48625878  1  0  0.136361  0  3.67145  0  0  0.091282  0  3.927826  0  0  0.100958  0  3.944043  0  0  0.060785  0.084855  0  3.917886  0
C  C34  1  0.66911744  0.61698892  0.98625929  1  0  0.136467  0  3.671383  0  0  0.091367  0  3.927774  0  0  0.101055  0  3.943995  0  0  0.06082  0.08494  0  3.917835  0
C  C35  1  0.83088518  0.11699167  0.51374263  1  0  0.136434  0  3.671429  0  0  0.091311  0  3.927804  0  0  0.100996  0  3.944025  0  0  0.060832  0.084884  0  3.917862  0
C  C36  1  0.28088823  0.43786616  0.92751718  1  0  -0.129061  0  3.740365  0  0  -0.103195  0  3.980435  0  0  -0.117098  0  4.004434  0  0  -0.007009  -0.094917  0  3.965639  0
C  C37  1  0.21911121  0.93786122  0.57248340  1  0  -0.129223  0  3.740542  0  0  -0.10328  0  3.98066  0  0  -0.117182  0  4.004665  0  0  -0.006968  -0.095002  0  3.965869  0
C  C38  1  0.71911168  0.56213574  0.07248327  1  0  -0.129253  0  3.740497  0  0  -0.103337  0  3.980643  0  0  -0.117241  0  4.004647  0  0  -0.00699  -0.095058  0  3.965848  0
C  C39  1  0.78088602  0.06213866  0.42751820  1  0  -0.129163  0  3.740455  0  0  -0.10328  0  3.980561  0  0  -0.117183  0  4.004563  0  0  -0.006975  -0.095002  0  3.965767  0
C  C40  1  0.20599846  0.56686101  0.92166847  1  0  -0.002871  0  3.652594  0  0  -0.045861  0  3.902263  0  0  -0.038068  0  3.917384  0  0  -0.044655  -0.050487  0  3.893048  0
C  C41  1  0.29399705  0.06685735  0.57833454  1  0  -0.002738  0  3.65254  0  0  -0.045782  0  3.902251  0  0  -0.037986  0  3.917372  0  0  -0.044661  -0.050409  0  3.893036  0
C  C42  1  0.79399741  0.43314089  0.07833438  1  0  -0.002774  0  3.652564  0  0  -0.045771  0  3.90225  0  0  -0.037976  0  3.917369  0  0  -0.044679  -0.050398  0  3.893035  0
C  C43  1  0.70600015  0.93314455  0.42166908  1  0  -0.002836  0  3.652539  0  0  -0.045856  0  3.90225  0  0  -0.038071  0  3.917367  0  0  -0.044693  -0.050483  0  3.893036  0
C  C44  1  0.17678493  0.63247443  0.00140689  1  0  -0.125866  0  3.723903  0  0  -0.098254  0  3.961367  0  0  -0.112592  0  3.986452  0  0  -0.009985  -0.089915  0  3.946214  0
C  C45  1  0.32321542  0.13247311  0.49859816  1  0  -0.125902  0  3.723848  0  0  -0.098256  0  3.96134  0  0  -0.112592  0  3.986425  0  0  -0.00999  -0.089915  0  3.946186  0
C  C46  1  0.82321761  0.36752747  0.99859913  1  0  -0.125872  0  3.723837  0  0  -0.098254  0  3.961328  0  0  -0.112592  0  3.986413  0  0  -0.010008  -0.089916  0  3.946176  0
C  C47  1  0.67678579  0.86752576  0.50140641  1  0  -0.125905  0  3.723853  0  0  -0.098285  0  3.96131  0  0  -0.11262  0  3.986394  0  0  -0.009973  -0.089946  0  3.946162  0
C  C48  1  0.22993267  0.56870057  0.08479237  1  0  0.14097  0  3.643502  0  0  0.09675  0  3.898961  0  0  0.10607  0  3.914627  0  0  0.062777  0.090585  0  3.88938  0
C  C49  1  0.27007151  0.06870049  0.41520971  1  0  0.140869  0  3.643606  0  0  0.096687  0  3.899041  0  0  0.105996  0  3.914704  0  0  0.062806  0.090522  0  3.889457  0
C  C50  1  0.77007258  0.43130032  0.91520981  1  0  0.140951  0  3.643609  0  0  0.096748  0  3.899042  0  0  0.106069  0  3.914708  0  0  0.062849  0.090583  0  3.889457  0
C  C51  1  0.72993241  0.93129939  0.58479170  1  0  0.140888  0  3.643544  0  0  0.096681  0  3.898992  0  0  0.106001  0  3.914659  0  0  0.06275  0.090515  0  3.889413  0
C  C52  1  0.30965444  0.35826669  0.84489343  1  0  0.743516  0  3.862027  0  0  0.696908  0  4.152124  0  0  0.732615  0  4.141109  0  0  0.241612  0.672412  0  4.155452  0
C  C53  1  0.19033270  0.85825731  0.65510506  1  0  0.743724  0  3.861865  0  0  0.696956  0  4.152202  0  0  0.732655  0  4.141208  0  0  0.241747  0.672462  0  4.155533  0
C  C54  1  0.69033747  0.64174429  0.15510375  1  0  0.743689  0  3.861759  0  0  0.696912  0  4.152112  0  0  0.732609  0  4.141123  0  0  0.241745  0.672417  0  4.155438  0
C  C55  1  0.80965786  0.14173551  0.34489336  1  0  0.743608  0  3.861906  0  0  0.696973  0  4.152052  0  0  0.732679  0  4.14104  0  0  0.241674  0.672478  0  4.155381  0
C  C56  1  0.09160055  0.76951631  0.99870993  1  0  0.740633  0  3.868326  0  0  0.691347  0  4.164095  0  0  0.727015  0  4.153393  0  0  0.238447  0.666872  0  4.167148  0
C  C57  1  0.40840095  0.26951524  0.50129649  1  0  0.740708  0  3.868388  0  0  0.691342  0  4.16428  0  0  0.727009  0  4.153579  0  0  0.238352  0.666865  0  4.167332  0
C  C58  1  0.90840599  0.23048559  0.00129773  1  0  0.740625  0  3.868471  0  0  0.691298  0  4.16431  0  0  0.726963  0  4.153611  0  0  0.238346  0.666825  0  4.167359  0
C  C59  1  0.59160160  0.73048566  0.49870818  1  0  0.740725  0  3.868177  0  0  0.691472  0  4.16388  0  0  0.727138  0  4.15318  0  0  0.238469  0.666997  0  4.166934  0
C  C60  1  0.54477252  0.96801173  0.96117863  1  0  0.559747  0  3.914632  0  0  0.517548  0  4.214711  0  0  0.546974  0  4.205328  0  0  0.219847  0.498037  0  4.214766  0
C  C61  1  0.95521536  0.46800960  0.53880543  1  0  0.56064  0  3.913818  0  0  0.518324  0  4.214046  0  0  0.547749  0  4.204661  0  0  0.220174  0.49881  0  4.214103  0
C  C62  1  0.45521686  0.03198816  0.03880425  1  0  0.560532  0  3.913781  0  0  0.518205  0  4.214012  0  0  0.547631  0  4.204628  0  0  0.220159  0.498692  0  4.214069  0
C  C63  1  0.04477133  0.53198928  0.46117860  1  0  0.559698  0  3.914694  0  0  0.517485  0  4.214791  0  0  0.546907  0  4.20541  0  0  0.219842  0.497972  0  4.214842  0
N  N64  1  0.30855570  0.44690254  0.09082620  1  0  -0.312629  0  3.159915  0  0  -0.245599  0  3.412919  0  0  -0.261757  0  3.428045  0  0  -0.302711  -0.235178  0  3.403561  0
N  N65  1  0.19145108  0.94690319  0.40917470  1  0  -0.31254  0  3.15983  0  0  -0.245524  0  3.412854  0  0  -0.261656  0  3.427962  0  0  -0.302697  -0.235101  0  3.403492  0
N  N66  1  0.69145091  0.55309735  0.90917406  1  0  -0.312654  0  3.159859  0  0  -0.24559  0  3.412848  0  0  -0.261751  0  3.427974  0  0  -0.302712  -0.235167  0  3.403488  0
N  N67  1  0.80855551  0.05309871  0.59082825  1  0  -0.312639  0  3.159832  0  0  -0.245613  0  3.412859  0  0  -0.261772  0  3.427986  0  0  -0.30274  -0.235189  0  3.4035  0
O  O68  1  0.33488150  0.23178234  0.85411017  1  0  -0.754617  0  1.997463  0  0  -0.71305  0  2.244163  0  0  -0.737587  0  2.231297  0  0  -0.408255  -0.687514  0  2.255159  0
O  O69  1  0.16511202  0.73176992  0.64587894  1  0  -0.75471  0  1.997535  0  0  -0.713069  0  2.244313  0  0  -0.737607  0  2.231451  0  0  -0.408325  -0.687526  0  2.255307  0
O  O70  1  0.66511318  0.76823166  0.14587847  1  0  -0.75469  0  1.997479  0  0  -0.713042  0  2.24424  0  0  -0.737577  0  2.231379  0  0  -0.40834  -0.6875  0  2.255236  0
O  O71  1  0.83489340  0.26822291  0.35410712  1  0  -0.754681  0  1.997449  0  0  -0.713108  0  2.244173  0  0  -0.737644  0  2.231306  0  0  -0.408325  -0.687569  0  2.255169  0
O  O72  1  0.30546229  0.42089475  0.77059938  1  0  -0.741106  0  2.045027  0  0  -0.69784  0  2.304874  0  0  -0.721967  0  2.289333  0  0  -0.406718  -0.671897  0  2.317959  0
O  O73  1  0.19451166  0.92087901  0.72940006  1  0  -0.74118  0  2.04487  0  0  -0.697908  0  2.304898  0  0  -0.72201  0  2.289312  0  0  -0.406828  -0.67197  0  2.317985  0
O  O74  1  0.69451354  0.57911926  0.22939933  1  0  -0.741157  0  2.044827  0  0  -0.697867  0  2.304823  0  0  -0.721978  0  2.289263  0  0  -0.406809  -0.671927  0  2.317908  0
O  O75  1  0.80546149  0.07910675  0.27059845  1  0  -0.741122  0  2.044916  0  0  -0.697845  0  2.304774  0  0  -0.721972  0  2.289234  0  0  -0.406722  -0.671901  0  2.317861  0
O  O76  1  0.03245703  0.80789479  0.07023453  1  0  -0.756528  0  2.070701  0  0  -0.716706  0  2.335666  0  0  -0.74173  0  2.323012  0  0  -0.405383  -0.690486  0  2.345953  0
O  O77  1  0.46755323  0.30788601  0.42977360  1  0  -0.756471  0  2.070616  0  0  -0.716609  0  2.335619  0  0  -0.741635  0  2.322966  0  0  -0.405293  -0.690393  0  2.345902  0
O  O78  1  0.96755617  0.19211417  0.92977629  1  0  -0.756473  0  2.070631  0  0  -0.716643  0  2.335641  0  0  -0.741666  0  2.322985  0  0  -0.405296  -0.69043  0  2.345922  0
O  O79  1  0.53245466  0.69210379  0.57023280  1  0  -0.756526  0  2.070546  0  0  -0.716719  0  2.335508  0  0  -0.741744  0  2.322856  0  0  -0.405385  -0.690499  0  2.345795  0
O  O80  1  0.08518605  0.83654314  0.92581310  1  0  -0.738198  0  2.03778  0  0  -0.695285  0  2.295798  0  0  -0.719644  0  2.281834  0  0  -0.399677  -0.669643  0  2.306983  0
O  O81  1  0.41482105  0.33654278  0.57419226  1  0  -0.738285  0  2.037921  0  0  -0.695354  0  2.295986  0  0  -0.719715  0  2.28202  0  0  -0.399654  -0.669709  0  2.307178  0
O  O82  1  0.91482185  0.16345776  0.07419263  1  0  -0.738209  0  2.037901  0  0  -0.695289  0  2.295944  0  0  -0.719651  0  2.281983  0  0  -0.399639  -0.669642  0  2.307131  0
O  O83  1  0.58518554  0.66345912  0.42581069  1  0  -0.738251  0  2.037712  0  0  -0.695348  0  2.29571  0  0  -0.71971  0  2.281751  0  0  -0.399673  -0.669702  0  2.306894  0
O  O84  1  0.44762301  0.94651212  0.88623254  1  0  -0.666814  0  2.047574  0  0  -0.625339  0  2.287456  0  0  -0.647691  0  2.27678  0  0  -0.362195  -0.602958  0  2.295484  0
O  O85  1  0.05236455  0.44651686  0.61375304  1  0  -0.667365  0  2.047332  0  0  -0.625875  0  2.287287  0  0  -0.648225  0  2.276609  0  0  -0.362529  -0.603491  0  2.295319  0
O  O86  1  0.55236767  0.05348373  0.11375312  1  0  -0.66729  0  2.047208  0  0  -0.625798  0  2.287155  0  0  -0.648148  0  2.276478  0  0  -0.362495  -0.603414  0  2.295188  0
O  O87  1  0.94762210  0.55349008  0.38623435  1  0  -0.666769  0  2.047632  0  0  -0.625289  0  2.287526  0  0  -0.64764  0  2.276854  0  0  -0.362178  -0.602907  0  2.295552  0
O  O88  1  0.71024342  0.94084252  0.97884290  1  0  -0.669847  0  2.115922  0  0  -0.624669  0  2.355053  0  0  -0.648059  0  2.345667  0  0  -0.333345  -0.602015  0  2.361181  0
O  O89  1  0.78974700  0.44084615  0.52114610  1  0  -0.669903  0  2.115641  0  0  -0.624727  0  2.354881  0  0  -0.648103  0  2.345465  0  0  -0.333267  -0.602073  0  2.361012  0
O  O90  1  0.28974723  0.05915131  0.02114612  1  0  -0.669859  0  2.115694  0  0  -0.624667  0  2.354902  0  0  -0.648044  0  2.345488  0  0  -0.333257  -0.602017  0  2.361034  0
O  O91  1  0.21024367  0.55915374  0.47884225  1  0  -0.669827  0  2.115931  0  0  -0.624662  0  2.355092  0  0  -0.648046  0  2.345699  0  0  -0.333342  -0.602007  0  2.361217  0
O  O92  1  0.99648512  0.18604347  0.73069299  1  0  -0.924676  0  1.86851  0  0  -0.881897  0  2.069912  0  0  -0.898932  0  2.03535  0  0  -0.638768  -0.862712  0  2.098691  0
O  O93  1  0.50351637  0.68604027  0.76931007  1  0  -0.924465  0  1.868471  0  0  -0.881694  0  2.070036  0  0  -0.898727  0  2.035481  0  0  -0.638714  -0.862505  0  2.098812  0
O  O94  1  0.00351611  0.81395944  0.26931025  1  0  -0.924489  0  1.868497  0  0  -0.881722  0  2.070059  0  0  -0.898756  0  2.035508  0  0  -0.638692  -0.862532  0  2.098837  0
O  O95  1  0.49648621  0.31395357  0.23069192  1  0  -0.924632  0  1.868626  0  0  -0.881854  0  2.069947  0  0  -0.898886  0  2.035386  0  0  -0.638745  -0.862667  0  2.098728  0
O  O96  1  0.82566108  0.97224369  0.81149858  1  0  -0.862128  0  1.831786  0  0  -0.824024  0  2.011333  0  0  -0.841282  0  1.983008  0  0  -0.617291  -0.805323  0  2.034402  0
O  O97  1  0.67434136  0.47224032  0.68850469  1  0  -0.862024  0  1.831695  0  0  -0.823948  0  2.011172  0  0  -0.84118  0  1.982912  0  0  -0.617262  -0.805244  0  2.034241  0
O  O98  1  0.17434416  0.02775922  0.18850495  1  0  -0.86209  0  1.831707  0  0  -0.824011  0  2.011175  0  0  -0.841247  0  1.982904  0  0  -0.617294  -0.805307  0  2.034248  0
O  O99  1  0.32565988  0.52775251  0.31149720  1  0  -0.86204  0  1.831837  0  0  -0.823963  0  2.011313  0  0  -0.8412  0  1.983036  0  0  -0.617277  -0.80526  0  2.034382  0
