# generated using pymatgen
data_CdH21C33(NO2)3
_symmetry_space_group_name_H-M   'P 1'
_cell_length_a   10.01186562
_cell_length_b   10.37909730
_cell_length_c   14.08626450
_cell_angle_alpha   99.57049621
_cell_angle_beta   93.93253706
_cell_angle_gamma   102.46074541
_symmetry_Int_Tables_number   1
_chemical_formula_structural   CdH21C33(NO2)3
_chemical_formula_sum   'Cd2 H42 C66 N6 O12'
_cell_volume   1401.07031749
_cell_formula_units_Z   2
loop_
 _symmetry_equiv_pos_site_id
 _symmetry_equiv_pos_as_xyz
  1  'x, y, z'
loop_
 _atom_site_type_symbol
 _atom_site_label
 _atom_site_symmetry_multiplicity
 _atom_site_fract_x
 _atom_site_fract_y
 _atom_site_fract_z
 _atom_site_occupancy
 _atom_site_hle17_bader_spin_density
 _atom_site_hle17_ddec_charge
 _atom_site_hle17_ddec_spin_density
 _atom_site_hle17_ddec_sum_bond_order
 _atom_site_hle17_magmom
 _atom_site_hse06_10hf_bader_spin_density
 _atom_site_hse06_10hf_ddec_charge
 _atom_site_hse06_10hf_ddec_spin_density
 _atom_site_hse06_10hf_ddec_sum_bond_order
 _atom_site_hse06_10hf_magmom
 _atom_site_hse06_bader_spin_density
 _atom_site_hse06_ddec_charge
 _atom_site_hse06_ddec_spin_density
 _atom_site_hse06_ddec_sum_bond_order
 _atom_site_hse06_magmom
 _atom_site_pbe_bader_spin_density
 _atom_site_pbe_cm5_charge
 _atom_site_pbe_ddec_charge
 _atom_site_pbe_ddec_spin_density
 _atom_site_pbe_ddec_sum_bond_order
 _atom_site_pbe_magmom
Cd  Cd0  1  0.07591995  0.87306953  0.92146655  1  0  1.136655  0  1.652753  0  0  0.940129  0  2.096963  0  0  1.002322  0  2.042793  0  0  0.774106  0.896076  0  2.13414  0
Cd  Cd1  1  0.92408338  0.12692749  0.07853301  1  0  1.136612  0  1.652834  0  0  0.940115  0  2.096999  0  0  1.00228  0  2.042875  0  0  0.774087  0.896064  0  2.134164  0
H  H2  1  0.34319264  0.74507100  0.86613804  1  0  0.083245  0  0.926396  0  0  0.09465  0  0.985161  0  0  0.096651  0  0.983172  0  0  0.121879  0.093073  0  0.986793  0
H  H3  1  0.65680522  0.25492406  0.13386529  1  0  0.083229  0  0.926416  0  0  0.094622  0  0.985202  0  0  0.096623  0  0.983212  0  0  0.121837  0.093045  0  0.986843  0
H  H4  1  0.39282862  0.52440330  0.79438811  1  0  0.098268  0  0.951391  0  0  0.110636  0  1.007947  0  0  0.113074  0  1.008666  0  0  0.10687  0.109996  0  1.00533  0
H  H5  1  0.60716771  0.47559383  0.20560902  1  0  0.098348  0  0.951371  0  0  0.110699  0  1.007935  0  0  0.113139  0  1.008652  0  0  0.106905  0.110059  0  1.00532  0
H  H6  1  0.20443512  0.31471886  0.77499356  1  0  0.103026  0  0.968159  0  0  0.113469  0  1.029346  0  0  0.115754  0  1.028372  0  0  0.110121  0.111581  0  1.030369  0
H  H7  1  0.79556321  0.68527823  0.22500507  1  0  0.103099  0  0.968122  0  0  0.11348  0  1.029374  0  0  0.115763  0  1.028404  0  0  0.110128  0.111591  0  1.030391  0
H  H8  1  0.96409741  0.20776365  0.79822461  1  0  0.116264  0  0.930537  0  0  0.129566  0  0.983918  0  0  0.132116  0  0.983681  0  0  0.114194  0.127575  0  0.984314  0
H  H9  1  0.03589972  0.79222839  0.20178257  1  0  0.116253  0  0.930639  0  0  0.129539  0  0.984027  0  0  0.132125  0  0.983747  0  0  0.114215  0.127549  0  0.984422  0
H  H10  1  0.73426011  0.23255653  0.84438263  1  0  0.110342  0  0.950563  0  0  0.121391  0  1.009219  0  0  0.123863  0  1.009086  0  0  0.108983  0.11934  0  1.009904  0
H  H11  1  0.26573354  0.76743352  0.15562697  1  0  0.110304  0  0.950775  0  0  0.121383  0  1.00938  0  0  0.123855  0  1.009247  0  0  0.108983  0.119332  0  1.010067  0
H  H12  1  0.58059730  0.37975793  0.90311980  1  0  0.097348  0  0.941375  0  0  0.112643  0  0.996327  0  0  0.115167  0  0.994343  0  0  0.111565  0.110406  0  0.998481  0
H  H13  1  0.41940031  0.62024420  0.09688298  1  0  0.097426  0  0.941251  0  0  0.11272  0  0.996203  0  0  0.115246  0  0.994213  0  0  0.111581  0.110463  0  0.99838  0
H  H14  1  0.55110965  0.61343103  0.96515914  1  0  0.097501  0  0.962883  0  0  0.109177  0  1.021499  0  0  0.111515  0  1.021893  0  0  0.107682  0.108862  0  1.018698  0
H  H15  1  0.44888469  0.38657015  0.03483982  1  0  0.097466  0  0.962988  0  0  0.109177  0  1.021558  0  0  0.111514  0  1.021951  0  0  0.107673  0.108858  0  1.018766  0
H  H16  1  0.75335953  0.80654669  0.98267141  1  0  0.100372  0  0.96112  0  0  0.109283  0  1.021488  0  0  0.111803  0  1.018699  0  0  0.121825  0.107002  0  1.024423  0
H  H17  1  0.24664007  0.19345137  0.01733167  1  0  0.100322  0  0.961091  0  0  0.109228  0  1.021476  0  0  0.111763  0  1.018648  0  0  0.121827  0.106921  0  1.024462  0
H  H18  1  0.39422988  0.24251772  0.79968004  1  0  0.084645  0  0.967204  0  0  0.093507  0  1.033191  0  0  0.096917  0  1.029975  0  0  0.097907  0.090958  0  1.03561  0
H  H19  1  0.60576995  0.75748541  0.20031729  1  0  0.084617  0  0.96729  0  0  0.093521  0  1.03321  0  0  0.096906  0  1.030028  0  0  0.097919  0.09097  0  1.035635  0
H  H20  1  0.51067416  0.34289401  0.67021960  1  0  0.096673  0  0.967596  0  0  0.109194  0  1.025152  0  0  0.112202  0  1.024688  0  0  0.099822  0.106933  0  1.025786  0
H  H21  1  0.48932666  0.65710508  0.32977797  1  0  0.096613  0  0.967628  0  0  0.109149  0  1.025168  0  0  0.112157  0  1.024706  0  0  0.099809  0.106896  0  1.025789  0
H  H22  1  0.31213646  0.98499280  0.46396506  1  0  0.103603  0  0.958714  0  0  0.115954  0  1.015016  0  0  0.118946  0  1.014448  0  0  0.10488  0.11384  0  1.015655  0
H  H23  1  0.68786961  0.01501126  0.53603267  1  0  0.103693  0  0.958754  0  0  0.116015  0  1.015076  0  0  0.119006  0  1.01451  0  0  0.104925  0.113898  0  1.015722  0
H  H24  1  0.18574903  0.89468173  0.58987250  1  0  0.104503  0  0.978303  0  0  0.110051  0  1.046224  0  0  0.114437  0  1.04196  0  0  0.101976  0.106817  0  1.049439  0
H  H25  1  0.81425427  0.10532338  0.41012168  1  0  0.104466  0  0.9783  0  0  0.109998  0  1.04625  0  0  0.114385  0  1.041986  0  0  0.101918  0.106768  0  1.049461  0
H  H26  1  0.69562503  0.24068551  0.61182755  1  0  0.100693  0  0.95435  0  0  0.113361  0  1.010959  0  0  0.116255  0  1.010534  0  0  0.10407  0.11127  0  1.011404  0
H  H27  1  0.30437703  0.75931458  0.38816808  1  0  0.100594  0  0.954438  0  0  0.11328  0  1.011034  0  0  0.116166  0  1.01061  0  0  0.104061  0.111192  0  1.011469  0
H  H28  1  0.90291153  0.42666227  0.65295221  1  0  0.096855  0  0.960338  0  0  0.105203  0  1.024733  0  0  0.107823  0  1.023718  0  0  0.101713  0.103346  0  1.025323  0
H  H29  1  0.09708731  0.57334086  0.34704791  1  0  0.096912  0  0.96035  0  0  0.10527  0  1.024727  0  0  0.107884  0  1.02372  0  0  0.101733  0.103415  0  1.025309  0
H  H30  1  0.76159396  0.61522236  0.42847569  1  0  0.096964  0  0.950881  0  0  0.105473  0  1.015653  0  0  0.108474  0  1.013682  0  0  0.102592  0.10313  0  1.017472  0
H  H31  1  0.23840740  0.38478274  0.57152763  1  0  0.096952  0  0.950907  0  0  0.105465  0  1.015684  0  0  0.108467  0  1.013713  0  0  0.1026  0.103124  0  1.017502  0
H  H32  1  0.54840212  0.43170209  0.38956660  1  0  0.099741  0  0.953095  0  0  0.110637  0  1.012913  0  0  0.113764  0  1.012138  0  0  0.101649  0.108201  0  1.014112  0
H  H33  1  0.45160421  0.56829892  0.61043430  1  0  0.099691  0  0.953073  0  0  0.110632  0  1.012846  0  0  0.113762  0  1.012067  0  0  0.101636  0.108194  0  1.014056  0
H  H34  1  0.60736139  0.16942756  0.32326769  1  0  0.106542  0  0.968219  0  0  0.115113  0  1.032418  0  0  0.117936  0  1.03189  0  0  0.103163  0.113159  0  1.032903  0
H  H35  1  0.39264316  0.83057450  0.67672758  1  0  0.106512  0  0.968105  0  0  0.115047  0  1.032363  0  0  0.117895  0  1.031807  0  0  0.103099  0.11313  0  1.032802  0
H  H36  1  0.48954029  0.06081916  0.15817426  1  0  0.107509  0  0.937949  0  0  0.11802  0  0.996364  0  0  0.12161  0  0.993408  0  0  0.105468  0.115238  0  0.998933  0
H  H37  1  0.51046127  0.93918295  0.84182160  1  0  0.107527  0  0.938056  0  0  0.117998  0  0.996506  0  0  0.121585  0  0.993555  0  0  0.105485  0.115221  0  0.999067  0
H  H38  1  0.09804977  0.08466886  0.25962837  1  0  0.103536  0  0.965825  0  0  0.110562  0  1.031351  0  0  0.11406  0  1.028666  0  0  0.100947  0.107928  0  1.033658  0
H  H39  1  0.90195283  0.91533724  0.74037300  1  0  0.103544  0  0.96578  0  0  0.110577  0  1.031303  0  0  0.114076  0  1.028618  0  0  0.100948  0.107947  0  1.033605  0
H  H40  1  0.21253959  0.18309373  0.42427328  1  0  0.115583  0  0.975891  0  0  0.125046  0  1.036277  0  0  0.128064  0  1.035439  0  0  0.106822  0.122922  0  1.036914  0
H  H41  1  0.78746676  0.81691130  0.57573026  1  0  0.115556  0  0.975964  0  0  0.125028  0  1.036332  0  0  0.128044  0  1.035498  0  0  0.106802  0.122912  0  1.036955  0
H  H42  1  0.08817385  0.74820884  0.68621534  1  0  0.408675  0  0.875341  0  0  0.377734  0  0.956781  0  0  0.390478  0  0.941956  0  0  0.302977  0.368811  0  0.966895  0
H  H43  1  0.91182972  0.25178516  0.31378385  1  0  0.408711  0  0.875375  0  0  0.37779  0  0.956755  0  0  0.390534  0  0.941933  0  0  0.303003  0.36888  0  0.966857  0
C  C44  1  0.26374331  0.65203538  0.85529118  1  0  0.153501  0  3.696337  0  0  0.119507  0  3.954408  0  0  0.128456  0  3.970641  0  0  0.060727  0.113208  0  3.943006  0
C  C45  1  0.73625455  0.34795565  0.14471306  1  0  0.153423  0  3.696628  0  0  0.119436  0  3.954666  0  0  0.128384  0  3.970902  0  0  0.060712  0.113136  0  3.943282  0
C  C46  1  0.29098804  0.52797454  0.81584419  1  0  -0.122511  0  3.749121  0  0  -0.135724  0  4.005635  0  0  -0.143088  0  4.027966  0  0  -0.082542  -0.131059  0  3.988297  0
C  C47  1  0.70900407  0.47201356  0.18415658  1  0  -0.122489  0  3.748991  0  0  -0.135679  0  4.005475  0  0  -0.143042  0  4.027803  0  0  -0.082501  -0.131016  0  3.988138  0
C  C48  1  0.18741447  0.41281244  0.80502925  1  0  -0.035102  0  3.669962  0  0  -0.059058  0  3.913447  0  0  -0.056504  0  3.93152  0  0  -0.056135  -0.059822  0  3.90121  0
C  C49  1  0.81258159  0.58718772  0.19496540  1  0  -0.035283  0  3.669821  0  0  -0.059212  0  3.913307  0  0  -0.056658  0  3.931377  0  0  -0.056264  -0.059984  0  3.901066  0
C  C50  1  0.05659193  0.42189589  0.83288278  1  0  0.033769  0  3.775042  0  0  0.048489  0  4.009869  0  0  0.046461  0  4.033012  0  0  0.002845  0.048986  0  3.994592  0
C  C51  1  0.94340666  0.57809817  0.16711762  1  0  0.033631  0  3.77543  0  0  0.048431  0  4.010156  0  0  0.046405  0  4.033306  0  0  0.002861  0.048927  0  3.994883  0
C  C52  1  0.94518724  0.30651098  0.82429646  1  0  -0.085887  0  3.703604  0  0  -0.108727  0  3.956196  0  0  -0.111613  0  3.978243  0  0  -0.075246  -0.105843  0  3.940867  0
C  C53  1  0.05479743  0.69349129  0.17571072  1  0  -0.085867  0  3.703263  0  0  -0.10874  0  3.95587  0  0  -0.111658  0  3.977901  0  0  -0.075368  -0.105864  0  3.940549  0
C  C54  1  0.81892983  0.32010432  0.84940949  1  0  -0.094002  0  3.721569  0  0  -0.117638  0  3.977338  0  0  -0.121008  0  4.000532  0  0  -0.081084  -0.115788  0  3.961873  0
C  C55  1  0.18107126  0.67989574  0.15059248  1  0  -0.093862  0  3.721236  0  0  -0.117475  0  3.977013  0  0  -0.120837  0  4.000228  0  0  -0.080947  -0.115638  0  3.961536  0
C  C56  1  0.79504115  0.44972435  0.88479406  1  0  0.033241  0  3.786737  0  0  0.049354  0  4.018698  0  0  0.046835  0  4.043351  0  0  0.000586  0.051318  0  4.001284  0
C  C57  1  0.20495197  0.55027178  0.11521061  1  0  0.033499  0  3.786586  0  0  0.049423  0  4.018689  0  0  0.046874  0  4.043383  0  0  0.000549  0.051426  0  4.001216  0
C  C58  1  0.66555103  0.46781227  0.91053955  1  0  -0.057652  0  3.71178  0  0  -0.083216  0  3.959446  0  0  -0.080854  0  3.978011  0  0  -0.065378  -0.084089  0  3.946368  0
C  C59  1  0.33444710  0.53218782  0.08946726  1  0  -0.057931  0  3.711381  0  0  -0.08348  0  3.95914  0  0  -0.081108  0  3.977708  0  0  -0.065509  -0.08436  0  3.946068  0
C  C60  1  0.64932212  0.59555232  0.94453640  1  0  -0.125524  0  3.754886  0  0  -0.137396  0  4.009386  0  0  -0.144372  0  4.030958  0  0  -0.08583  -0.133695  0  3.993626  0
C  C61  1  0.35067721  0.40444073  0.05546248  1  0  -0.125503  0  3.754828  0  0  -0.137394  0  4.009308  0  0  -0.144372  0  4.030879  0  0  -0.085817  -0.133695  0  3.993552  0
C  C62  1  0.76234216  0.70560101  0.95270797  1  0  0.161569  0  3.667694  0  0  0.127287  0  3.92163  0  0  0.136355  0  3.937917  0  0  0.062788  0.120791  0  3.912382  0
C  C63  1  0.23765918  0.29440007  0.04729201  1  0  0.161775  0  3.667686  0  0  0.127496  0  3.921632  0  0  0.136567  0  3.937921  0  0  0.062859  0.121006  0  3.912394  0
C  C64  1  0.03751379  0.55212779  0.86946142  1  0  0.136887  0  3.750134  0  0  0.128041  0  3.993175  0  0  0.132924  0  4.014328  0  0  0.120685  0.124317  0  3.978889  0
C  C65  1  0.96248233  0.44786830  0.13054266  1  0  0.136956  0  3.75022  0  0  0.12802  0  3.993231  0  0  0.132905  0  4.014378  0  0  0.120658  0.124296  0  3.978959  0
C  C66  1  0.90339479  0.56677058  0.89489036  1  0  0.134681  0  3.740299  0  0  0.127019  0  3.978502  0  0  0.131711  0  4.00063  0  0  0.120903  0.124447  0  3.962782  0
C  C67  1  0.09660183  0.43322349  0.10511421  1  0  0.134339  0  3.740592  0  0  0.126918  0  3.978567  0  0  0.131618  0  4.0007  0  0  0.120873  0.124331  0  3.962848  0
C  C68  1  0.21116061  0.00957071  0.78379553  1  0  0.634656  0  3.930822  0  0  0.588039  0  4.216477  0  0  0.622583  0  4.210878  0  0  0.194849  0.564437  0  4.220005  0
C  C69  1  0.78883997  0.99042736  0.21620404  1  0  0.634569  0  3.931136  0  0  0.587949  0  4.216801  0  0  0.622496  0  4.211198  0  0  0.194796  0.564351  0  4.220325  0
C  C70  1  0.28191096  0.06312313  0.70443388  1  0  -0.093181  0  3.795338  0  0  -0.073011  0  4.030641  0  0  -0.084439  0  4.05575  0  0  -0.031534  -0.065855  0  4.01411  0
C  C71  1  0.71808811  0.93687698  0.29556375  1  0  -0.093174  0  3.795718  0  0  -0.073003  0  4.030998  0  0  -0.08443  0  4.056105  0  0  -0.031513  -0.065839  0  4.014453  0
C  C72  1  0.37566442  0.18838965  0.72501950  1  0  -0.065735  0  3.802196  0  0  -0.087867  0  4.052565  0  0  -0.08524  0  4.072913  0  0  -0.091152  -0.089129  0  4.038329  0
C  C73  1  0.62433590  0.81161145  0.27497760  1  0  -0.065646  0  3.802149  0  0  -0.087789  0  4.052494  0  0  -0.085145  0  4.072851  0  0  -0.091114  -0.089047  0  4.03824  0
C  C74  1  0.44153244  0.24369795  0.65273620  1  0  -0.181923  0  3.768678  0  0  -0.200516  0  4.023213  0  0  -0.207714  0  4.044227  0  0  -0.104546  -0.195301  0  4.008404  0
C  C75  1  0.55847089  0.75630311  0.34726316  1  0  -0.181867  0  3.768446  0  0  -0.200486  0  4.023035  0  0  -0.207681  0  4.044041  0  0  -0.104543  -0.195271  0  4.00821  0
C  C76  1  0.41915022  0.17155718  0.55677045  1  0  0.212153  0  3.765482  0  0  0.201082  0  4.019888  0  0  0.212429  0  4.03893  0  0  0.10225  0.193595  0  4.00656  0
C  C77  1  0.58085386  0.82844689  0.44322932  1  0  0.212148  0  3.765317  0  0  0.201056  0  4.019708  0  0  0.212405  0  4.03875  0  0  0.102248  0.193568  0  4.006383  0
C  C78  1  0.32957228  0.04327809  0.53714549  1  0  -0.1514  0  3.717826  0  0  -0.171296  0  3.972453  0  0  -0.177836  0  3.992131  0  0  -0.093536  -0.16742  0  3.959445  0
C  C79  1  0.67043280  0.95672596  0.46285503  1  0  -0.151489  0  3.717679  0  0  -0.171361  0  3.97231  0  0  -0.177903  0  3.991989  0  0  -0.093576  -0.167489  0  3.959319  0
C  C80  1  0.25968766  0.99135207  0.60904265  1  0  -0.038267  0  3.727563  0  0  -0.060521  0  3.974475  0  0  -0.056809  0  3.991662  0  0  -0.079641  -0.062384  0  3.962986  0
C  C81  1  0.74031589  0.00865001  0.39095188  1  0  -0.038272  0  3.727575  0  0  -0.060522  0  3.974485  0  0  -0.056804  0  3.991668  0  0  -0.079608  -0.062378  0  3.962986  0
C  C82  1  0.60606990  0.32564806  0.49965309  1  0  0.206528  0  3.774747  0  0  0.197773  0  4.024099  0  0  0.207993  0  4.044102  0  0  0.101348  0.191244  0  4.010653  0
C  C83  1  0.39392744  0.67435307  0.50034671  1  0  0.206505  0  3.77466  0  0  0.197701  0  4.024057  0  0  0.20792  0  4.044061  0  0  0.101302  0.191173  0  4.01062  0
C  C84  1  0.70872714  0.32350036  0.57234171  1  0  -0.163855  0  3.749126  0  0  -0.18236  0  4.002721  0  0  -0.188898  0  4.02256  0  0  -0.096002  -0.178436  0  3.989666  0
C  C85  1  0.29127669  0.67650270  0.42765863  1  0  -0.163719  0  3.749098  0  0  -0.182232  0  4.002715  0  0  -0.188759  0  4.022542  0  0  -0.096002  -0.178309  0  3.989644  0
C  C86  1  0.82504905  0.42782595  0.59551220  1  0  -0.032947  0  3.741176  0  0  -0.059596  0  3.990485  0  0  -0.055934  0  4.009558  0  0  -0.081361  -0.061347  0  3.977131  0
C  C87  1  0.17495302  0.57217816  0.40448535  1  0  -0.03306  0  3.74099  0  0  -0.059719  0  3.99031  0  0  -0.056056  0  4.009383  0  0  -0.081365  -0.06147  0  3.97694  0
C  C88  1  0.84404305  0.53481717  0.54486855  1  0  -0.105134  0  3.792374  0  0  -0.082606  0  4.028303  0  0  -0.094052  0  4.053628  0  0  -0.030005  -0.075357  0  4.011082  0
C  C89  1  0.15595531  0.46518797  0.45513393  1  0  -0.104983  0  3.791935  0  0  -0.082477  0  4.027833  0  0  -0.093919  0  4.053154  0  0  -0.029994  -0.075227  0  4.010615  0
C  C90  1  0.74570237  0.53255751  0.46824475  1  0  -0.036221  0  3.739306  0  0  -0.063664  0  3.99307  0  0  -0.060062  0  4.011936  0  0  -0.079906  -0.066422  0  3.981342  0
C  C91  1  0.25429623  0.46744461  0.53175665  1  0  -0.036164  0  3.739235  0  0  -0.063632  0  3.993044  0  0  -0.060027  0  4.011908  0  0  -0.079857  -0.066385  0  3.981327  0
C  C92  1  0.62742740  0.43017454  0.44627338  1  0  -0.164059  0  3.744997  0  0  -0.18444  0  4.003618  0  0  -0.190875  0  4.023896  0  0  -0.099153  -0.180838  0  3.991401  0
C  C93  1  0.37257543  0.56982854  0.55372549  1  0  -0.164047  0  3.744916  0  0  -0.184452  0  4.003563  0  0  -0.190892  0  4.023844  0  0  -0.099145  -0.180853  0  3.991362  0
C  C94  1  0.95946774  0.65451684  0.57458585  1  0  0.635743  0  3.845669  0  0  0.587563  0  4.147316  0  0  0.62023  0  4.139921  0  0  0.221026  0.565681  0  4.151631  0
C  C95  1  0.04052436  0.34548739  0.42541339  1  0  0.635507  0  3.84582  0  0  0.587406  0  4.147372  0  0  0.620072  0  4.139979  0  0  0.220951  0.565525  0  4.151687  0
C  C96  1  0.41744241  0.18060111  0.38480029  1  0  0.19688  0  3.78084  0  0  0.189788  0  4.029085  0  0  0.199057  0  4.048892  0  0  0.096243  0.183704  0  4.015206  0
C  C97  1  0.58256390  0.81939991  0.61519707  1  0  0.196717  0  3.780825  0  0  0.189669  0  4.028994  0  0  0.198935  0  4.048809  0  0  0.096224  0.183592  0  4.015127  0
C  C98  1  0.49605500  0.15095096  0.30879682  1  0  -0.161515  0  3.756037  0  0  -0.181595  0  4.011351  0  0  -0.187377  0  4.033144  0  0  -0.097067  -0.177839  0  3.99668  0
C  C99  1  0.50395006  0.84904908  0.69119964  1  0  -0.161396  0  3.755838  0  0  -0.18147  0  4.01114  0  0  -0.187271  0  4.032922  0  0  -0.096999  -0.177737  0  3.996456  0
C  C100  1  0.43073446  0.09153118  0.21681823  1  0  -0.065401  0  3.754393  0  0  -0.088841  0  4.004517  0  0  -0.087595  0  4.025178  0  0  -0.087514  -0.08925  0  3.990482  0
C  C101  1  0.56926660  0.90846891  0.78317806  1  0  -0.065473  0  3.754497  0  0  -0.088871  0  4.004635  0  0  -0.087624  0  4.025298  0  0  -0.087588  -0.08928  0  3.990616  0
C  C102  1  0.28687424  0.06477950  0.19837946  1  0  -0.092937  0  3.806459  0  0  -0.07201  0  4.04556  0  0  -0.082417  0  4.070976  0  0  -0.033065  -0.065009  0  4.027797  0
C  C103  1  0.71312809  0.93522561  0.80161823  1  0  -0.092813  0  3.806307  0  0  -0.071915  0  4.045429  0  0  -0.082318  0  4.070841  0  0  -0.03294  -0.064919  0  4.027686  0
C  C104  1  0.20959860  0.10219577  0.27338207  1  0  -0.053822  0  3.730981  0  0  -0.07571  0  3.977347  0  0  -0.073667  0  3.996528  0  0  -0.087489  -0.076542  0  3.963697  0
C  C105  1  0.79040574  0.89781333  0.72661834  1  0  -0.053904  0  3.730879  0  0  -0.075796  0  3.977275  0  0  -0.073756  0  3.996455  0  0  -0.087537  -0.076622  0  3.963617  0
C  C106  1  0.27410589  0.15910909  0.36589400  1  0  -0.159248  0  3.739284  0  0  -0.177729  0  3.986782  0  0  -0.183284  0  4.006954  0  0  -0.095366  -0.173804  0  3.97267  0
C  C107  1  0.72590019  0.84089495  0.63410727  1  0  -0.15915  0  3.739191  0  0  -0.17765  0  3.986686  0  0  -0.183204  0  4.00686  0  0  -0.095329  -0.173723  0  3.972554  0
C  C108  1  0.21833158  0.99339011  0.10125716  1  0  0.624819  0  3.945669  0  0  0.574064  0  4.239851  0  0  0.609106  0  4.234065  0  0  0.189561  0.549854  0  4.243604  0
C  C109  1  0.78167051  0.00660995  0.89874344  1  0  0.624734  0  3.945952  0  0  0.574019  0  4.240097  0  0  0.609063  0  4.234302  0  0  0.189553  0.549802  0  4.243864  0
N  N110  1  0.14084895  0.66332740  0.88083784  1  0  -0.346643  0  3.254644  0  0  -0.281264  0  3.520402  0  0  -0.300298  0  3.538642  0  0  -0.318436  -0.267862  0  3.5079  0
N  N111  1  0.85914391  0.33666773  0.11916385  1  0  -0.346425  0  3.254603  0  0  -0.281052  0  3.520377  0  0  -0.300083  0  3.538614  0  0  -0.318303  -0.267664  0  3.507894  0
N  N112  1  0.88486538  0.69160906  0.92750661  1  0  -0.346409  0  3.216488  0  0  -0.277007  0  3.481104  0  0  -0.297068  0  3.499598  0  0  -0.312743  -0.264099  0  3.46908  0
N  N113  1  0.11513372  0.30838297  0.07249426  1  0  -0.346401  0  3.216711  0  0  -0.277063  0  3.481256  0  0  -0.297129  0  3.499759  0  0  -0.312753  -0.264157  0  3.469226  0
N  N114  1  0.48178546  0.22633323  0.48124854  1  0  -0.23407  0  3.459642  0  0  -0.156607  0  3.679663  0  0  -0.178515  0  3.703278  0  0  -0.242677  -0.14131  0  3.662966  0
N  N115  1  0.51821785  0.77366783  0.51874869  1  0  -0.234035  0  3.459536  0  0  -0.15651  0  3.679461  0  0  -0.178414  0  3.703072  0  0  -0.242639  -0.141209  0  3.662761  0
O  O116  1  0.22312229  0.08202162  0.86649907  1  0  -0.618297  0  1.934512  0  0  -0.566913  0  2.162736  0  0  -0.592935  0  2.154249  0  0  -0.325801  -0.548367  0  2.16832  0
O  O117  1  0.77687804  0.91797947  0.13350086  1  0  -0.618288  0  1.934591  0  0  -0.566914  0  2.162822  0  0  -0.59293  0  2.154331  0  0  -0.325819  -0.548378  0  2.168406  0
O  O118  1  0.13789914  0.88671987  0.76594887  1  0  -0.681489  0  2.058212  0  0  -0.605548  0  2.301203  0  0  -0.636693  0  2.290132  0  0  -0.332028  -0.583255  0  2.307973  0
O  O119  1  0.86210267  0.11327517  0.23404824  1  0  -0.681414  0  2.058421  0  0  -0.605486  0  2.301405  0  0  -0.636625  0  2.290329  0  0  -0.331983  -0.583205  0  2.308177  0
O  O120  1  0.98191730  0.74816932  0.52979079  1  0  -0.551764  0  1.900352  0  0  -0.509972  0  2.10365  0  0  -0.529107  0  2.095719  0  0  -0.298893  -0.497028  0  2.109128  0
O  O121  1  0.01807856  0.25183384  0.47021062  1  0  -0.551649  0  1.900338  0  0  -0.509879  0  2.103588  0  0  -0.529014  0  2.095661  0  0  -0.298847  -0.496932  0  2.109062  0
O  O122  1  0.03287921  0.65419541  0.65812900  1  0  -0.563937  0  2.080917  0  0  -0.517727  0  2.303411  0  0  -0.539559  0  2.290431  0  0  -0.347633  -0.502694  0  2.312029  0
O  O123  1  0.96711738  0.34580271  0.34187039  1  0  -0.563943  0  2.081174  0  0  -0.517763  0  2.303641  0  0  -0.539596  0  2.290653  0  0  -0.347627  -0.502735  0  2.312239  0
O  O124  1  0.08881113  0.98897840  0.08093173  1  0  -0.687427  0  2.078924  0  0  -0.606207  0  2.34895  0  0  -0.639913  0  2.337359  0  0  -0.34311  -0.582573  0  2.356763  0
O  O125  1  0.91118773  0.01102069  0.91907073  1  0  -0.687342  0  2.079048  0  0  -0.606163  0  2.349123  0  0  -0.639881  0  2.337552  0  0  -0.343102  -0.582513  0  2.356927  0
O  O126  1  0.28463383  0.93581910  0.04099393  1  0  -0.61662  0  1.909698  0  0  -0.564032  0  2.135965  0  0  -0.589643  0  2.126013  0  0  -0.330156  -0.54564  0  2.142393  0
O  O127  1  0.71536324  0.06418105  0.95900219  1  0  -0.616656  0  1.909878  0  0  -0.564078  0  2.136116  0  0  -0.589679  0  2.126151  0  0  -0.330164  -0.545652  0  2.142519  0
