# generated using pymatgen
data_CoH30C32(NO)4
_symmetry_space_group_name_H-M   'P 1'
_cell_length_a   8.57905219
_cell_length_b   8.81692650
_cell_length_c   10.34355898
_cell_angle_alpha   79.22484251
_cell_angle_beta   74.73644589
_cell_angle_gamma   64.68298225
_symmetry_Int_Tables_number   1
_chemical_formula_structural   CoH30C32(NO)4
_chemical_formula_sum   'Co1 H30 C32 N4 O4'
_cell_volume   679.81664661
_cell_formula_units_Z   1
loop_
 _symmetry_equiv_pos_site_id
 _symmetry_equiv_pos_as_xyz
  1  'x, y, z'
loop_
 _atom_site_type_symbol
 _atom_site_label
 _atom_site_symmetry_multiplicity
 _atom_site_fract_x
 _atom_site_fract_y
 _atom_site_fract_z
 _atom_site_occupancy
 _atom_site_hse06_10hf_ddec_charge
 _atom_site_hse06_10hf_ddec_spin_density
 _atom_site_hse06_10hf_ddec_sum_bond_order
 _atom_site_hse06_10hf_magmom
 _atom_site_hse06_ddec_charge
 _atom_site_hse06_ddec_spin_density
 _atom_site_hse06_ddec_sum_bond_order
 _atom_site_hse06_magmom
 _atom_site_pbe_cm5_charge
 _atom_site_pbe_ddec_charge
 _atom_site_pbe_ddec_spin_density
 _atom_site_pbe_ddec_sum_bond_order
 _atom_site_pbe_magmom
Co  Co0  1  0.99999949  0.50000254  0.49999889  1  0.753076  0.993642  2.946142  0.884  0.810395  1.009003  2.876715  0.928  0.644488  0.729868  0.870601  2.977985  0.701
H  H1  1  0.89364832  0.22986049  0.14231839  1  0.108916  0.000302  1.033987  0.0  0.112595  0.000238  1.031927  0.0  0.105269  0.106533  0.000394  1.035963  0.0
H  H2  1  0.10635921  0.77013024  0.85768429  1  0.108798  0.000302  1.034093  0.0  0.112473  0.000239  1.032037  0.0  0.105229  0.106416  0.000394  1.036065  0.0
H  H3  1  0.42491291  0.59372896  0.36423113  1  0.119357  0.000256  1.025765  0.0  0.123204  0.000147  1.024534  0.0  0.108303  0.116315  0.000345  1.027328  0.0
H  H4  1  0.57508329  0.40626309  0.63576599  1  0.119378  0.000256  1.025809  0.0  0.123227  0.000147  1.024573  0.0  0.108314  0.116337  0.000345  1.027373  0.0
H  H5  1  0.62141856  0.66142217  0.46494020  1  0.08553  0.000387  1.027229  0.001  0.088767  0.000253  1.024136  0.001  0.11509  0.083475  0.000561  1.02972  0.001
H  H6  1  0.37857376  0.33857612  0.53505972  1  0.0855  0.000387  1.027298  0.001  0.088737  0.000253  1.024207  0.001  0.115089  0.083446  0.000561  1.029785  0.001
H  H7  1  0.38706008  0.42364221  0.22949843  1  0.087327  -6.6e-05  1.027565  0.0  0.093002  -3e-05  1.021245  0.0  0.110036  0.081936  -0.000161  1.034377  0.0
H  H8  1  0.61294159  0.57635107  0.77050123  1  0.087275  -6.6e-05  1.027578  0.0  0.092949  -3e-05  1.021268  0.0  0.110029  0.081903  -0.000161  1.034371  0.0
H  H9  1  0.77546932  0.92857185  0.12651429  1  0.10408  -1.2e-05  1.037704  0.0  0.107806  -2.4e-05  1.035583  0.0  0.098258  0.100347  3.3e-05  1.041068  0.0
H  H10  1  0.22453302  0.07142268  0.87348602  1  0.104083  -1.2e-05  1.037662  0.0  0.107812  -2.4e-05  1.035535  0.0  0.098283  0.10035  3.3e-05  1.041027  0.0
H  H11  1  0.29447168  0.44554428  0.04098608  1  0.111117  -2e-06  1.015707  0.0  0.113996  1e-06  1.014587  0.0  0.101779  0.108685  7.8e-05  1.017269  0.0
H  H12  1  0.70553052  0.55444774  0.95901365  1  0.111129  -2e-06  1.015713  0.0  0.114009  1e-06  1.014591  0.0  0.101811  0.108697  7.8e-05  1.017274  0.0
H  H13  1  0.07031043  0.31617080  0.24947205  1  0.08903  0.000333  1.028363  0.001  0.092214  0.000249  1.025613  0.001  0.114146  0.087372  0.000496  1.030287  0.001
H  H14  1  0.92968868  0.68383123  0.75053169  1  0.089024  0.000333  1.028347  0.001  0.092211  0.000249  1.02559  0.001  0.114141  0.087367  0.000497  1.030269  0.001
H  H15  1  0.87594830  0.63208411  0.07575488  1  0.09927  2.2e-05  1.014338  0.0  0.101605  -9e-06  1.01447  0.0  0.096872  0.096974  0.000118  1.015207  0.0
H  H16  1  0.12405751  0.36790791  0.92424507  1  0.099288  2.2e-05  1.014381  0.0  0.101622  -9e-06  1.014513  0.0  0.096863  0.096984  0.000118  1.015245  0.0
H  H17  1  0.87819075  0.02118791  0.35771997  1  0.121922  8.6e-05  1.073664  0.0  0.122758  3.9e-05  1.07894  0.0  0.089247  0.122572  0.000157  1.068948  0.0
H  H18  1  0.12181106  0.97881919  0.64228150  1  0.121958  8.6e-05  1.07364  0.0  0.122795  3.9e-05  1.078915  0.0  0.089281  0.122608  0.000157  1.068923  0.0
H  H19  1  0.29549042  0.77487649  0.18982387  1  0.140539  -0.000337  1.021667  0.0  0.141487  -0.000209  1.023146  0.0  0.095522  0.141205  -0.000261  1.01943  0.0
H  H20  1  0.70451086  0.22513189  0.81017656  1  0.140552  -0.000337  1.021672  0.0  0.141498  -0.000209  1.023152  0.0  0.095514  0.141216  -0.000261  1.019434  0.0
H  H21  1  0.10330895  0.95935602  0.16838867  1  0.136244  9.1e-05  1.020799  0.0  0.136229  0.000104  1.022334  0.0  0.091441  0.137322  0.000136  1.018556  0.0
H  H22  1  0.89669232  0.04065233  0.83161370  1  0.136285  9.1e-05  1.020803  0.0  0.136267  0.000104  1.022346  0.0  0.091452  0.137362  0.000136  1.018559  0.0
H  H23  1  0.14656364  0.76820251  0.10471299  1  0.147026  -0.000505  1.002477  0.0  0.148799  -0.000352  1.001846  0.0  0.097464  0.147342  -0.000352  1.001571  0.0
H  H24  1  0.85343900  0.23180841  0.89528582  1  0.146983  -0.000505  1.002456  0.0  0.148756  -0.000352  1.001825  0.0  0.097447  0.147299  -0.000352  1.001549  0.0
H  H25  1  0.53341099  0.97941981  0.61809236  1  0.151224  -0.000304  0.998041  0.0  0.15256  -0.000203  0.998911  0.0  0.098317  0.151344  -0.000263  0.996235  0.0
H  H26  1  0.46658909  0.02058857  0.38190832  1  0.151237  -0.000304  0.998015  0.0  0.152573  -0.000204  0.998884  0.0  0.098324  0.151358  -0.000263  0.996209  0.0
H  H27  1  0.64015071  0.11793285  0.53405755  1  0.140087  5.1e-05  1.009666  0.0  0.140112  6.9e-05  1.011049  0.0  0.093615  0.140878  7.7e-05  1.007864  0.0
H  H28  1  0.35984816  0.88207552  0.46594338  1  0.140104  5.1e-05  1.009709  0.0  0.140129  6.9e-05  1.011091  0.0  0.093631  0.140895  7.7e-05  1.007907  0.0
H  H29  1  0.69487967  0.99358826  0.68524132  1  0.152412  -0.000556  0.993996  0.0  0.153764  -0.000353  0.994995  0.0  0.099918  0.15276  -0.000497  0.992  0.0
H  H30  1  0.30511975  0.00641888  0.31475775  1  0.152447  -0.000556  0.993949  0.0  0.153798  -0.000354  0.994951  0.0  0.099933  0.152795  -0.000497  0.991953  0.0
C  C31  1  0.64319363  0.40133394  0.24837406  1  0.091748  0.002074  4.038994  0.002  0.096615  -0.000425  4.055407  0.0  -0.003291  0.08935  0.008313  4.030708  0.008
C  C32  1  0.35680788  0.59865679  0.75162794  1  0.091748  0.002073  4.038873  0.002  0.096616  -0.000424  4.055284  0.0  -0.003312  0.08935  0.008312  4.030587  0.008
C  C33  1  0.82879414  0.32443578  0.21494970  1  -0.174114  0.000899  3.971882  0.002  -0.179661  0.001023  3.988625  0.002  -0.083842  -0.172662  0.004778  3.962887  0.005
C  C34  1  0.17120924  0.67555620  0.78505270  1  -0.173992  0.000899  3.971801  0.002  -0.179537  0.001022  3.988548  0.002  -0.083846  -0.172538  0.004776  3.9628  0.005
C  C35  1  0.48963953  0.19334850  0.06249687  1  0.167744  0.000252  4.069911  0.0  0.171621  0.000112  4.091786  0.0  0.093837  0.165097  0.001026  4.056935  0.001
C  C36  1  0.51036387  0.80664351  0.93750358  1  0.167771  0.000252  4.069928  0.0  0.171648  0.000114  4.091805  0.0  0.093805  0.165123  0.001027  4.05695  0.001
C  C37  1  0.54973620  0.02137286  0.03393238  1  0.004143  -5e-06  3.9747  0.0  0.003131  -5.6e-05  3.997499  0.0  -0.00693  0.00398  0.000604  3.961547  0.001
C  C38  1  0.45026376  0.97862171  0.96606455  1  0.004022  -5e-06  3.974784  0.0  0.003009  -5.7e-05  3.997585  0.0  -0.006992  0.003864  0.000603  3.961629  0.001
C  C39  1  0.56761972  0.52830250  0.33733988  1  -0.178589  0.001008  3.9686  0.002  -0.184792  0.000892  3.985441  0.002  -0.083799  -0.176297  0.004422  3.960434  0.004
C  C40  1  0.43237888  0.47168952  0.66265964  1  -0.178627  0.001008  3.96858  0.002  -0.184828  0.000891  3.985418  0.002  -0.083788  -0.176338  0.004422  3.960414  0.004
C  C41  1  0.67549528  0.56687832  0.39281859  1  0.090627  -0.000378  3.978789  0.001  0.0998  -0.00201  3.990325  -0.001  0.042009  0.083322  0.002723  3.973273  0.002
C  C42  1  0.32449877  0.43311872  0.60718114  1  0.090609  -0.000378  3.978895  0.001  0.099781  -0.002009  3.990434  -0.001  0.041993  0.083308  0.002722  3.973375  0.002
C  C43  1  0.53016144  0.35398436  0.19620382  1  0.080807  0.001339  3.920754  0.001  0.094069  0.000162  3.921813  0.0  0.067589  0.064886  0.00916  3.929327  0.008
C  C44  1  0.46984037  0.64601145  0.80379544  1  0.080924  0.001339  3.92071  0.001  0.094179  0.000162  3.921777  0.0  0.067631  0.064989  0.009158  3.92927  0.008
C  C45  1  0.80092199  0.85367975  0.51189835  1  0.477519  -0.011592  4.039657  -0.007  0.509377  -0.007876  4.044824  -0.004  0.114871  0.457715  -0.010073  4.033116  -0.006
C  C46  1  0.19907623  0.14632738  0.48810097  1  0.477794  -0.011594  4.039421  -0.007  0.509663  -0.007878  4.044566  -0.004  0.11494  0.457988  -0.010076  4.032887  -0.006
C  C47  1  0.70371048  0.89414125  0.07261611  1  -0.127649  0.000683  3.992274  0.001  -0.128344  -0.000256  4.010335  0.0  -0.095078  -0.130165  0.004239  3.985018  0.004
C  C48  1  0.29628664  0.10585704  0.92738474  1  -0.127565  0.000683  3.992147  0.001  -0.12826  -0.000259  4.010207  0.0  -0.095051  -0.130085  0.00424  3.984891  0.004
C  C49  1  0.33649608  0.31428640  0.02340624  1  -0.18213  0.000715  3.996614  0.001  -0.184825  -0.000224  4.016359  0.0  -0.097057  -0.181815  0.004048  3.985811  0.004
C  C50  1  0.66350851  0.68570559  0.97659589  1  -0.182208  0.000715  3.996505  0.001  -0.184902  -0.000227  4.016246  0.0  -0.097114  -0.181892  0.004047  3.985705  0.004
C  C51  1  0.92674753  0.37193104  0.27366545  1  0.082038  -0.000354  3.965388  0.001  0.090266  -0.001713  3.977302  -0.001  0.036606  0.075078  0.001526  3.960411  0.001
C  C52  1  0.07325146  0.62806849  0.72633676  1  0.082008  -0.000353  3.965353  0.001  0.090235  -0.001713  3.977268  -0.001  0.036648  0.075041  0.001526  3.960384  0.001
C  C53  1  0.05603586  0.76798947  0.31906573  1  0.485644  -0.011238  4.025587  -0.007  0.516736  -0.007733  4.031251  -0.004  0.114835  0.467114  -0.009642  4.017402  -0.006
C  C54  1  0.94396476  0.23201766  0.68093405  1  0.485766  -0.01124  4.025523  -0.007  0.51686  -0.007734  4.031185  -0.004  0.114932  0.467235  -0.009643  4.017336  -0.006
C  C55  1  0.75896972  0.72986694  0.04377644  1  -0.079134  0.000145  4.075504  0.0  -0.08118  6.3e-05  4.09762  0.0  -0.098751  -0.078722  0.000159  4.064112  0.0
C  C56  1  0.24103620  0.27012756  0.95622698  1  -0.079228  0.000145  4.075749  0.0  -0.081274  6.5e-05  4.097865  0.0  -0.098791  -0.078802  0.000159  4.064344  0.0
C  C57  1  0.90898273  0.88948216  0.39355482  1  -0.486881  -0.000661  4.0  0.001  -0.514083  -0.001322  4.021119  0.0  -0.161882  -0.468351  -0.000785  3.982093  0.001
C  C58  1  0.09102026  0.11052491  0.60644931  1  -0.486972  -0.000661  3.999936  0.001  -0.514174  -0.001321  4.021046  0.0  -0.161892  -0.468439  -0.000785  3.982029  0.001
C  C59  1  0.15470829  0.82228821  0.18904240  1  -0.479571  -0.001059  3.923909  0.0  -0.48609  -0.000458  3.930332  0.0  -0.243266  -0.474877  -0.000871  3.914592  0.0
C  C60  1  0.84528993  0.17771892  0.81095692  1  -0.479633  -0.001059  3.923886  0.0  -0.486152  -0.000458  3.930308  0.0  -0.243294  -0.474939  -0.000871  3.914566  0.0
C  C61  1  0.65842749  0.99545097  0.59043995  1  -0.476771  -0.001504  3.901659  -0.001  -0.483772  -0.000822  3.90842  0.0  -0.240287  -0.471729  -0.001296  3.893032  -0.001
C  C62  1  0.34157193  0.00455617  0.40955911  1  -0.476941  -0.001504  3.901755  -0.001  -0.483947  -0.00082  3.908512  0.0  -0.240348  -0.471899  -0.001297  3.893132  -0.001
N  N63  1  0.85240046  0.48949199  0.36388598  1  -0.233278  0.029246  3.513253  0.048  -0.246064  0.02399  3.52167  0.041  -0.315683  -0.223745  0.039849  3.506711  0.057
N  N64  1  0.14759560  0.51050882  0.63611471  1  -0.233196  0.029247  3.513308  0.048  -0.245983  0.02399  3.521728  0.041  -0.315679  -0.223659  0.039848  3.506758  0.057
N  N65  1  0.59691205  0.23179842  0.11931628  1  -0.28879  0.002412  3.395607  0.004  -0.298462  -0.000261  3.406815  0.0  -0.309249  -0.285683  0.010682  3.394177  0.014
N  N66  1  0.40308908  0.76819612  0.88068331  1  -0.288837  0.002412  3.395559  0.004  -0.298509  -0.00026  3.406768  0.0  -0.309234  -0.28573  0.010679  3.394133  0.014
O  O67  1  0.81367670  0.70496963  0.56346778  1  -0.470035  -0.005855  2.445887  -0.004  -0.512925  -0.005149  2.443571  -0.002  -0.28346  -0.439412  -0.003973  2.442947  -0.002
O  O68  1  0.18631859  0.29503877  0.43653003  1  -0.470136  -0.005855  2.445765  -0.004  -0.513028  -0.005149  2.44344  -0.002  -0.283476  -0.439514  -0.003973  2.442829  -0.002
O  O69  1  0.11706018  0.60833543  0.35234899  1  -0.473872  -0.002693  2.428646  -0.001  -0.515437  -0.002357  2.425624  0.001  -0.28466  -0.443006  -0.001043  2.42457  0.001
O  O70  1  0.88293872  0.39167298  0.64764903  1  -0.473963  -0.002693  2.428722  -0.001  -0.515529  -0.002358  2.425701  0.001  -0.284754  -0.443105  -0.001043  2.424668  0.001
