# generated using pymatgen
data_Zn2H54C63N6O11
_symmetry_space_group_name_H-M   'P 1'
_cell_length_a   10.97957095
_cell_length_b   16.09915510
_cell_length_c   16.90274122
_cell_angle_alpha   88.21413959
_cell_angle_beta   88.68375068
_cell_angle_gamma   87.74332310
_symmetry_Int_Tables_number   1
_chemical_formula_structural   Zn2H54C63N6O11
_chemical_formula_sum   'Zn2 H54 C63 N6 O11'
_cell_volume   2983.28473357
_cell_formula_units_Z   1
loop_
 _symmetry_equiv_pos_site_id
 _symmetry_equiv_pos_as_xyz
  1  'x, y, z'
loop_
 _atom_site_type_symbol
 _atom_site_label
 _atom_site_symmetry_multiplicity
 _atom_site_fract_x
 _atom_site_fract_y
 _atom_site_fract_z
 _atom_site_occupancy
 _atom_site_pbe_bader_charge
 _atom_site_pbe_bader_spin_density
 _atom_site_pbe_cm5_charge
 _atom_site_pbe_ddec_charge
 _atom_site_pbe_ddec_spin_density
 _atom_site_pbe_ddec_sum_bond_order
 _atom_site_pbe_magmom
Zn  Zn0  1  0.49421661  0.59438780  0.49902213  1  1.322915  0  0.681381  0.881033  0  2.284861  0
Zn  Zn1  1  0.50970805  0.41036720  0.48915870  1  1.304034  0  0.687669  0.847527  0  2.439532  0
H  H2  1  0.65017636  0.39360305  0.09246456  1  0.098869  0  0.103737  0.102658  0  1.027015  0
H  H3  1  0.37599123  0.27619852  0.56918009  1  0.161033  0  0.127158  0.106538  0  1.00011  0
H  H4  1  0.51312266  0.60098125  0.73529230  1  0.100095  0  0.09887  0.103387  0  1.047012  0
H  H5  1  0.56876942  0.60766433  0.87845237  1  0.092527  0  0.103966  0.106297  0  1.028008  0
H  H6  1  0.52878435  0.63856877  0.25163514  1  0.106681  0  0.107853  0.118783  0  1.004978  0
H  H7  1  0.23411388  0.46932786  0.64110368  1  0.084423  0  0.100294  0.102465  0  1.024597  0
H  H8  1  0.31331423  0.37056608  0.74379842  1  0.060626  0  0.100184  0.098767  0  1.002657  0
H  H9  1  0.24590674  0.22425443  0.75048045  1  0.056381  0  0.09677  0.091845  0  1.002686  0
H  H10  1  0.09795732  0.17862697  0.65200605  1  0.043656  0  0.096235  0.09109  0  0.998967  0
H  H11  1  0.01842674  0.27760702  0.54963348  1  0.064884  0  0.097645  0.095208  0  1.047365  0
H  H12  1  0.77448562  0.73673371  0.45663459  1  0.079918  0  0.104278  0.069511  0  0.98959  0
H  H13  1  0.66532406  0.34648042  0.87804130  1  0.088142  0  0.105533  0.11094  0  1.005431  0
H  H14  1  0.73931052  0.79993240  0.36988402  1  0.023437  0  0.095829  0.053837  0  0.980892  0
H  H15  1  0.75617807  0.61007904  0.37353049  1  0.070503  0  0.098429  0.105962  0  0.993357  0
H  H16  1  0.74546015  0.67557949  0.28815846  1  0.040191  0  0.087847  0.078366  0  1.005378  0
H  H17  1  0.95316068  0.73352797  0.31913856  1  0.040001  0  0.083441  0.10664  0  1.006873  0
H  H18  1  0.96252605  0.62473305  0.30577622  1  0.029304  0  0.090172  0.120722  0  1.000735  0
H  H19  1  0.96125311  0.66414168  0.40291283  1  0.051196  0  0.08824  0.119563  0  1.010055  0
H  H20  1  0.44498350  0.77823696  0.73920145  1  0.054766  0  0.100456  0.096702  0  1.005067  0
H  H21  1  0.32850932  0.70935640  0.84838797  1  0.067286  0  0.09909  0.094203  0  1.016623  0
H  H22  1  0.16303230  0.61425192  0.81793502  1  0.058064  0  0.104433  0.098956  0  0.989836  0
H  H23  1  0.11580437  0.58905100  0.67712921  1  0.0834  0  0.104052  0.098545  0  1.022231  0
H  H24  1  0.62078402  0.37813147  0.24032434  1  0.060824  0  0.103889  0.107275  0  1.000949  0
H  H25  1  0.23455929  0.65546840  0.56828011  1  0.128224  0  0.105313  0.117515  0  1.035368  0
H  H26  1  0.90975912  0.28897423  0.40543081  1  0.043492  0  0.099497  0.063482  0  0.974405  0
H  H27  1  0.04090888  0.35015150  0.41311704  1  0.011736  0  0.096839  0.061226  0  0.998456  0
H  H28  1  0.79332332  0.41334199  0.34892312  1  0.022936  0  0.091128  0.094872  0  1.001508  0
H  H29  1  0.92354364  0.47349509  0.35553821  1  0.037386  0  0.089708  0.083395  0  0.99467  0
H  H30  1  0.03940467  0.37965795  0.26009737  1  0.012351  0  0.086291  0.112263  0  1.000187  0
H  H31  1  0.90402842  0.42298381  0.21699793  1  0.017188  0  0.087765  0.118274  0  1.005995  0
H  H32  1  0.90911599  0.31848305  0.25322658  1  0.026528  0  0.080943  0.101563  0  1.009954  0
H  H33  1  0.90963123  0.57034964  0.69686654  1  0.033486  0  0.091766  0.05136  0  0.981862  0
H  H34  1  0.76297061  0.58454424  0.65412964  1  0.07504  0  0.098783  0.069198  0  1.007561  0
H  H35  1  0.61006042  0.88927247  0.42918339  1  0.107658  0  0.114636  0.133852  0  1.027424  0
H  H36  1  0.95787825  0.71551255  0.64233790  1  0.043929  0  0.088388  0.081314  0  0.991912  0
H  H37  1  0.80544090  0.72684120  0.61024979  1  -0.00268  0  0.086829  0.080642  0  0.986835  0
H  H38  1  0.73058165  0.70717123  0.75360913  1  0.023148  0  0.082982  0.111218  0  1.012589  0
H  H39  1  0.82530953  0.79387047  0.74145190  1  0.004575  0  0.084558  0.110253  0  1.005287  0
H  H40  1  0.88424776  0.69906208  0.78412471  1  0.008448  0  0.084002  0.107998  0  1.01058  0
H  H41  1  0.66811030  0.73757464  0.17606657  1  0.052166  0  0.096588  0.093991  0  1.023106  0
H  H42  1  0.62995285  0.88030058  0.12048713  1  0.07878  0  0.097566  0.092335  0  0.998122  0
H  H43  1  0.48663492  0.90490869  0.00898186  1  0.047165  0  0.09806  0.092627  0  0.99937  0
H  H44  1  0.38257447  0.78542471  0.95424928  1  0.017005  0  0.094999  0.088303  0  1.017456  0
H  H45  1  0.42283098  0.64231348  0.00901161  1  0.07545  0  0.100588  0.100409  0  1.011408  0
H  H46  1  0.67821707  0.12384943  0.40301964  1  0.123773  0  0.117002  0.126368  0  0.984006  0
H  H47  1  0.50359256  0.25224883  0.80967769  1  0.05039  0  0.096994  0.09554  0  1.003838  0
H  H48  1  0.54904882  0.11267435  0.75492085  1  0.058469  0  0.094493  0.088223  0  1.003177  0
H  H49  1  0.69908383  0.09632622  0.64310378  1  0.040752  0  0.091145  0.08639  0  1.008866  0
H  H50  1  0.80084933  0.22159423  0.58553269  1  0.038675  0  0.094267  0.089072  0  1.012333  0
H  H51  1  0.75199913  0.36021011  0.63796084  1  0.078802  0  0.101076  0.10743  0  1.018122  0
H  H52  1  0.66251336  0.28172046  0.40598562  1  0.109021  0  0.128694  0.104589  0  0.978096  0
H  H53  1  0.37827649  0.11934601  0.57260140  1  0.114657  0  0.115993  0.121399  0  1.008973  0
H  H54  1  0.37728689  0.88481798  0.63741722  1  0.095189  0  0.115484  0.131565  0  0.996643  0
H  H55  1  0.08530293  0.54769136  0.45173022  1  0.086302  0  0.106787  0.124833  0  1.013968  0
C  C56  1  0.54861882  0.49774092  0.34167036  1  1.558399  0  0.213106  0.586044  0  4.180803  0
C  C57  1  0.55485840  0.47087685  0.72720078  1  -0.002578  0  -0.009669  -0.069614  0  3.886763  0
C  C58  1  0.60216603  0.39760052  0.76567261  1  0.004261  0  0.006145  0.068123  0  3.944061  0
C  C59  1  0.72936554  0.51822931  0.52297791  1  1.580254  0  0.203562  0.551185  0  4.234097  0
C  C60  1  0.63126653  0.40202025  0.84572049  1  -0.090334  0  -0.079883  -0.192899  0  3.915417  0
C  C61  1  0.44075645  0.23960750  0.53336692  1  0.56234  0  0.06955  0.128937  0  3.874536  0
C  C62  1  0.44280160  0.15343281  0.53560910  1  -0.076705  0  -0.066267  -0.179374  0  3.914931  0
C  C63  1  0.53022056  0.11102817  0.48861764  1  0.337204  0  0.104964  0.195494  0  4.05102  0
C  C64  1  0.61087014  0.15628772  0.44036427  1  -0.002485  0  -0.071641  -0.190305  0  3.93358  0
C  C65  1  0.60278690  0.24251689  0.44198848  1  0.494114  0  0.062902  0.109031  0  3.920573  0
C  C66  1  0.55679200  0.85544579  0.47354773  1  0.022826  0  -0.093612  -0.315534  0  3.930861  0
C  C67  1  0.60854444  0.43829371  0.20965835  1  -0.006216  0  -0.083855  -0.085638  0  3.99392  0
C  C68  1  0.54474467  0.76978697  0.47076604  1  1.084291  0  0.218809  0.416534  0  4.063826  0
C  C69  1  0.49340193  0.89732964  0.53363705  1  0.350405  0  0.097932  0.226489  0  4.076413  0
C  C70  1  0.41775528  0.76622492  0.58350242  1  0.492241  0  0.139982  0.262647  0  3.933267  0
C  C71  1  0.50588442  0.47335561  0.64487507  1  1.555078  0  0.208894  0.581735  0  4.188371  0
C  C72  1  0.42619118  0.85240747  0.59009777  1  -0.032735  0  -0.081147  -0.254824  0  3.901641  0
C  C73  1  0.27003403  0.50278242  0.48044998  1  1.544104  0  0.214247  0.646913  0  4.166973  0
C  C74  1  0.07068383  0.44347191  0.52902869  1  -0.056587  0  -0.000289  0.033498  0  3.995048  0
C  C75  1  0.13509870  0.49926657  0.48580700  1  0.020629  0  -0.088088  -0.259884  0  3.850834  0
C  C76  1  0.93627409  0.44600053  0.51990734  1  0.482462  0  0.079004  0.123395  0  4.024153  0
C  C77  1  0.86201136  0.51171174  0.54130286  1  0.556418  0  0.050491  -0.038762  0  4.025966  0
C  C78  1  0.62432261  0.44665423  0.12848703  1  -0.02605  0  -0.086519  -0.143469  0  3.987267  0
C  C79  1  0.57299574  0.50788346  0.25412035  1  0.030983  0  -0.011394  -0.0147  0  3.951094  0
C  C80  1  0.12156645  0.38078526  0.58695615  1  -0.008295  0  -0.007028  0.07958  0  3.968563  0
C  C81  1  0.20438682  0.40549821  0.64309572  1  -0.058061  0  -0.086278  -0.111129  0  3.939605  0
C  C82  1  0.24853354  0.34979455  0.70139610  1  -0.044122  0  -0.093164  -0.074828  0  4.021752  0
C  C83  1  0.21113159  0.26782155  0.70491233  1  -0.027969  0  -0.098419  -0.099455  0  4.044938  0
C  C84  1  0.12878254  0.24229613  0.64958617  1  -0.049545  0  -0.101884  -0.091633  0  4.06085  0
C  C85  1  0.08384996  0.29813382  0.59150992  1  -0.059412  0  -0.0973  -0.140472  0  3.978576  0
C  C86  1  0.72949110  0.73822229  0.39901197  1  0.373763  0  -0.058068  0.051941  0  3.842019  0
C  C87  1  0.78372518  0.66998249  0.34774089  1  -0.026837  0  -0.168785  -0.129736  0  3.951232  0
C  C88  1  0.92275050  0.67347034  0.34361880  1  -0.095653  0  -0.240908  -0.355976  0  3.969103  0
C  C89  1  0.60326656  0.52435772  0.08941818  1  0.368007  0  0.090088  0.127898  0  3.999754  0
C  C90  1  0.34741663  0.72151171  0.64624520  1  -0.050221  0  -0.008822  0.029273  0  3.981282  0
C  C91  1  0.37182440  0.73722556  0.72570499  1  -0.019957  0  -0.090602  -0.129347  0  3.987932  0
C  C92  1  0.30627322  0.69850805  0.78709136  1  -0.028495  0  -0.093216  -0.085752  0  4.043614  0
C  C93  1  0.21414409  0.64480899  0.76996334  1  -0.123941  0  -0.086323  -0.079644  0  4.008219  0
C  C94  1  0.18813187  0.63029600  0.69119692  1  -0.003106  0  -0.085039  -0.071772  0  3.993169  0
C  C95  1  0.25437793  0.66804211  0.62948426  1  -0.016297  0  -0.0822  -0.101532  0  3.929691  0
C  C96  1  0.94036471  0.35260158  0.41215504  1  0.421766  0  -0.069012  0.022657  0  3.895112  0
C  C97  1  0.89358999  0.41022421  0.34562576  1  -0.021234  0  -0.173862  -0.141876  0  3.969224  0
C  C98  1  0.93923282  0.38135005  0.26459317  1  -0.038243  0  -0.244141  -0.348458  0  3.987078  0
C  C99  1  0.85805419  0.60361233  0.64932581  1  0.364416  0  -0.070653  0.032532  0  3.879831  0
C  C100  1  0.57044049  0.59583359  0.13350535  1  -0.04833  0  0.005942  0.015236  0  3.92989  0
C  C101  1  0.86394198  0.69714173  0.65594589  1  0.021435  0  -0.17054  -0.128857  0  3.983521  0
C  C102  1  0.82369776  0.72586744  0.73821825  1  -0.038778  0  -0.2439  -0.349086  0  3.981541  0
C  C103  1  0.54829664  0.67977120  0.09654402  1  -0.016498  0  -0.005734  0.078867  0  3.992669  0
C  C104  1  0.60507298  0.74807395  0.12745472  1  0.021763  0  -0.093397  -0.132899  0  3.979795  0
C  C105  1  0.58384114  0.82840520  0.09600102  1  -0.135465  0  -0.100561  -0.090413  0  4.06083  0
C  C106  1  0.50404651  0.84216076  0.03340651  1  -0.078766  0  -0.099788  -0.093476  0  4.048201  0
C  C107  1  0.44623893  0.77484554  0.00250818  1  0.02434  0  -0.100778  -0.092114  0  4.055656  0
C  C108  1  0.46834884  0.69442924  0.03333096  1  -0.049823  0  -0.090363  -0.130634  0  3.990279  0
C  C109  1  0.62472184  0.31583848  0.72806022  1  -0.034048  0  -0.003802  0.081652  0  3.981167  0
C  C110  1  0.56878822  0.24519756  0.76038687  1  -0.107173  0  -0.096702  -0.139731  0  3.994316  0
C  C111  1  0.55701051  0.58565613  0.21596974  1  -0.069317  0  -0.081074  -0.142413  0  3.939535  0
C  C112  1  0.59446315  0.16676951  0.72963095  1  -0.050479  0  -0.104395  -0.09358  0  4.069924  0
C  C113  1  0.67831703  0.15768832  0.66679695  1  0.013668  0  -0.105813  -0.104312  0  4.063652  0
C  C114  1  0.73516546  0.22767232  0.63464487  1  -0.041479  0  -0.099392  -0.086138  0  4.031988  0
C  C115  1  0.70828432  0.30617691  0.66457071  1  -0.004153  0  -0.084687  -0.101338  0  3.9253  0
C  C116  1  0.57763839  0.54988787  0.84658619  1  -0.029509  0  -0.089285  -0.154664  0  3.972242  0
C  C117  1  0.54751889  0.54599125  0.76791221  1  -0.030188  0  -0.086593  -0.082338  0  4.004085  0
C  C118  1  0.61599184  0.47604783  0.88696589  1  0.360851  0  0.085527  0.178281  0  4.067302  0
N  N119  1  0.60686857  0.53437504  0.00636291  1  -0.488881  0  -0.146783  -0.121679  0  3.301918  0
N  N120  1  0.63138267  0.46803953  0.96942146  1  -0.502555  0  -0.154924  -0.145246  0  3.281791  0
N  N121  1  0.51938609  0.28285748  0.48749658  1  -1.232202  0  -0.310919  -0.189591  0  3.497992  0
N  N122  1  0.54095054  0.02348501  0.48434210  1  -0.467684  0  -0.133496  -0.115799  0  3.245653  0
N  N123  1  0.48849357  0.98501903  0.54094751  1  -0.444616  0  -0.130859  -0.109914  0  3.21661  0
N  N124  1  0.47494251  0.72571476  0.52287289  1  -1.196153  0  -0.297496  -0.331228  0  3.323013  0
O  O125  1  0.52568566  0.56325186  0.37999791  1  -1.169533  0  -0.311544  -0.554994  0  2.369105  0
O  O126  1  0.88983069  0.37653965  0.48841962  1  -1.044644  0  -0.185902  -0.197105  0  2.567604  0
O  O127  1  0.91182343  0.57964277  0.57386168  1  -1.061634  0  -0.203124  -0.209939  0  2.576097  0
O  O128  1  0.55300194  0.42335980  0.37033391  1  -1.170061  0  -0.323379  -0.562353  0  2.330204  0
O  O129  1  0.67981936  0.59122750  0.51824581  1  -1.146158  0  -0.312174  -0.536457  0  2.356011  0
O  O130  1  0.67645787  0.45078615  0.51332907  1  -1.178461  0  -0.31306  -0.545963  0  2.469402  0
O  O131  1  0.48361527  0.54553483  0.61382374  1  -1.178481  0  -0.321422  -0.573523  0  2.385542  0
O  O132  1  0.48849147  0.40504367  0.61230892  1  -1.160997  0  -0.305764  -0.540892  0  2.387596  0
O  O133  1  0.31324138  0.57531746  0.47912794  1  -1.157846  0  -0.315833  -0.549267  0  2.301505  0
O  O134  1  0.33055755  0.43411824  0.47611184  1  -1.167731  0  -0.31582  -0.546015  0  2.346842  0
O  O135  1  0.60063407  0.72370664  0.41442103  1  -1.082496  0  -0.170392  -0.217688  0  2.534442  0
