# generated using pymatgen
data_ZnH8C8(O2F)4
_symmetry_space_group_name_H-M   'P 1'
_cell_length_a   5.11670098
_cell_length_b   6.56680325
_cell_length_c   9.18675435
_cell_angle_alpha   73.80851203
_cell_angle_beta   88.41353868
_cell_angle_gamma   73.26153465
_symmetry_Int_Tables_number   1
_chemical_formula_structural   ZnH8C8(O2F)4
_chemical_formula_sum   'Zn1 H8 C8 O8 F4'
_cell_volume   283.40938504
_cell_formula_units_Z   1
loop_
 _symmetry_equiv_pos_site_id
 _symmetry_equiv_pos_as_xyz
  1  'x, y, z'
loop_
 _atom_site_type_symbol
 _atom_site_label
 _atom_site_symmetry_multiplicity
 _atom_site_fract_x
 _atom_site_fract_y
 _atom_site_fract_z
 _atom_site_occupancy
 _atom_site_hle17_bader_spin_density
 _atom_site_hle17_ddec_charge
 _atom_site_hle17_ddec_spin_density
 _atom_site_hle17_ddec_sum_bond_order
 _atom_site_hle17_magmom
 _atom_site_hse06_10hf_bader_spin_density
 _atom_site_hse06_10hf_ddec_charge
 _atom_site_hse06_10hf_ddec_spin_density
 _atom_site_hse06_10hf_ddec_sum_bond_order
 _atom_site_hse06_10hf_magmom
 _atom_site_hse06_bader_spin_density
 _atom_site_hse06_ddec_charge
 _atom_site_hse06_ddec_spin_density
 _atom_site_hse06_ddec_sum_bond_order
 _atom_site_hse06_magmom
 _atom_site_pbe_bader_spin_density
 _atom_site_pbe_cm5_charge
 _atom_site_pbe_ddec_charge
 _atom_site_pbe_ddec_spin_density
 _atom_site_pbe_ddec_sum_bond_order
 _atom_site_pbe_magmom
Zn  Zn0  1  0.00000380  0.99999776  0.00000005  1  0  1.222582  0  1.623806  0  0  1.070451  0  2.055966  0  0  1.116073  0  1.997211  0  0  0.665778  1.03841  0  2.096414  0
H  H1  1  0.32032338  0.65794302  0.92662828  1  0  0.424222  0  0.855899  0  0  0.391296  0  0.935454  0  0  0.400684  0  0.92168  0  0  0.299269  0.384547  0  0.944117  0
H  H2  1  0.67968155  0.34204472  0.07337973  1  0  0.424173  0  0.855881  0  0  0.39128  0  0.935444  0  0  0.400668  0  0.92167  0  0  0.299264  0.384546  0  0.944035  0
H  H3  1  0.18593234  0.59324541  0.08456008  1  0  0.411215  0  0.906304  0  0  0.376135  0  0.97763  0  0  0.388132  0  0.960458  0  0  0.285639  0.367771  0  0.989527  0
H  H4  1  0.81406128  0.40674097  0.91544076  1  0  0.41119  0  0.906371  0  0  0.37613  0  0.977672  0  0  0.388128  0  0.960498  0  0  0.285648  0.367768  0  0.989567  0
H  H5  1  0.84530225  0.82026881  0.79655543  1  0  0.439907  0  0.849089  0  0  0.404342  0  0.920379  0  0  0.415344  0  0.903865  0  0  0.296913  0.396455  0  0.932221  0
H  H6  1  0.15471056  0.17971871  0.20344705  1  0  0.439973  0  0.849026  0  0  0.40435  0  0.920396  0  0  0.415357  0  0.903872  0  0  0.296897  0.396462  0  0.93224  0
H  H7  1  0.58631308  0.01358153  0.82085688  1  0  0.43246  0  0.86453  0  0  0.399995  0  0.930474  0  0  0.410518  0  0.915305  0  0  0.292195  0.392557  0  0.941205  0
H  H8  1  0.41369578  0.98640610  0.17914673  1  0  0.432464  0  0.864553  0  0  0.40003  0  0.930448  0  0  0.41055  0  0.915283  0  0  0.292186  0.392591  0  0.941179  0
C  C9  1  0.18313606  0.36865030  0.76288599  1  0  0.714379  0  3.843398  0  0  0.655368  0  4.14776  0  0  0.690607  0  4.137795  0  0  0.226615  0.631507  0  4.153918  0
C  C10  1  0.81686401  0.63133427  0.23711402  1  0  0.714281  0  3.843356  0  0  0.655168  0  4.14788  0  0  0.690398  0  4.137925  0  0  0.22653  0.631298  0  4.154041  0
C  C11  1  0.34136382  0.43930835  0.62633178  1  0  -0.212799  0  3.743462  0  0  -0.217748  0  4.015468  0  0  -0.224166  0  4.030653  0  0  -0.02527  -0.21364  0  4.005681  0
C  C12  1  0.65863532  0.56075186  0.37367706  1  0  -0.212586  0  3.743357  0  0  -0.217488  0  4.015386  0  0  -0.223903  0  4.030582  0  0  -0.025075  -0.21338  0  4.005601  0
C  C13  1  0.45711345  0.61228548  0.60825063  1  0  0.222748  0  3.742776  0  0  0.177699  0  4.047522  0  0  0.187755  0  4.055472  0  0  0.097147  0.170652  0  4.042455  0
C  C14  1  0.54284001  0.38769212  0.39177003  1  0  0.222409  0  3.742788  0  0  0.177358  0  4.047574  0  0  0.187397  0  4.055536  0  0  0.096995  0.170319  0  4.042503  0
C  C15  1  0.61520422  0.67024291  0.48668524  1  0  0.20971  0  3.774557  0  0  0.173593  0  4.082627  0  0  0.183142  0  4.090944  0  0  0.095435  0.166784  0  4.077328  0
C  C16  1  0.38481522  0.32977233  0.51328003  1  0  0.209913  0  3.774555  0  0  0.173825  0  4.082609  0  0  0.183363  0  4.090932  0  0  0.095489  0.167024  0  4.077305  0
O  O17  1  0.23998000  0.16166960  0.82735275  1  0  -0.636863  0  2.051736  0  0  -0.566888  0  2.294984  0  0  -0.595208  0  2.282778  0  0  -0.295824  -0.547627  0  2.303109  0
O  O18  1  0.76003213  0.83834423  0.17263795  1  0  -0.636914  0  2.051445  0  0  -0.566912  0  2.294701  0  0  -0.595234  0  2.282536  0  0  -0.295858  -0.547639  0  2.302817  0
O  O19  1  0.00477235  0.51943550  0.80268573  1  0  -0.633555  0  2.022381  0  0  -0.577733  0  2.250637  0  0  -0.602965  0  2.238998  0  0  -0.305511  -0.560204  0  2.257879  0
O  O20  1  0.99520710  0.48056439  0.19730611  1  0  -0.633428  0  2.022423  0  0  -0.577579  0  2.250741  0  0  -0.602808  0  2.239105  0  0  -0.305469  -0.560041  0  2.25798  0
O  O21  1  0.29204231  0.69421948  0.02306158  1  0  -0.822589  0  1.917792  0  0  -0.758134  0  2.13727  0  0  -0.780676  0  2.104153  0  0  -0.575685  -0.742054  0  2.159051  0
O  O22  1  0.70795814  0.30577002  0.97694180  1  0  -0.822524  0  1.917816  0  0  -0.758128  0  2.137319  0  0  -0.780672  0  2.104207  0  0  -0.575749  -0.742076  0  2.158967  0
O  O23  1  0.78874381  0.96388401  0.81931940  1  0  -0.842913  0  1.892914  0  0  -0.788572  0  2.103007  0  0  -0.809239  0  2.06777  0  0  -0.581504  -0.774069  0  2.127589  0
O  O24  1  0.21127259  0.03609849  0.18068403  1  0  -0.842992  0  1.892828  0  0  -0.788603  0  2.102945  0  0  -0.809272  0  2.067714  0  0  -0.581463  -0.774096  0  2.127528  0
F  F25  1  0.42223607  0.72709694  0.71296213  1  0  -0.173747  0  1.309016  0  0  -0.10072  0  1.471172  0  0  -0.109964  0  1.460822  0  0  -0.062513  -0.094002  0  1.478172  0
F  F26  1  0.57777281  0.27290875  0.28702699  1  0  -0.173779  0  1.308897  0  0  -0.10078  0  1.471044  0  0  -0.110021  0  1.460697  0  0  -0.06254  -0.094061  0  1.478053  0
F  F27  1  0.73359594  0.83054808  0.48196211  1  0  -0.143375  0  1.256319  0  0  -0.10377  0  1.433835  0  0  -0.111897  0  1.424445  0  0  -0.079728  -0.097803  0  1.440252  0
F  F28  1  0.26639898  0.16946456  0.51804108  1  0  -0.143563  0  1.25615  0  0  -0.103965  0  1.433664  0  0  -0.112092  0  1.424272  0  0  -0.079808  -0.097998  0  1.440082  0
