# generated using pymatgen
data_Na2H40C24N8O19
_symmetry_space_group_name_H-M   'P 1'
_cell_length_a   7.68191412
_cell_length_b   9.91208305
_cell_length_c   11.51271768
_cell_angle_alpha   96.54579384
_cell_angle_beta   93.17923444
_cell_angle_gamma   96.48731431
_symmetry_Int_Tables_number   1
_chemical_formula_structural   Na2H40C24N8O19
_chemical_formula_sum   'Na2 H40 C24 N8 O19'
_cell_volume   863.25434780
_cell_formula_units_Z   1
loop_
 _symmetry_equiv_pos_site_id
 _symmetry_equiv_pos_as_xyz
  1  'x, y, z'
loop_
 _atom_site_type_symbol
 _atom_site_label
 _atom_site_symmetry_multiplicity
 _atom_site_fract_x
 _atom_site_fract_y
 _atom_site_fract_z
 _atom_site_occupancy
 _atom_site_hle17_bader_spin_density
 _atom_site_hle17_ddec_charge
 _atom_site_hle17_ddec_spin_density
 _atom_site_hle17_ddec_sum_bond_order
 _atom_site_hle17_magmom
 _atom_site_hse06_10hf_bader_spin_density
 _atom_site_hse06_10hf_ddec_charge
 _atom_site_hse06_10hf_ddec_spin_density
 _atom_site_hse06_10hf_ddec_sum_bond_order
 _atom_site_hse06_10hf_magmom
 _atom_site_hse06_bader_spin_density
 _atom_site_hse06_ddec_charge
 _atom_site_hse06_ddec_spin_density
 _atom_site_hse06_ddec_sum_bond_order
 _atom_site_hse06_magmom
 _atom_site_pbe_bader_spin_density
 _atom_site_pbe_cm5_charge
 _atom_site_pbe_ddec_charge
 _atom_site_pbe_ddec_spin_density
 _atom_site_pbe_ddec_sum_bond_order
 _atom_site_pbe_magmom
Na  Na0  1  0.88959294  0.32475489  0.47871043  1  0  0.903555  0  0.333524  0  0  0.856873  0  0.478924  0  0  0.868061  0  0.455973  0  0  0.628654  0.848559  0  0.495428  0
Na  Na1  1  0.70710090  0.23280954  0.73955964  1  0  0.900009  0  0.37399  0  0  0.863125  0  0.51745  0  0  0.872311  0  0.496064  0  0  0.667331  0.855944  0  0.53331  0
H  H2  1  0.45255047  0.39261075  0.89092438  1  0  0.414439  0  0.893636  0  0  0.385736  0  0.955445  0  0  0.395544  0  0.940742  0  0  0.282363  0.378766  0  0.965909  0
H  H3  1  0.35706092  0.26614884  0.81305306  1  0  0.404846  0  0.913068  0  0  0.374259  0  0.977572  0  0  0.384589  0  0.962308  0  0  0.281019  0.367009  0  0.98827  0
H  H4  1  0.59544852  0.42111214  0.60983863  1  0  0.421691  0  0.836848  0  0  0.405859  0  0.889413  0  0  0.413993  0  0.877224  0  0  0.320086  0.399999  0  0.89824  0
H  H5  1  0.74990702  0.50631018  0.69095623  1  0  0.422403  0  0.881985  0  0  0.391187  0  0.946091  0  0  0.402011  0  0.930316  0  0  0.290384  0.383541  0  0.957194  0
H  H6  1  0.97977865  0.40640251  0.91031987  1  0  0.427317  0  0.878298  0  0  0.395346  0  0.942448  0  0  0.405647  0  0.927604  0  0  0.29542  0.388264  0  0.952618  0
H  H7  1  0.94458239  0.25896777  0.95925860  1  0  0.429652  0  0.852416  0  0  0.403694  0  0.912773  0  0  0.414115  0  0.897288  0  0  0.310066  0.396499  0  0.923418  0
H  H8  1  0.46878263  0.20379907  0.43350458  1  0  0.425652  0  0.876812  0  0  0.394208  0  0.939931  0  0  0.404791  0  0.924632  0  0  0.289335  0.386777  0  0.95067  0
H  H9  1  0.35286643  0.08742800  0.49600645  1  0  0.393965  0  0.918142  0  0  0.350192  0  1.003053  0  0  0.361298  0  0.987142  0  0  0.282721  0.342554  0  1.013903  0
H  H10  1  0.23799227  0.29195614  0.56159935  1  0  0.422514  0  0.880359  0  0  0.393892  0  0.940546  0  0  0.403671  0  0.926022  0  0  0.290617  0.387113  0  0.950606  0
H  H11  1  0.13762476  0.26499108  0.67028036  1  0  0.410854  0  0.896442  0  0  0.381632  0  0.957411  0  0  0.391714  0  0.942587  0  0  0.295304  0.37466  0  0.967581  0
H  H12  1  0.11608244  0.32810204  0.32081675  1  0  0.425627  0  0.868359  0  0  0.399401  0  0.923412  0  0  0.409387  0  0.908537  0  0  0.293623  0.392324  0  0.933918  0
H  H13  1  0.19644478  0.20828734  0.37429674  1  0  0.407615  0  0.900239  0  0  0.378718  0  0.961451  0  0  0.388899  0  0.946437  0  0  0.283327  0.371471  0  0.972119  0
H  H14  1  0.61879005  0.30529428  0.28544209  1  0  0.412356  0  0.892887  0  0  0.382959  0  0.953279  0  0  0.393546  0  0.937737  0  0  0.28991  0.375527  0  0.964171  0
H  H15  1  0.58217838  0.14775317  0.28254924  1  0  0.418599  0  0.881567  0  0  0.387815  0  0.94554  0  0  0.398071  0  0.930499  0  0  0.291242  0.380585  0  0.956092  0
H  H16  1  0.90252895  0.55695229  0.24362256  1  0  0.083511  0  0.91743  0  0  0.089876  0  0.981757  0  0  0.091933  0  0.97948  0  0  0.120714  0.088311  0  0.983544  0
H  H17  1  0.55598619  0.58702387  0.26110065  1  0  0.057303  0  0.921984  0  0  0.0641  0  0.985536  0  0  0.065827  0  0.9837  0  0  0.105558  0.062762  0  0.987026  0
H  H18  1  0.52108851  0.37328346  0.11698770  1  0  0.370426  0  0.861911  0  0  0.348226  0  0.929889  0  0  0.358726  0  0.91697  0  0  0.313804  0.340702  0  0.939165  0
H  H19  1  0.52467042  0.69893588  0.08291144  1  0  0.055442  0  0.904468  0  0  0.067932  0  0.963038  0  0  0.068328  0  0.963084  0  0  0.113043  0.067498  0  0.96322  0
H  H20  1  0.30383275  0.53890967  0.05217342  1  0  0.383912  0  0.913663  0  0  0.350819  0  0.998932  0  0  0.362341  0  0.985949  0  0  0.291015  0.342765  0  1.007848  0
H  H21  1  0.70951949  0.47585332  0.95280523  1  0  0.065454  0  0.939346  0  0  0.075121  0  1.005221  0  0  0.076166  0  1.004143  0  0  0.117967  0.074209  0  1.006102  0
H  H22  1  0.56268994  0.65459971  0.85313375  1  0  0.057402  0  0.933139  0  0  0.072263  0  1.001014  0  0  0.072137  0  1.001184  0  0  0.101083  0.072189  0  1.001043  0
H  H23  1  0.72865892  0.78037319  0.92658383  1  0  0.055569  0  0.949143  0  0  0.065166  0  1.023796  0  0  0.065932  0  1.023154  0  0  0.09469  0.064459  0  1.024413  0
H  H24  1  0.91934098  0.61572604  0.83955676  1  0  0.368712  0  0.934573  0  0  0.342897  0  1.005648  0  0  0.353154  0  0.994806  0  0  0.293658  0.33573  0  1.013115  0
H  H25  1  0.69362697  0.93424653  0.67738901  1  0  0.325062  0  0.938939  0  0  0.303077  0  1.006652  0  0  0.312876  0  0.997922  0  0  0.310086  0.296236  0  1.012773  0
H  H26  1  0.64656340  0.69972153  0.62579991  1  0  0.065928  0  0.94167  0  0  0.075796  0  1.005167  0  0  0.078232  0  1.001868  0  0  0.128383  0.074023  0  1.007491  0
H  H27  1  0.93344043  0.08931325  0.31107808  1  0  0.315559  0  0.926711  0  0  0.297107  0  0.98696  0  0  0.305266  0  0.980345  0  0  0.313361  0.291343  0  0.991709  0
H  H28  1  0.93202311  0.90797657  0.14147873  1  0  0.102449  0  0.966419  0  0  0.108703  0  1.03898  0  0  0.111684  0  1.036116  0  0  0.12001  0.106494  0  1.04106  0
H  H29  1  0.38242020  0.04905503  0.72634498  1  0  0.065124  0  0.920802  0  0  0.074504  0  0.984177  0  0  0.076623  0  0.981152  0  0  0.120361  0.072793  0  0.986547  0
H  H30  1  0.02622890  0.97724301  0.75115405  1  0  0.055316  0  0.922472  0  0  0.061303  0  0.988801  0  0  0.06268  0  0.987758  0  0  0.106367  0.060244  0  0.989689  0
H  H31  1  0.06198802  0.22265461  0.83279324  1  0  0.376234  0  0.934413  0  0  0.347719  0  1.007949  0  0  0.359001  0  0.994912  0  0  0.300075  0.339808  0  1.016507  0
H  H32  1  0.07154519  0.90114481  0.93879602  1  0  0.040536  0  0.903941  0  0  0.05353  0  0.96456  0  0  0.053447  0  0.964618  0  0  0.107826  0.053655  0  0.964286  0
H  H33  1  0.88406672  0.05329848  0.99373596  1  0  0.375915  0  0.92736  0  0  0.346367  0  1.006319  0  0  0.358107  0  0.992251  0  0  0.289956  0.338109  0  1.015646  0
H  H34  1  0.34492902  0.14945020  0.01260603  1  0  0.059611  0  0.900032  0  0  0.070798  0  0.960066  0  0  0.072215  0  0.958183  0  0  0.108473  0.069456  0  0.961853  0
H  H35  1  0.21944475  0.01122035  0.15919148  1  0  0.061527  0  0.939138  0  0  0.074784  0  1.00938  0  0  0.075059  0  1.008733  0  0  0.100726  0.074454  0  1.009972  0
H  H36  1  0.29346628  0.86079465  0.08632234  1  0  0.042492  0  0.941518  0  0  0.051269  0  1.020355  0  0  0.052296  0  1.019025  0  0  0.087585  0.050407  0  1.021367  0
H  H37  1  0.57760219  0.00688167  0.11605547  1  0  0.37178  0  0.937056  0  0  0.345089  0  1.01027  0  0  0.355902  0  0.996854  0  0  0.287174  0.337452  0  1.018673  0
H  H38  1  0.18937694  0.67621268  0.26834189  1  0  0.322287  0  0.921207  0  0  0.297611  0  0.991081  0  0  0.307534  0  0.982942  0  0  0.307231  0.290689  0  0.9968  0
H  H39  1  0.30172925  0.90638346  0.32032976  1  0  0.076406  0  0.943266  0  0  0.085534  0  1.009239  0  0  0.088118  0  1.005363  0  0  0.13398  0.083609  0  1.012036  0
H  H40  1  0.18763552  0.50757522  0.65535750  1  0  0.313608  0  0.920529  0  0  0.296526  0  0.976756  0  0  0.30495  0  0.970127  0  0  0.310383  0.290749  0  0.981286  0
H  H41  1  0.25006469  0.68478077  0.83666271  1  0  0.115095  0  0.969482  0  0  0.118778  0  1.041138  0  0  0.122896  0  1.036648  0  0  0.119243  0.115836  0  1.044196  0
C  C42  1  0.81876438  0.62018583  0.19780444  1  0  0.087956  0  3.634012  0  0  0.056881  0  3.876239  0  0  0.061982  0  3.888787  0  0  0.018757  0.053497  0  3.867803  0
C  C43  1  0.62867659  0.55233053  0.18599041  1  0  0.14988  0  3.574493  0  0  0.115857  0  3.83958  0  0  0.121394  0  3.846435  0  0  -0.001726  0.112068  0  3.834851  0
C  C44  1  0.55806056  0.59314772  0.06937691  1  0  0.146972  0  3.632278  0  0  0.11706  0  3.891433  0  0  0.122035  0  3.901479  0  0  -0.000697  0.11383  0  3.884323  0
C  C45  1  0.71213522  0.58335511  0.99084394  1  0  0.037977  0  3.621625  0  0  0.011747  0  3.867068  0  0  0.014566  0  3.881107  0  0  0.000162  0.009605  0  3.858024  0
C  C46  1  0.69899969  0.67160075  0.89127117  1  0  0.097176  0  3.627261  0  0  0.028629  0  3.913129  0  0  0.035554  0  3.918819  0  0  -0.080112  0.023953  0  3.909284  0
C  C47  1  0.03165036  0.60168230  0.04430347  1  0  0.763983  0  3.950603  0  0  0.683071  0  4.273824  0  0  0.721455  0  4.262057  0  0  0.300219  0.657256  0  4.280484  0
C  C48  1  0.69515258  0.76040067  0.55872335  1  0  0.302657  0  3.749795  0  0  0.240515  0  4.044185  0  0  0.258482  0  4.052477  0  0  0.167775  0.228627  0  4.038424  0
C  C49  1  0.78682723  0.79026271  0.38071388  1  0  0.137899  0  3.855879  0  0  0.126068  0  4.119515  0  0  0.133253  0  4.142336  0  0  0.086376  0.121545  0  4.104077  0
C  C50  1  0.81941544  0.93413838  0.41016802  1  0  -0.0366  0  3.774686  0  0  -0.04274  0  4.022535  0  0  -0.049088  0  4.046272  0  0  0.075689  -0.038799  0  4.006656  0
C  C51  1  0.78542806  0.99596059  0.52296727  1  0  0.519919  0  3.897174  0  0  0.480056  0  4.179684  0  0  0.507742  0  4.180966  0  0  0.224127  0.461545  0  4.178248  0
C  C52  1  0.88758939  0.88539270  0.22561082  1  0  0.041151  0  3.652285  0  0  -0.018137  0  3.938975  0  0  -0.009074  0  3.952946  0  0  0.014352  -0.02362  0  3.929265  0
C  C53  1  0.83135363  0.76061455  0.26297402  1  0  -0.126529  0  3.780683  0  0  -0.122008  0  4.051803  0  0  -0.130183  0  4.076704  0  0  -0.041514  -0.116876  0  4.035064  0
C  C54  1  0.31251797  0.97781274  0.77947730  1  0  0.089866  0  3.630943  0  0  0.061087  0  3.868215  0  0  0.066416  0  3.880664  0  0  0.017379  0.057466  0  3.859862  0
C  C55  1  0.13750018  0.03212016  0.80795444  1  0  0.158734  0  3.548575  0  0  0.122022  0  3.810866  0  0  0.12769  0  3.818319  0  0  0.002148  0.11817  0  3.805751  0
C  C56  1  0.11972201  0.01062496  0.93774481  1  0  0.159513  0  3.6249  0  0  0.131  0  3.887031  0  0  0.136622  0  3.896522  0  0  0.003322  0.127091  0  3.880512  0
C  C57  1  0.30957571  0.03752980  0.99230775  1  0  0.056715  0  3.607878  0  0  0.029474  0  3.860719  0  0  0.03275  0  3.874097  0  0  0.002044  0.027233  0  3.851836  0
C  C58  1  0.32280188  0.97322525  0.10638682  1  0  0.09129  0  3.66299  0  0  0.022843  0  3.954185  0  0  0.029886  0  3.958923  0  0  -0.084317  0.01814  0  3.951022  0
C  C59  1  0.59205600  0.00658851  0.90019637  1  0  0.787702  0  3.946403  0  0  0.709754  0  4.271922  0  0  0.74861  0  4.258877  0  0  0.297697  0.683363  0  4.279923  0
C  C60  1  0.27438032  0.84499873  0.39140317  1  0  0.305809  0  3.707417  0  0  0.241845  0  3.990399  0  0  0.260603  0  3.999717  0  0  0.175809  0.229601  0  3.983813  0
C  C61  1  0.27066132  0.81521542  0.58369893  1  0  0.144744  0  3.825742  0  0  0.127857  0  4.091657  0  0  0.135256  0  4.115019  0  0  0.08992  0.12327  0  4.075538  0
C  C62  1  0.22009360  0.67307465  0.55332655  1  0  -0.044375  0  3.799318  0  0  -0.050939  0  4.051679  0  0  -0.057948  0  4.075799  0  0  0.07561  -0.046583  0  4.035567  0
C  C63  1  0.17542456  0.61530425  0.43538596  1  0  0.524021  0  3.888836  0  0  0.479522  0  4.1754  0  0  0.507867  0  4.176512  0  0  0.230031  0.460581  0  4.174223  0
C  C64  1  0.25215527  0.71210499  0.74803973  1  0  0.040411  0  3.636223  0  0  -0.016393  0  3.921508  0  0  -0.007567  0  3.934757  0  0  0.016342  -0.021879  0  3.912273  0
C  C65  1  0.28705828  0.83966744  0.70878817  1  0  -0.122287  0  3.748052  0  0  -0.118577  0  4.02144  0  0  -0.126988  0  4.046498  0  0  -0.038645  -0.113105  0  4.004368  0
N  N66  1  0.86626702  0.62016279  0.07525146  1  0  -0.333829  0  3.311872  0  0  -0.256561  0  3.557423  0  0  -0.278409  0  3.574637  0  0  -0.286061  -0.241709  0  3.545232  0
N  N67  1  0.72426122  0.89771560  0.59307034  1  0  -0.422235  0  3.35214  0  0  -0.356517  0  3.589341  0  0  -0.378374  0  3.596877  0  0  -0.382021  -0.342063  0  3.584114  0
N  N68  1  0.72313223  0.70097962  0.45529501  1  0  -0.404923  0  3.059901  0  0  -0.381437  0  3.349424  0  0  -0.3949  0  3.359566  0  0  -0.339693  -0.372529  0  3.34263  0
N  N69  1  0.87989338  0.98927083  0.31387316  1  0  -0.280522  0  3.454901  0  0  -0.217823  0  3.687877  0  0  -0.234027  0  3.706482  0  0  -0.384926  -0.207075  0  3.67531  0
N  N70  1  0.41041547  0.98436868  0.89523673  1  0  -0.356739  0  3.255934  0  0  -0.281174  0  3.502868  0  0  -0.303327  0  3.519649  0  0  -0.289504  -0.266018  0  3.491004  0
N  N71  1  0.21716419  0.71032914  0.35772732  1  0  -0.413624  0  3.344041  0  0  -0.345004  0  3.581862  0  0  -0.368133  0  3.590909  0  0  -0.373548  -0.329799  0  3.575722  0
N  N72  1  0.29865938  0.90310688  0.50030074  1  0  -0.400293  0  3.11336  0  0  -0.351559  0  3.385735  0  0  -0.368669  0  3.39814  0  0  -0.32119  -0.340081  0  3.376908  0
N  N73  1  0.21084668  0.61293872  0.65445194  1  0  -0.270456  0  3.441781  0  0  -0.207199  0  3.672873  0  0  -0.222772  0  3.690508  0  0  -0.378909  -0.196875  0  3.660892  0
O  O74  1  0.47249983  0.32322441  0.82611179  1  0  -0.910127  0  1.752186  0  0  -0.874895  0  1.926577  0  0  -0.889989  0  1.893573  0  0  -0.688232  -0.863954  0  1.949626  0
O  O75  1  0.72089876  0.42497640  0.62961317  1  0  -0.899375  0  1.758981  0  0  -0.859095  0  1.925593  0  0  -0.874241  0  1.893681  0  0  -0.680059  -0.84851  0  1.948243  0
O  O76  1  0.92296635  0.30934756  0.89159201  1  0  -0.858937  0  1.857147  0  0  -0.80785  0  2.03064  0  0  -0.826506  0  1.998499  0  0  -0.635831  -0.794495  0  2.052331  0
O  O77  1  0.36440857  0.18539181  0.48038107  1  0  -0.851741  0  1.866831  0  0  -0.780286  0  2.02852  0  0  -0.801302  0  1.995794  0  0  -0.570271  -0.765606  0  2.051087  0
O  O78  1  0.14836213  0.32955118  0.61087503  1  0  -0.871882  0  1.836491  0  0  -0.827855  0  1.99997  0  0  -0.845048  0  1.969167  0  0  -0.633353  -0.815756  0  2.020873  0
O  O79  1  0.09852899  0.22833818  0.32119861  1  0  -0.857817  0  1.798372  0  0  -0.812807  0  1.945409  0  0  -0.829298  0  1.914445  0  0  -0.617102  -0.801089  0  1.967156  0
O  O80  1  0.62526518  0.23167599  0.33714403  1  0  -0.870018  0  1.812722  0  0  -0.816002  0  1.965884  0  0  -0.835082  0  1.934404  0  0  -0.612337  -0.802588  0  1.987712  0
O  O81  1  0.62284286  0.40594930  0.17299878  1  0  -0.539931  0  2.047649  0  0  -0.487097  0  2.254909  0  0  -0.502246  0  2.240298  0  0  -0.382915  -0.476284  0  2.264813  0
O  O82  1  0.41107761  0.50149089  0.01957718  1  0  -0.58989  0  2.122714  0  0  -0.532356  0  2.344473  0  0  -0.550337  0  2.3306  0  0  -0.391877  -0.51955  0  2.353728  0
O  O83  1  0.80961071  0.63858054  0.79804432  1  0  -0.570575  0  2.073063  0  0  -0.511627  0  2.295304  0  0  -0.529398  0  2.283924  0  0  -0.410427  -0.499032  0  2.302803  0
O  O84  1  0.15898286  0.61508408  0.12294651  1  0  -0.657917  0  1.988229  0  0  -0.602098  0  2.221755  0  0  -0.625905  0  2.209378  0  0  -0.323652  -0.585355  0  2.229265  0
O  O85  1  0.05471868  0.56862930  0.93467862  1  0  -0.694024  0  2.008175  0  0  -0.627359  0  2.228237  0  0  -0.651157  0  2.214833  0  0  -0.335923  -0.610835  0  2.236488  0
O  O86  1  0.80342957  0.12131038  0.56238402  1  0  -0.690693  0  1.941806  0  0  -0.652504  0  2.185441  0  0  -0.671862  0  2.172835  0  0  -0.430502  -0.638878  0  2.193622  0
O  O87  1  0.15534575  0.17412478  0.79237529  1  0  -0.591889  0  2.179228  0  0  -0.518166  0  2.386287  0  0  -0.538013  0  2.373825  0  0  -0.383606  -0.504231  0  2.394049  0
O  O88  1  0.01200607  0.09479294  0.00118727  1  0  -0.579859  0  2.081869  0  0  -0.528588  0  2.30307  0  0  -0.545998  0  2.289305  0  0  -0.399705  -0.516442  0  2.311886  0
O  O89  1  0.67787886  0.01631166  0.00073132  1  0  -0.66584  0  2.013013  0  0  -0.603116  0  2.238389  0  0  -0.628019  0  2.224865  0  0  -0.320273  -0.58581  0  2.246855  0
O  O90  1  0.66803508  0.01570363  0.80540383  1  0  -0.733193  0  1.990668  0  0  -0.688151  0  2.24463  0  0  -0.71001  0  2.230182  0  0  -0.401843  -0.672778  0  2.254141  0
O  O91  1  0.48563031  0.00830367  0.17545061  1  0  -0.585926  0  2.071273  0  0  -0.530112  0  2.299949  0  0  -0.547347  0  2.286359  0  0  -0.422063  -0.517912  0  2.308329  0
O  O92  1  0.10332275  0.49650281  0.39901095  1  0  -0.636078  0  1.961659  0  0  -0.589047  0  2.187521  0  0  -0.610025  0  2.176139  0  0  -0.349078  -0.574298  0  2.194919  0
