# generated using pymatgen
data_Ag4H14C14(N2O3)3
_symmetry_space_group_name_H-M   'P 1'
_cell_length_a   7.81799853
_cell_length_b   8.45734740
_cell_length_c   14.94090657
_cell_angle_alpha   91.30473257
_cell_angle_beta   97.82022177
_cell_angle_gamma   94.72743480
_symmetry_Int_Tables_number   1
_chemical_formula_structural   Ag4H14C14(N2O3)3
_chemical_formula_sum   'Ag8 H28 C28 N12 O18'
_cell_volume   974.79081644
_cell_formula_units_Z   2
loop_
 _symmetry_equiv_pos_site_id
 _symmetry_equiv_pos_as_xyz
  1  'x, y, z'
loop_
 _atom_site_type_symbol
 _atom_site_label
 _atom_site_symmetry_multiplicity
 _atom_site_fract_x
 _atom_site_fract_y
 _atom_site_fract_z
 _atom_site_occupancy
 _atom_site_hle17_bader_spin_density
 _atom_site_hle17_ddec_charge
 _atom_site_hle17_ddec_spin_density
 _atom_site_hle17_ddec_sum_bond_order
 _atom_site_hle17_magmom
 _atom_site_hse06_10hf_bader_spin_density
 _atom_site_hse06_10hf_ddec_charge
 _atom_site_hse06_10hf_ddec_spin_density
 _atom_site_hse06_10hf_ddec_sum_bond_order
 _atom_site_hse06_10hf_magmom
 _atom_site_hse06_bader_spin_density
 _atom_site_hse06_ddec_charge
 _atom_site_hse06_ddec_spin_density
 _atom_site_hse06_ddec_sum_bond_order
 _atom_site_hse06_magmom
 _atom_site_pbe_bader_spin_density
 _atom_site_pbe_cm5_charge
 _atom_site_pbe_ddec_charge
 _atom_site_pbe_ddec_spin_density
 _atom_site_pbe_ddec_sum_bond_order
 _atom_site_pbe_magmom
Ag  Ag0  1  0.79252118  0.69213313  0.60731553  1  0  0.50521  0  1.417672  0  0  0.371707  0  1.848039  0  0  0.399359  0  1.802172  0  0  0.454564  0.353272  0  1.879342  0
Ag  Ag1  1  0.20748098  0.30786659  0.39268433  1  0  0.50521  0  1.41767  0  0  0.371741  0  1.848024  0  0  0.399392  0  1.802159  0  0  0.454578  0.353307  0  1.879327  0
Ag  Ag2  1  0.83417746  0.18917748  0.37616704  1  0  0.574705  0  1.327863  0  0  0.438277  0  1.766826  0  0  0.474516  0  1.713266  0  0  0.43915  0.413298  0  1.80385  0
Ag  Ag3  1  0.16581930  0.81081988  0.62383240  1  0  0.574722  0  1.32787  0  0  0.438299  0  1.766814  0  0  0.47454  0  1.71325  0  0  0.439156  0.413319  0  1.803837  0
Ag  Ag4  1  0.25797573  0.67972479  0.11518771  1  0  0.51627  0  1.420054  0  0  0.386827  0  1.849094  0  0  0.411844  0  1.805945  0  0  0.461208  0.370574  0  1.878378  0
Ag  Ag5  1  0.74202665  0.32027732  0.88481086  1  0  0.516264  0  1.420101  0  0  0.386845  0  1.849131  0  0  0.411857  0  1.805984  0  0  0.461221  0.370597  0  1.878416  0
Ag  Ag6  1  0.34944812  0.19227386  0.87622844  1  0  0.598899  0  1.264898  0  0  0.462654  0  1.692118  0  0  0.498916  0  1.639414  0  0  0.442355  0.437679  0  1.728627  0
Ag  Ag7  1  0.65055416  0.80772704  0.12377211  1  0  0.598894  0  1.264899  0  0  0.462651  0  1.692107  0  0  0.498906  0  1.639414  0  0  0.442358  0.437676  0  1.728616  0
H  H8  1  0.18202261  0.92599286  0.28119845  1  0  0.399204  0  0.915037  0  0  0.37016  0  0.978306  0  0  0.380924  0  0.962459  0  0  0.273604  0.362603  0  0.989406  0
H  H9  1  0.81797955  0.07400687  0.71880073  1  0  0.399197  0  0.915053  0  0  0.370145  0  0.978335  0  0  0.38091  0  0.962488  0  0  0.273576  0.362589  0  0.989435  0
H  H10  1  0.36177104  0.94402909  0.24234103  1  0  0.408171  0  0.901618  0  0  0.37994  0  0.963177  0  0  0.390722  0  0.947247  0  0  0.27556  0.372313  0  0.974413  0
H  H11  1  0.63822985  0.05597061  0.75766075  1  0  0.40815  0  0.901647  0  0  0.379917  0  0.963206  0  0  0.3907  0  0.947275  0  0  0.275552  0.37229  0  0.974442  0
H  H12  1  0.77743099  0.99049310  0.57011351  1  0  0.293505  0  0.914739  0  0  0.283629  0  0.969718  0  0  0.288679  0  0.968011  0  0  0.288786  0.279971  0  0.971068  0
H  H13  1  0.22256719  0.00950543  0.42988739  1  0  0.29356  0  0.914711  0  0  0.283694  0  0.969668  0  0  0.288747  0  0.96795  0  0  0.288825  0.280036  0  0.97102  0
H  H14  1  0.73871113  0.88385774  0.47442696  1  0  0.295513  0  0.939865  0  0  0.286326  0  0.991839  0  0  0.292318  0  0.988807  0  0  0.283494  0.28203  0  0.994066  0
H  H15  1  0.26128833  0.11614080  0.52557202  1  0  0.295486  0  0.939916  0  0  0.286302  0  0.991885  0  0  0.292294  0  0.988853  0  0  0.283478  0.282007  0  0.994112  0
H  H16  1  0.16077250  0.80780920  0.95883072  1  0  0.299223  0  0.933975  0  0  0.292423  0  0.98289  0  0  0.298022  0  0.980605  0  0  0.286045  0.288454  0  0.984497  0
H  H17  1  0.83923236  0.19219169  0.04116934  1  0  0.299281  0  0.933927  0  0  0.292487  0  0.982844  0  0  0.298087  0  0.980557  0  0  0.286081  0.288519  0  0.984451  0
H  H18  1  0.98412803  0.73410206  0.99863874  1  0  0.286599  0  0.953046  0  0  0.280601  0  1.00449  0  0  0.285484  0  1.002743  0  0  0.280162  0.277188  0  1.005618  0
H  H19  1  0.01587847  0.26590240  0.00136150  1  0  0.286522  0  0.953096  0  0  0.280532  0  1.004535  0  0  0.285418  0  1.002793  0  0  0.280125  0.277118  0  1.005662  0
H  H20  1  0.96086487  0.67685635  0.81111315  1  0  0.114278  0  0.918711  0  0  0.123357  0  0.976927  0  0  0.127233  0  0.973457  0  0  0.128649  0.12039  0  0.979841  0
H  H21  1  0.03913470  0.32314339  0.18888519  1  0  0.11434  0  0.91867  0  0  0.123419  0  0.976875  0  0  0.127296  0  0.973403  0  0  0.128669  0.120453  0  0.979789  0
H  H22  1  0.15281214  0.49707574  0.90465436  1  0  0.11384  0  0.942372  0  0  0.120833  0  1.005042  0  0  0.124758  0  1.001325  0  0  0.12544  0.117834  0  1.008085  0
H  H23  1  0.84718627  0.50292517  0.09534593  1  0  0.113835  0  0.942389  0  0  0.120828  0  1.005061  0  0  0.124751  0  1.001345  0  0  0.125434  0.117829  0  1.008105  0
H  H24  1  0.44193394  0.67172663  0.31337195  1  0  0.128011  0  0.940194  0  0  0.135884  0  0.999123  0  0  0.139479  0  0.996385  0  0  0.126993  0.133216  0  1.001277  0
H  H25  1  0.55805908  0.32827191  0.68662926  1  0  0.127985  0  0.940186  0  0  0.135849  0  0.999132  0  0  0.139443  0  0.996396  0  0  0.126977  0.13318  0  1.001285  0
H  H26  1  0.63727875  0.48866517  0.40611541  1  0  0.117861  0  0.962791  0  0  0.125193  0  1.024612  0  0  0.129432  0  1.020311  0  0  0.123742  0.122034  0  1.027949  0
H  H27  1  0.36270867  0.51132860  0.59388868  1  0  0.11785  0  0.962946  0  0  0.12521  0  1.02472  0  0  0.129451  0  1.020412  0  0  0.123748  0.122043  0  1.028059  0
H  H28  1  0.48054490  0.94399574  0.59525240  1  0  0.05687  0  0.965168  0  0  0.072712  0  1.037126  0  0  0.073272  0  1.035901  0  0  0.094182  0.072113  0  1.038206  0
H  H29  1  0.51945092  0.05600519  0.40474703  1  0  0.056902  0  0.965185  0  0  0.072731  0  1.037139  0  0  0.073293  0  1.035915  0  0  0.094191  0.072131  0  1.038217  0
H  H30  1  0.44050075  0.82154820  0.49452362  1  0  0.063878  0  0.932734  0  0  0.085526  0  0.989228  0  0  0.08491  0  0.990525  0  0  0.10056  0.085886  0  0.988379  0
H  H31  1  0.55949742  0.17845036  0.50547460  1  0  0.063827  0  0.932813  0  0  0.085515  0  0.989247  0  0  0.084901  0  0.990545  0  0  0.100559  0.085874  0  0.988397  0
H  H32  1  0.18307908  0.04070398  0.05254174  1  0  0.064857  0  0.931557  0  0  0.084264  0  0.991965  0  0  0.084394  0  0.99241  0  0  0.100767  0.084026  0  0.991828  0
H  H33  1  0.81692846  0.95929811  0.94745652  1  0  0.064872  0  0.931636  0  0  0.084298  0  0.991986  0  0  0.084431  0  0.992429  0  0  0.100788  0.08406  0  0.991853  0
H  H34  1  0.99888156  0.96505000  0.10060006  1  0  0.060343  0  0.944836  0  0  0.076899  0  1.013766  0  0  0.077646  0  1.012535  0  0  0.096829  0.076226  0  1.014818  0
H  H35  1  0.00112377  0.03495565  0.89940011  1  0  0.060425  0  0.944757  0  0  0.076886  0  1.013759  0  0  0.077635  0  1.012527  0  0  0.096827  0.076216  0  1.014807  0
C  C36  1  0.89497119  0.34555519  0.56301020  1  0  0.61472  0  3.951012  0  0  0.562167  0  4.24429  0  0  0.595607  0  4.240244  0  0  0.198598  0.539588  0  4.246299  0
C  C37  1  0.10502945  0.65444216  0.43698884  1  0  0.614622  0  3.95111  0  0  0.562097  0  4.244336  0  0  0.595537  0  4.240292  0  0  0.198585  0.539517  0  4.246344  0
C  C38  1  0.97089840  0.38908886  0.66020029  1  0  0.066908  0  3.632037  0  0  0.063489  0  3.868651  0  0  0.062568  0  3.886116  0  0  0.12303  0.063323  0  3.857841  0
C  C39  1  0.02909591  0.61090969  0.33980034  1  0  0.066948  0  3.631878  0  0  0.063534  0  3.868467  0  0  0.062607  0  3.885942  0  0  0.123085  0.063369  0  3.857659  0
C  C40  1  0.99338281  0.56563820  0.78279582  1  0  0.074425  0  3.68429  0  0  0.037122  0  3.955562  0  0  0.042205  0  3.966056  0  0  0.048118  0.032613  0  3.950322  0
C  C41  1  0.00661395  0.43435917  0.21720295  1  0  0.074315  0  3.684342  0  0  0.037035  0  3.955609  0  0  0.042121  0  3.966087  0  0  0.048052  0.032526  0  3.950372  0
C  C42  1  0.10023123  0.46762843  0.83429057  1  0  0.085205  0  3.661431  0  0  0.053796  0  3.930711  0  0  0.059521  0  3.941556  0  0  0.050634  0.049353  0  3.924679  0
C  C43  1  0.89976706  0.53237130  0.16570969  1  0  0.085188  0  3.661541  0  0  0.053765  0  3.930819  0  0  0.059496  0  3.941659  0  0  0.050631  0.049326  0  3.924781  0
C  C44  1  0.07845461  0.29083038  0.71245275  1  0  0.090428  0  3.650672  0  0  0.089423  0  3.892272  0  0  0.09233  0  3.907144  0  0  0.134291  0.086753  0  3.883092  0
C  C45  1  0.92154778  0.70917171  0.28754717  1  0  0.090466  0  3.650677  0  0  0.089448  0  3.892253  0  0  0.09236  0  3.90712  0  0  0.134279  0.086776  0  3.883077  0
C  C46  1  0.12315000  0.13207727  0.67852955  1  0  0.623554  0  3.980067  0  0  0.561617  0  4.288895  0  0  0.59693  0  4.279663  0  0  0.195113  0.537571  0  4.294355  0
C  C47  1  0.87685122  0.86792600  0.32147164  1  0  0.623484  0  3.980234  0  0  0.561571  0  4.289012  0  0  0.596883  0  4.279781  0  0  0.195076  0.537527  0  4.294471  0
C  C48  1  0.38204221  0.34388287  0.06399394  1  0  0.613984  0  3.975661  0  0  0.560849  0  4.271871  0  0  0.594229  0  4.266506  0  0  0.194108  0.538286  0  4.274717  0
C  C49  1  0.61796663  0.65611921  0.93600575  1  0  0.613813  0  3.975857  0  0  0.560703  0  4.272016  0  0  0.594088  0  4.266655  0  0  0.194058  0.538141  0  4.274859  0
C  C50  1  0.45647142  0.38774061  0.16110646  1  0  0.054255  0  3.659806  0  0  0.054811  0  3.894923  0  0  0.054271  0  3.91153  0  0  0.119476  0.054347  0  3.884818  0
C  C51  1  0.54353133  0.61226504  0.83889353  1  0  0.05412  0  3.659807  0  0  0.054667  0  3.89492  0  0  0.05411  0  3.91154  0  0  0.119363  0.054197  0  3.884826  0
C  C52  1  0.47731004  0.56083467  0.28542047  1  0  0.073783  0  3.658563  0  0  0.036185  0  3.927  0  0  0.041315  0  3.938142  0  0  0.046173  0.032099  0  3.920512  0
C  C53  1  0.52268579  0.43916625  0.71457963  1  0  0.073898  0  3.658523  0  0  0.036325  0  3.926921  0  0  0.041453  0  3.938061  0  0  0.046248  0.032242  0  3.920425  0
C  C54  1  0.58440741  0.46173508  0.33555492  1  0  0.073191  0  3.660038  0  0  0.040079  0  3.929133  0  0  0.045656  0  3.939722  0  0  0.046515  0.035885  0  3.922906  0
C  C55  1  0.41558304  0.53826345  0.66444745  1  0  0.07312  0  3.660139  0  0  0.040003  0  3.92922  0  0  0.045581  0  3.939808  0  0  0.046474  0.035819  0  3.922982  0
C  C56  1  0.56668782  0.28938773  0.21164984  1  0  0.080039  0  3.658247  0  0  0.075145  0  3.904375  0  0  0.077924  0  3.918779  0  0  0.128158  0.072515  0  3.895605  0
C  C57  1  0.43331059  0.71061318  0.78835045  1  0  0.080276  0  3.65811  0  0  0.075439  0  3.904142  0  0  0.078223  0  3.918548  0  0  0.128237  0.072809  0  3.89537  0
C  C58  1  0.61635509  0.13563677  0.17289455  1  0  0.636287  0  3.972815  0  0  0.57715  0  4.277539  0  0  0.612213  0  4.268973  0  0  0.199594  0.553297  0  4.28245  0
C  C59  1  0.38364205  0.86436412  0.82710832  1  0  0.636197  0  3.972935  0  0  0.577067  0  4.277619  0  0  0.612128  0  4.269053  0  0  0.199592  0.553215  0  4.282526  0
C  C60  1  0.51786447  0.92648848  0.52769298  1  0  0.040246  0  3.640223  0  0  -0.017004  0  3.894279  0  0  -0.013194  0  3.909189  0  0  -0.083771  -0.019434  0  3.884016  0
C  C61  1  0.48213240  0.07351008  0.47230516  1  0  0.04024  0  3.640294  0  0  -0.016971  0  3.894277  0  0  -0.013175  0  3.9092  0  0  -0.083776  -0.019399  0  3.884013  0
C  C62  1  0.05986953  0.96611399  0.03845285  1  0  0.040557  0  3.641889  0  0  -0.017855  0  3.903945  0  0  -0.013619  0  3.917377  0  0  -0.082653  -0.020683  0  3.89484  0
C  C63  1  0.94013333  0.03389286  0.96154650  1  0  0.040386  0  3.642062  0  0  -0.017907  0  3.904055  0  0  -0.013677  0  3.917493  0  0  -0.08267  -0.020735  0  3.894951  0
N  N64  1  0.93240706  0.52748429  0.69601759  1  0  -0.270088  0  3.359966  0  0  -0.194883  0  3.63704  0  0  -0.207647  0  3.651614  0  0  -0.32407  -0.186118  0  3.62741  0
N  N65  1  0.06758984  0.47251424  0.30398389  1  0  -0.270083  0  3.359816  0  0  -0.194921  0  3.636911  0  0  -0.207684  0  3.651488  0  0  -0.324094  -0.186157  0  3.627286  0
N  N66  1  0.14617556  0.33291434  0.79866574  1  0  -0.280703  0  3.252675  0  0  -0.216913  0  3.540518  0  0  -0.230165  0  3.552348  0  0  -0.314897  -0.208117  0  3.533006  0
N  N67  1  0.85382426  0.66708775  0.20133533  1  0  -0.280693  0  3.252647  0  0  -0.216894  0  3.540489  0  0  -0.23015  0  3.552318  0  0  -0.314879  -0.208098  0  3.532979  0
N  N68  1  0.41558430  0.52388248  0.19839936  1  0  -0.271822  0  3.369434  0  0  -0.195462  0  3.64362  0  0  -0.208326  0  3.658386  0  0  -0.329396  -0.186839  0  3.634082  0
N  N69  1  0.58441973  0.47612318  0.80160005  1  0  -0.271842  0  3.369394  0  0  -0.195521  0  3.643637  0  0  -0.208372  0  3.658394  0  0  -0.329422  -0.186899  0  3.634097  0
N  N70  1  0.63224374  0.32879277  0.29831328  1  0  -0.278702  0  3.269192  0  0  -0.212277  0  3.55436  0  0  -0.225986  0  3.567939  0  0  -0.315787  -0.203104  0  3.545578  0
N  N71  1  0.36774788  0.67120457  0.70168916  1  0  -0.278769  0  3.26917  0  0  -0.212399  0  3.554348  0  0  -0.226107  0  3.567921  0  0  -0.315786  -0.203226  0  3.545563  0
N  N72  1  0.70247020  0.89507583  0.53803421  1  0  -0.593988  0  3.186592  0  0  -0.513931  0  3.434641  0  0  -0.537908  0  3.437522  0  0  -0.646594  -0.497325  0  3.432349  0
N  N73  1  0.29752903  0.10492033  0.46196538  1  0  -0.594011  0  3.186574  0  0  -0.513993  0  3.434639  0  0  -0.537966  0  3.437522  0  0  -0.646618  -0.497387  0  3.432348  0
N  N74  1  0.09943876  0.80336696  0.01576977  1  0  -0.606057  0  3.173494  0  0  -0.529885  0  3.418407  0  0  -0.553935  0  3.422008  0  0  -0.650704  -0.51305  0  3.41526  0
N  N75  1  0.90056408  0.19663990  0.98422824  1  0  -0.606053  0  3.173603  0  0  -0.529901  0  3.418472  0  0  -0.553957  0  3.422078  0  0  -0.650734  -0.513067  0  3.415335  0
O  O76  1  0.78452010  0.43105282  0.52442781  1  0  -0.615638  0  2.028849  0  0  -0.556097  0  2.283164  0  0  -0.583629  0  2.272348  0  0  -0.322895  -0.536727  0  2.289842  0
O  O77  1  0.21547772  0.56894216  0.47557167  1  0  -0.615578  0  2.028896  0  0  -0.556061  0  2.283197  0  0  -0.583593  0  2.27238  0  0  -0.322863  -0.536687  0  2.289872  0
O  O78  1  0.94991839  0.22343212  0.52858132  1  0  -0.604597  0  2.051847  0  0  -0.531723  0  2.306006  0  0  -0.561216  0  2.296003  0  0  -0.313825  -0.51128  0  2.312319  0
O  O79  1  0.05008611  0.77656522  0.47141799  1  0  -0.604602  0  2.051975  0  0  -0.531698  0  2.306084  0  0  -0.561191  0  2.29608  0  0  -0.313838  -0.511255  0  2.312398  0
O  O80  1  0.01194555  0.01556707  0.68512526  1  0  -0.627618  0  2.070685  0  0  -0.552056  0  2.320069  0  0  -0.583729  0  2.308253  0  0  -0.309768  -0.529746  0  2.327443  0
O  O81  1  0.98805297  0.98443504  0.31487438  1  0  -0.627588  0  2.070805  0  0  -0.55205  0  2.320214  0  0  -0.583724  0  2.308396  0  0  -0.309744  -0.529742  0  2.327589  0
O  O82  1  0.26865023  0.12520077  0.65235341  1  0  -0.597221  0  1.97176  0  0  -0.539384  0  2.208117  0  0  -0.568233  0  2.200742  0  0  -0.306471  -0.51867  0  2.212267  0
O  O83  1  0.73134607  0.87479184  0.34764660  1  0  -0.597199  0  1.971757  0  0  -0.539367  0  2.208092  0  0  -0.568217  0  2.200718  0  0  -0.306459  -0.518651  0  2.212241  0
O  O84  1  0.23228559  0.38348829  0.03606751  1  0  -0.635793  0  2.020177  0  0  -0.58218  0  2.266873  0  0  -0.60755  0  2.256243  0  0  -0.321814  -0.564116  0  2.273348  0
O  O85  1  0.76772418  0.61651026  0.96392884  1  0  -0.635743  0  2.020348  0  0  -0.582118  0  2.266966  0  0  -0.607484  0  2.25633  0  0  -0.321757  -0.564056  0  2.273443  0
O  O86  1  0.47970226  0.26853039  0.02025310  1  0  -0.603516  0  2.05908  0  0  -0.535863  0  2.325635  0  0  -0.565633  0  2.313847  0  0  -0.314845  -0.515048  0  2.333041  0
O  O87  1  0.52030225  0.73146694  0.97974755  1  0  -0.603392  0  2.059101  0  0  -0.53574  0  2.325624  0  0  -0.56551  0  2.31384  0  0  -0.314817  -0.514923  0  2.333027  0
O  O88  1  0.50012768  0.01956613  0.16737319  1  0  -0.629597  0  2.067568  0  0  -0.549465  0  2.316948  0  0  -0.582625  0  2.305331  0  0  -0.312303  -0.526006  0  2.324102  0
O  O89  1  0.49986838  0.98043716  0.83262697  1  0  -0.629572  0  2.06764  0  0  -0.54945  0  2.317014  0  0  -0.58261  0  2.305398  0  0  -0.312318  -0.52599  0  2.324167  0
O  O90  1  0.76706478  0.13182628  0.15335833  1  0  -0.609217  0  1.987622  0  0  -0.555739  0  2.227353  0  0  -0.58424  0  2.219808  0  0  -0.306266  -0.535138  0  2.231525  0
O  O91  1  0.23293621  0.86817461  0.84664280  1  0  -0.609179  0  1.987735  0  0  -0.555704  0  2.227428  0  0  -0.584217  0  2.21992  0  0  -0.306246  -0.535106  0  2.231598  0
O  O92  1  0.28894834  0.87316731  0.27623761  1  0  -0.840177  0  1.804131  0  0  -0.788321  0  1.974009  0  0  -0.809027  0  1.943254  0  0  -0.609828  -0.773338  0  1.995346  0
O  O93  1  0.71105113  0.12683122  0.72376271  1  0  -0.840173  0  1.804163  0  0  -0.788315  0  1.97406  0  0  -0.809021  0  1.943305  0  0  -0.609816  -0.773332  0  1.995397  0
