# generated using pymatgen
data_CoH15C19(NO2)2
_symmetry_space_group_name_H-M   'P 1'
_cell_length_a   15.33893075
_cell_length_b   17.80433206
_cell_length_c   20.64652954
_cell_angle_alpha   103.58641015
_cell_angle_beta   89.99995137
_cell_angle_gamma   89.99995877
_symmetry_Int_Tables_number   1
_chemical_formula_structural   CoH15C19(NO2)2
_chemical_formula_sum   'Co8 H120 C152 N16 O32'
_cell_volume   5480.77004938
_cell_formula_units_Z   8
loop_
 _symmetry_equiv_pos_site_id
 _symmetry_equiv_pos_as_xyz
  1  'x, y, z'
loop_
 _atom_site_type_symbol
 _atom_site_label
 _atom_site_symmetry_multiplicity
 _atom_site_fract_x
 _atom_site_fract_y
 _atom_site_fract_z
 _atom_site_occupancy
 _atom_site_pbe_bader_charge
 _atom_site_pbe_bader_spin_density
 _atom_site_pbe_cm5_charge
 _atom_site_pbe_ddec_charge
 _atom_site_pbe_ddec_spin_density
 _atom_site_pbe_ddec_sum_bond_order
 _atom_site_pbe_magmom
Co  Co0  1  0.42052444  0.30226970  0.04809938  1  1.181564  2.594698  0.61988  0.775421  2.800598  2.670232  2.576
Co  Co1  1  0.42052480  0.19772545  0.95189816  1  1.183816  2.594877  0.619877  0.77533  2.8006  2.670287  2.576
Co  Co2  1  0.57946310  0.69773623  0.95189935  1  1.18173  2.594684  0.619886  0.775415  2.800608  2.670168  2.576
Co  Co3  1  0.57946339  0.80227545  0.04810785  1  1.183894  2.594831  0.619903  0.775421  2.80057  2.670162  2.576
Co  Co4  1  0.30960587  0.69457627  0.45803595  1  1.186209  2.601338  0.611146  0.758827  2.826975  2.776429  2.588
Co  Co5  1  0.30960569  0.80542841  0.54196702  1  1.18909  2.601713  0.61114  0.758697  2.826986  2.776597  2.588
Co  Co6  1  0.69040774  0.30543208  0.54196905  1  1.186298  2.601368  0.611082  0.758792  2.82698  2.776147  2.588
Co  Co7  1  0.69040859  0.19456536  0.45802796  1  1.189331  2.601736  0.611118  0.758797  2.826976  2.776125  2.588
H  H8  1  0.47031529  0.26008416  0.17250318  1  0.518802  2.6e-05  0.334997  0.282671  -0.000165  0.948749  0.0
H  H9  1  0.47031651  0.23991216  0.82749506  1  0.518839  2.6e-05  0.335051  0.282732  -0.000165  0.948762  0.0
H  H10  1  0.52964031  0.73995290  0.82749802  1  0.518311  2.6e-05  0.335167  0.282836  -0.000165  0.948296  0.0
H  H11  1  0.52964300  0.76004770  0.17250224  1  0.518297  2.6e-05  0.335157  0.282878  -0.000165  0.948301  0.0
H  H12  1  0.23460992  0.53312513  0.44946508  1  0.505123  7.9e-05  0.347221  0.288922  -7.6e-05  0.904703  0.0
H  H13  1  0.23461009  0.96687373  0.55053437  1  0.505139  7.9e-05  0.347225  0.288924  -7.6e-05  0.90471  0.0
H  H14  1  0.76541087  0.46691720  0.55054050  1  0.504786  7.9e-05  0.347196  0.288953  -7.5e-05  0.904573  0.0
H  H15  1  0.76541200  0.03308206  0.44946120  1  0.504745  7.9e-05  0.347196  0.288973  -7.5e-05  0.904522  0.0
H  H16  1  0.34091780  0.18276681  0.17856340  1  0.052227  8.9e-05  0.104995  0.10942  -8e-06  1.005631  0.0
H  H17  1  0.34091956  0.31722999  0.82143010  1  0.052394  8.9e-05  0.104975  0.109328  -8e-06  1.005691  0.0
H  H18  1  0.65907691  0.81722695  0.82146016  1  0.052285  8.9e-05  0.104876  0.109376  -8e-06  1.005678  0.0
H  H19  1  0.65907972  0.68277306  0.17853951  1  0.052002  8.9e-05  0.104887  0.109407  -8e-06  1.005656  0.0
H  H20  1  0.31038434  0.11008307  0.26467788  1  0.024168  0.000156  0.097237  0.095599  6.6e-05  1.013025  0.0
H  H21  1  0.31038488  0.38991842  0.73531988  1  0.03995  0.000156  0.09728  0.09561  6.6e-05  1.013018  0.0
H  H22  1  0.68960841  0.88988789  0.73532781  1  0.039926  0.000156  0.097263  0.0956  6.6e-05  1.013037  0.0
H  H23  1  0.68961049  0.61011095  0.26467115  1  0.039912  0.000156  0.09726  0.095615  6.6e-05  1.013049  0.0
H  H24  1  0.42281735  0.90611006  0.13626998  1  0.110412  0.000137  0.101313  0.103793  -2.1e-05  1.061152  0.0
H  H25  1  0.42282069  0.59388709  0.86373060  1  0.110446  0.000137  0.101302  0.103831  -2.1e-05  1.061072  0.0
H  H26  1  0.57717150  0.09387819  0.86370797  1  0.110524  0.000137  0.101336  0.103779  -2.1e-05  1.061149  0.0
H  H27  1  0.57717272  0.40612159  0.13629093  1  0.110519  0.000137  0.101324  0.103771  -2.1e-05  1.061132  0.0
H  H28  1  0.44889613  0.97772944  0.04994761  1  0.137057  0.000392  0.108542  0.119434  0.000119  1.003717  0.0
H  H29  1  0.44890069  0.52226303  0.95004918  1  0.136762  0.000392  0.108554  0.11946  0.000119  1.003753  0.0
H  H30  1  0.55108946  0.02228153  0.95004431  1  0.13678  0.000392  0.10846  0.119366  0.000119  1.003824  0.0
H  H31  1  0.55109141  0.47772056  0.04995502  1  0.136798  0.000392  0.108492  0.119396  0.000119  1.003763  0.0
H  H32  1  0.36984477  0.05721281  0.34130494  1  0.032661  0.000161  0.097286  0.090628  6.6e-05  1.04612  0.0
H  H33  1  0.36984539  0.44278930  0.65869488  1  0.032724  0.000161  0.097285  0.090642  6.6e-05  1.046119  0.0
H  H34  1  0.63015321  0.94276758  0.65868267  1  0.032306  0.000161  0.097325  0.090725  6.6e-05  1.045949  0.0
H  H35  1  0.63015389  0.55723302  0.34131711  1  0.032299  0.000161  0.097316  0.090711  6.6e-05  1.045947  0.0
H  H36  1  0.34473980  0.98349723  0.42828169  1  0.05699  0.000348  0.103103  0.107415  0.000181  1.002766  0.0
H  H37  1  0.34474068  0.51650683  0.57171875  1  0.057048  0.000348  0.103123  0.107417  0.000181  1.00279  0.0
H  H38  1  0.65525296  0.01648493  0.57170820  1  0.056158  0.000347  0.103095  0.10747  0.000181  1.002756  0.0
H  H39  1  0.65525273  0.48351603  0.42829189  1  0.055775  0.000348  0.103099  0.107449  0.000181  1.002773  0.0
H  H40  1  0.29850159  0.77744748  0.27598671  1  0.10851  0.000432  0.108347  0.114077  0.000221  0.989957  0.0
H  H41  1  0.29850373  0.72255490  0.72401632  1  0.10848  0.000432  0.108298  0.11402  0.000221  0.989963  0.0
H  H42  1  0.70150486  0.22252960  0.72400852  1  0.108191  0.000432  0.108341  0.114188  0.000221  0.989735  0.0
H  H43  1  0.70150598  0.27747080  0.27599243  1  0.108198  0.000432  0.108345  0.114216  0.000221  0.989727  0.0
H  H44  1  0.32226274  0.85042070  0.18874627  1  0.055516  0.000146  0.100275  0.100309  6.4e-05  1.037126  0.0
H  H45  1  0.32226480  0.64957936  0.81125583  1  0.055478  0.000146  0.100302  0.100344  6.4e-05  1.037088  0.0
H  H46  1  0.67774241  0.14955169  0.81124468  1  0.056201  0.000146  0.100386  0.100494  6.4e-05  1.036884  0.0
H  H47  1  0.67774295  0.35044927  0.18875541  1  0.056221  0.000146  0.100373  0.100475  6.4e-05  1.036862  0.0
H  H48  1  0.69826862  0.33605520  0.09190328  1  0.08388  0.000341  0.099227  0.096098  0.000172  1.056032  0.0
H  H49  1  0.69826979  0.16393936  0.90809318  1  0.083785  0.000341  0.099249  0.09611  0.000172  1.055998  0.0
H  H50  1  0.30172478  0.66395178  0.90809031  1  0.083  0.000342  0.099242  0.09612  0.000172  1.055964  0.0
H  H51  1  0.30172036  0.83604824  0.09190984  1  0.083084  0.000342  0.099238  0.096117  0.000172  1.055887  0.0
H  H52  1  0.85925507  0.33249013  0.09519138  1  0.061026  0.000165  0.101847  0.101888  8.7e-05  1.007284  0.0
H  H53  1  0.85925494  0.16750670  0.90480406  1  0.061024  0.000165  0.101817  0.101828  8.7e-05  1.007274  0.0
H  H54  1  0.14073899  0.66751963  0.90479741  1  0.060718  0.000165  0.101831  0.101805  8.7e-05  1.007208  0.0
H  H55  1  0.14073521  0.83247688  0.09519966  1  0.060793  0.000165  0.101862  0.101871  8.7e-05  1.007181  0.0
H  H56  1  0.98179231  0.36441559  0.06472837  1  0.04997  0.000158  0.101234  0.099466  8.4e-05  1.010266  0.0
H  H57  1  0.98179020  0.13558010  0.93526734  1  0.050268  0.000158  0.101233  0.099432  8.4e-05  1.01023  0.0
H  H58  1  0.01820045  0.63558221  0.93526640  1  0.050393  0.000158  0.101204  0.099319  8.3e-05  1.010393  0.0
H  H59  1  0.01820321  0.86441602  0.06473002  1  0.050447  0.000158  0.101183  0.099325  8.3e-05  1.010428  0.0
H  H60  1  0.14339228  0.36231149  0.06678483  1  0.098677  0.000368  0.107021  0.1121  0.000185  0.996289  0.0
H  H61  1  0.14339017  0.13768241  0.93320763  1  0.0986  0.000368  0.107003  0.112055  0.000185  0.996318  0.0
H  H62  1  0.85659983  0.63768744  0.93320918  1  0.098544  0.000368  0.107019  0.112064  0.000185  0.996352  0.0
H  H63  1  0.85660389  0.86231430  0.06679081  1  0.098594  0.000368  0.107002  0.112034  0.000185  0.996355  0.0
H  H64  1  0.32643881  0.45215130  0.10524131  1  0.050374  -0.000113  0.103852  0.15731  -0.000185  1.004186  0.0
H  H65  1  0.32643825  0.04784442  0.89475585  1  0.050013  -0.000113  0.103795  0.157231  -0.000185  1.003981  0.0
H  H66  1  0.67357415  0.54792716  0.89475801  1  0.049817  -0.000114  0.10366  0.157099  -0.000186  1.004303  0.0
H  H67  1  0.67357602  0.95207464  0.10524491  1  0.049876  -0.000114  0.10363  0.157096  -0.000186  1.004165  0.0
H  H68  1  0.34983339  0.52880654  0.17532250  1  0.018572  4e-05  0.093026  0.128757  9e-06  1.019875  0.0
H  H69  1  0.34983358  0.97118882  0.82467436  1  0.018481  4e-05  0.093018  0.128768  9e-06  1.019853  0.0
H  H70  1  0.65017632  0.47126118  0.82468642  1  0.020035  4e-05  0.092853  0.128317  9e-06  1.019856  0.0
H  H71  1  0.65017873  0.02874097  0.17531583  1  0.019961  4.1e-05  0.092873  0.128402  9e-06  1.019836  0.0
H  H72  1  0.25453801  0.47273624  0.17525797  1  0.064662  -2e-05  0.096676  0.135712  -3.5e-05  0.983682  0.0
H  H73  1  0.25453894  0.02726063  0.82473893  1  0.064561  -2e-05  0.096665  0.135741  -3.5e-05  0.983657  0.0
H  H74  1  0.74546648  0.52733466  0.82473701  1  0.064399  -2e-05  0.096665  0.135645  -3.5e-05  0.98377  0.0
H  H75  1  0.74546816  0.97266599  0.17526568  1  0.064345  -2e-05  0.096638  0.135605  -3.5e-05  0.983781  0.0
H  H76  1  0.50187145  0.26145350  0.29460187  1  0.050943  8e-05  0.100167  0.142198  1.6e-05  0.995055  0.0
H  H77  1  0.50187100  0.23854396  0.70539611  1  0.051011  8e-05  0.100164  0.142191  1.6e-05  0.995093  0.0
H  H78  1  0.49811087  0.73860499  0.70540628  1  0.049952  8e-05  0.100047  0.141966  1.6e-05  0.995489  0.0
H  H79  1  0.49811132  0.76139385  0.29459268  1  0.049921  8e-05  0.100053  0.141978  1.6e-05  0.995462  0.0
H  H80  1  0.40350338  0.28976716  0.33887462  1  0.043692  0.000504  0.093576  0.131615  0.000189  1.007964  0.0
H  H81  1  0.40350242  0.21022975  0.66112470  1  0.043703  0.000504  0.093557  0.131597  0.000189  1.008018  0.0
H  H82  1  0.59647634  0.71029580  0.66112662  1  0.043306  0.000504  0.093573  0.131652  0.000189  1.007791  0.0
H  H83  1  0.59647469  0.78970251  0.33887418  1  0.043306  0.000505  0.093558  0.131627  0.000189  1.007825  0.0
H  H84  1  0.49437340  0.35288441  0.35145828  1  0.067857  8.9e-05  0.099277  0.146919  0.0  0.992623  0.0
H  H85  1  0.49437258  0.14711361  0.64853884  1  0.067814  8.9e-05  0.099274  0.146928  0.0  0.992638  0.0
H  H86  1  0.50560762  0.64717573  0.64854582  1  0.068145  8.9e-05  0.099438  0.147212  0.0  0.992473  0.0
H  H87  1  0.50560518  0.85282199  0.35145438  1  0.068159  8.9e-05  0.099436  0.147216  0.0  0.99248  0.0
H  H88  1  0.42944817  0.65247553  0.33753642  1  0.083468  -4.6e-05  0.0975  0.146087  -6.5e-05  1.027741  0.0
H  H89  1  0.42944894  0.84752274  0.66246244  1  0.08374  -4.6e-05  0.097508  0.146039  -6.5e-05  1.027749  0.0
H  H90  1  0.57054720  0.34758814  0.66247125  1  0.082645  -4.6e-05  0.097519  0.146141  -6.5e-05  1.027898  0.0
H  H91  1  0.57054577  0.15241055  0.33753035  1  0.082523  -4.6e-05  0.097503  0.146156  -6.5e-05  1.02787  0.0
H  H92  1  0.40146461  0.59871524  0.25611493  1  0.044208  0.000199  0.091538  0.126706  6.9e-05  1.018365  0.0
H  H93  1  0.40146445  0.90128245  0.74388381  1  0.044268  0.000199  0.091541  0.126697  6.9e-05  1.018423  0.0
H  H94  1  0.59854314  0.40135013  0.74389160  1  0.044262  0.000199  0.091557  0.126857  6.9e-05  1.018246  0.0
H  H95  1  0.59854460  0.09865029  0.25611032  1  0.044245  0.000199  0.091519  0.126799  6.9e-05  1.01828  0.0
H  H96  1  0.48735715  0.56626982  0.29930666  1  0.039231  0.000136  0.089754  0.128176  5.4e-05  1.029335  0.0
H  H97  1  0.48735703  0.93372846  0.70069268  1  0.039265  0.000136  0.08975  0.128165  5.4e-05  1.029335  0.0
H  H98  1  0.51265387  0.43380308  0.70070226  1  0.039024  0.000136  0.089736  0.128177  5.4e-05  1.029435  0.0
H  H99  1  0.51265463  0.06619558  0.29929836  1  0.03895  0.000136  0.089727  0.128167  5.4e-05  1.029451  0.0
H  H100  1  0.25886681  0.33241962  0.32593709  1  0.065016  0.000145  0.100066  0.14129  5.4e-05  0.997347  0.0
H  H101  1  0.25886590  0.16757958  0.67406121  1  0.065051  0.000146  0.100094  0.141343  5.4e-05  0.99724  0.0
H  H102  1  0.74113312  0.66762552  0.67406515  1  0.063761  0.000146  0.100132  0.141408  5.4e-05  0.99722  0.0
H  H103  1  0.74113338  0.83237392  0.32593490  1  0.063754  0.000146  0.100127  0.141379  5.4e-05  0.99723  0.0
H  H104  1  0.16768370  0.38481671  0.36587000  1  0.036493  0.00035  0.100129  0.140213  0.000123  0.979466  0.0
H  H105  1  0.16768362  0.11518075  0.63412798  1  0.036481  0.00035  0.100119  0.140192  0.000123  0.979477  0.0
H  H106  1  0.83232731  0.61524467  0.63413870  1  0.036162  0.000349  0.100067  0.14016  0.000123  0.979408  0.0
H  H107  1  0.83232739  0.88475477  0.36586135  1  0.036159  0.000349  0.100061  0.140134  0.000123  0.979428  0.0
H  H108  1  0.25534427  0.36237015  0.41433580  1  0.036154  0.0003  0.092063  0.131986  9.8e-05  1.020803  0.0
H  H109  1  0.25534426  0.13762731  0.58566217  1  0.036089  0.0003  0.09208  0.132024  9.8e-05  1.02075  0.0
H  H110  1  0.74466739  0.63768421  0.58566721  1  0.035626  0.000299  0.091906  0.131883  9.8e-05  1.020685  0.0
H  H111  1  0.74466870  0.86231408  0.41433262  1  0.035607  0.0003  0.091911  0.13189  9.8e-05  1.020624  0.0
H  H112  1  0.58656755  0.86303572  0.56481344  1  0.086517  0.000424  0.107232  0.11389  0.000241  1.010263  0.0
H  H113  1  0.58657115  0.63696666  0.43518958  1  0.08664  0.000424  0.107245  0.113941  0.000241  1.010194  0.0
H  H114  1  0.41344085  0.13695453  0.43520704  1  0.086231  0.000424  0.107237  0.113934  0.000241  1.010244  0.0
H  H115  1  0.41344508  0.36304645  0.56479403  1  0.086152  0.000424  0.107225  0.113901  0.000241  1.010244  0.0
H  H116  1  0.74877442  0.86483074  0.56437139  1  0.064919  0.000168  0.099648  0.097425  8.3e-05  1.02545  0.0
H  H117  1  0.74877737  0.63517341  0.43563390  1  0.065083  0.000168  0.09965  0.097385  8.3e-05  1.025503  0.0
H  H118  1  0.25123724  0.13516192  0.43565487  1  0.065282  0.000168  0.09967  0.097504  8.3e-05  1.025252  0.0
H  H119  1  0.25124016  0.36484314  0.56434890  1  0.065199  0.000168  0.099677  0.097449  8.3e-05  1.025355  0.0
H  H120  1  0.87060299  0.83324148  0.59477957  1  0.061587  0.000185  0.101108  0.100119  9.3e-05  1.00914  0.0
H  H121  1  0.87060204  0.66676558  0.40522724  1  0.06177  0.000185  0.101129  0.100162  9.3e-05  1.009134  0.0
H  H122  1  0.12941324  0.16676063  0.40522958  1  0.061659  0.000184  0.101155  0.100116  9.3e-05  1.00918  0.0
H  H123  1  0.12941223  0.33324619  0.59477598  1  0.061442  0.000185  0.101211  0.100215  9.3e-05  1.009178  0.0
H  H124  1  0.03232943  0.83501295  0.59281203  1  0.106022  0.000446  0.108679  0.115611  0.000243  0.989832  0.0
H  H125  1  0.03232848  0.66499348  0.40719175  1  0.106159  0.000445  0.108661  0.115617  0.000243  0.989862  0.0
H  H126  1  0.96768614  0.16499140  0.40719366  1  0.106331  0.000445  0.108527  0.11541  0.000243  0.990159  0.0
H  H127  1  0.96768449  0.33501540  0.59281043  1  0.106178  0.000445  0.108606  0.115519  0.000243  0.989995  0.0
C  C128  1  0.41497985  0.13377885  0.06051942  1  1.531862  -0.00584  0.216019  0.578685  -0.007722  4.161395  -0.006
C  C129  1  0.41498191  0.36621569  0.93947656  1  1.531768  -0.005842  0.215991  0.578697  -0.007723  4.1614  -0.006
C  C130  1  0.58500639  0.86623551  0.93949785  1  1.532173  -0.005835  0.216232  0.578959  -0.007715  4.161331  -0.006
C  C131  1  0.58500824  0.63376742  0.06050382  1  1.532156  -0.005832  0.216194  0.578857  -0.00771  4.161387  -0.006
C  C132  1  0.39710245  0.08537276  0.10889998  1  -0.089621  0.007928  -0.017658  -0.034532  0.004068  3.981129  0.006
C  C133  1  0.39710650  0.41462120  0.89109540  1  -0.089812  0.007928  -0.017529  -0.034315  0.004068  3.981122  0.006
C  C134  1  0.60289096  0.91463109  0.89110998  1  -0.089717  0.007924  -0.01758  -0.03459  0.004065  3.981365  0.006
C  C135  1  0.60289343  0.58537009  0.10889040  1  -0.089687  0.007924  -0.017587  -0.034475  0.004065  3.981264  0.006
C  C136  1  0.35881546  0.12200720  0.17007707  1  0.030147  0.000565  -0.091367  -0.099949  4.2e-05  3.998087  0.0
C  C137  1  0.35881840  0.37798965  0.82991885  1  0.030081  0.000564  -0.091404  -0.099898  4.2e-05  3.998137  0.0
C  C138  1  0.64118121  0.87798695  0.82993687  1  0.03  0.00057  -0.091367  -0.099904  4.6e-05  3.998143  0.0
C  C139  1  0.64118348  0.62201365  0.17006339  1  0.030214  0.00057  -0.091363  -0.099937  4.6e-05  3.998136  0.0
C  C140  1  0.34220541  0.08114093  0.21824584  1  0.002506  -2.3e-05  -0.095876  -0.139198  -0.000149  4.013864  0.0
C  C141  1  0.34220710  0.41885883  0.78175208  1  -0.013333  -2.3e-05  -0.095893  -0.139226  -0.000149  4.013829  0.0
C  C142  1  0.65778865  0.91884148  0.78175668  1  -0.012722  -2.5e-05  -0.095853  -0.139233  -0.000151  4.01367  0.0
C  C143  1  0.65779153  0.58115853  0.21824250  1  -0.012725  -2.6e-05  -0.095914  -0.13934  -0.000151  4.013712  0.0
C  C144  1  0.36442086  0.00246102  0.20703186  1  -0.049585  0.000139  -0.009491  0.061084  -4.6e-05  4.010888  0.0
C  C145  1  0.36442239  0.49753878  0.79296752  1  -0.049602  0.000138  -0.009459  0.061143  -4.6e-05  4.010849  0.0
C  C146  1  0.63557190  0.99751945  0.79296013  1  -0.049465  0.000146  -0.009553  0.060923  -4.1e-05  4.010723  0.0
C  C147  1  0.63557428  0.50247997  0.20703895  1  -0.049655  0.000146  -0.009519  0.060956  -4.1e-05  4.01068  0.0
C  C148  1  0.40269985  0.96632669  0.14572548  1  -0.070212  -6.9e-05  -0.086832  -0.125854  -0.000286  3.945653  0.0
C  C149  1  0.40270396  0.53367043  0.85427316  1  -0.07102  -6.9e-05  -0.086731  -0.125659  -0.000286  3.945504  0.0
C  C150  1  0.59729030  0.03366292  0.85426290  1  -0.071898  -7.2e-05  -0.086835  -0.125687  -0.000288  3.945556  0.0
C  C151  1  0.59729205  0.46633687  0.14573648  1  -0.071714  -7.2e-05  -0.086805  -0.125653  -0.000288  3.945522  0.0
C  C152  1  0.41814963  0.00681652  0.09673129  1  -0.030345  0.000954  -0.076021  -0.074169  3.8e-05  3.934661  0.001
C  C153  1  0.41815547  0.49317803  0.90326517  1  -0.029086  0.000953  -0.076201  -0.074551  3.7e-05  3.93498  0.001
C  C154  1  0.58183987  0.99318533  0.90326522  1  -0.02927  0.00096  -0.075935  -0.074136  4.2e-05  3.934529  0.001
C  C155  1  0.58184250  0.50681525  0.09673407  1  -0.029224  0.00096  -0.075942  -0.074187  4.2e-05  3.934462  0.001
C  C156  1  0.34797883  0.95926935  0.25858699  1  -0.003922  -0.003616  -0.001331  0.080116  -0.003931  3.995764  -0.002
C  C157  1  0.34797928  0.54073125  0.74141327  1  -0.003915  -0.003617  -0.001346  0.080093  -0.003932  3.995768  -0.002
C  C158  1  0.65201523  0.04070819  0.74140202  1  -0.004372  -0.003617  -0.001414  0.080175  -0.003932  3.995674  -0.002
C  C159  1  0.65201543  0.45929219  0.25859796  1  -0.004373  -0.003617  -0.001439  0.080134  -0.003932  3.995707  -0.002
C  C160  1  0.35260812  0.99613692  0.32674044  1  -0.025979  0.001727  -0.095254  -0.14544  0.000728  3.997115  0.001
C  C161  1  0.35260879  0.50386483  0.67325956  1  -0.026157  0.001727  -0.095193  -0.14541  0.000728  3.997115  0.001
C  C162  1  0.64738725  0.00384350  0.67324864  1  -0.026246  0.001728  -0.095216  -0.145367  0.000729  3.996991  0.001
C  C163  1  0.64738723  0.49615688  0.32675134  1  -0.026166  0.001728  -0.095217  -0.145375  0.000729  3.996975  0.001
C  C164  1  0.33871534  0.95530731  0.37553471  1  0.020133  -0.002174  -0.087222  -0.093398  -0.002529  3.994694  -0.001
C  C165  1  0.33871670  0.54469618  0.62446610  1  0.02019  -0.002174  -0.087276  -0.093418  -0.002529  3.994788  -0.001
C  C166  1  0.66127937  0.04467599  0.62445491  1  0.020944  -0.002174  -0.087228  -0.093467  -0.00253  3.994553  -0.001
C  C167  1  0.66127931  0.45532439  0.37554507  1  0.021241  -0.002174  -0.087207  -0.093373  -0.00253  3.99456  -0.001
C  C168  1  0.31976952  0.87606513  0.35726248  1  -0.02088  0.010294  -0.020132  -0.040279  0.005538  4.000016  0.008
C  C169  1  0.31977201  0.62393838  0.64273930  1  -0.021081  0.010294  -0.020076  -0.040182  0.005538  3.999965  0.008
C  C170  1  0.68022780  0.12391760  0.64272751  1  -0.021507  0.010299  -0.020028  -0.04041  0.00554  3.999537  0.008
C  C171  1  0.68022792  0.37608279  0.35727295  1  -0.021516  0.010299  -0.020034  -0.040465  0.00554  3.999621  0.008
C  C172  1  0.31381876  0.83892706  0.28957104  1  -0.112569  -0.001899  -0.081484  -0.085141  -0.002357  3.986363  -0.001
C  C173  1  0.31382103  0.66107530  0.71043101  1  -0.112219  -0.001899  -0.081502  -0.085128  -0.002358  3.986278  -0.001
C  C174  1  0.68618182  0.16105225  0.71042073  1  -0.111387  -0.001899  -0.081722  -0.085368  -0.002357  3.986012  -0.001
C  C175  1  0.68618216  0.33894814  0.28957974  1  -0.111236  -0.001899  -0.08172  -0.08544  -0.002357  3.986079  -0.001
C  C176  1  0.32768545  0.88001783  0.24108661  1  -0.056731  0.001619  -0.090636  -0.131925  0.000686  3.974922  0.001
C  C177  1  0.32768638  0.61998337  0.75891474  1  -0.057142  0.00162  -0.090664  -0.132019  0.000686  3.974891  0.001
C  C178  1  0.67231382  0.11996029  0.75890300  1  -0.05688  0.001621  -0.090576  -0.132097  0.000687  3.974669  0.001
C  C179  1  0.67231420  0.38004010  0.24109747  1  -0.057014  0.001621  -0.090572  -0.132028  0.000687  3.974627  0.001
C  C180  1  0.31101270  0.83061345  0.40875518  1  1.506871  -0.010915  0.211398  0.563441  -0.014974  4.179125  -0.01
C  C181  1  0.31101393  0.66939064  0.59124671  1  1.507916  -0.010914  0.211403  0.563325  -0.014976  4.179219  -0.01
C  C182  1  0.68899115  0.16937626  0.59123807  1  1.507726  -0.010915  0.211445  0.563756  -0.014975  4.178972  -0.01
C  C183  1  0.68899122  0.33062412  0.40876191  1  1.507726  -0.010916  0.211449  0.563823  -0.014976  4.178907  -0.01
C  C184  1  0.59070149  0.24999844  0.99999907  1  1.558324  -0.010087  0.21638  0.572401  -0.013235  4.151349  -0.009
C  C185  1  0.40928866  0.75000120  0.00000138  1  1.558782  -0.010087  0.216233  0.572249  -0.013233  4.151548  -0.009
C  C186  1  0.68779496  0.24999785  0.99999847  1  0.014821  0.009911  -0.019796  -0.034344  0.005153  3.982356  0.008
C  C187  1  0.31219519  0.75000002  0.00000019  1  0.014993  0.009912  -0.0196  -0.034099  0.005152  3.982233  0.008
C  C188  1  0.73435010  0.29790468  0.05202580  1  -0.126474  -0.001923  -0.085151  -0.086015  -0.002345  3.984798  -0.001
C  C189  1  0.73435046  0.20209160  0.94797050  1  -0.126088  -0.001923  -0.085192  -0.086179  -0.002345  3.984799  -0.001
C  C190  1  0.26564136  0.70209943  0.94796823  1  -0.125592  -0.001922  -0.085201  -0.086186  -0.002344  3.984843  -0.001
C  C191  1  0.26563904  0.79789941  0.05203074  1  -0.125208  -0.001923  -0.085283  -0.086291  -0.002344  3.984796  -0.001
C  C192  1  0.82493594  0.29684337  0.05269140  1  0.019199  0.001197  -0.090125  -0.131474  0.000477  3.97595  0.001
C  C193  1  0.82493630  0.20315289  0.94730393  1  0.019112  0.001197  -0.09009  -0.131275  0.000477  3.976015  0.001
C  C194  1  0.17505551  0.70316128  0.94730079  1  0.019599  0.001197  -0.090111  -0.131221  0.000477  3.975697  0.001
C  C195  1  0.17505320  0.79683638  0.05269650  1  0.019414  0.001197  -0.090065  -0.131224  0.000477  3.975677  0.001
C  C196  1  0.87250079  0.24999841  0.99999761  1  0.051968  -0.002987  -0.001293  0.07315  -0.003266  3.99111  -0.002
C  C197  1  0.12749017  0.74999882  0.99999829  1  -0.0848  -0.003011  -0.001359  0.073041  -0.003264  3.99109  -0.002
C  C198  1  0.96898014  0.24999784  0.99999799  1  -0.121301  -0.002846  -0.00505  0.068616  -0.003089  3.996838  -0.002
C  C199  1  0.03101147  0.74999825  0.99999867  1  0.015263  -0.00282  -0.005104  0.068285  -0.003088  3.99722  -0.002
C  C200  1  0.01642783  0.31351009  0.03694420  1  0.039057  0.001047  -0.091069  -0.135049  0.000389  3.988293  0.001
C  C201  1  0.01642688  0.18648559  0.96305102  1  0.038794  0.001047  -0.091073  -0.13507  0.000389  3.9882  0.001
C  C202  1  0.98356362  0.68648715  0.96305143  1  0.038605  0.001046  -0.09102  -0.134779  0.000389  3.988476  0.001
C  C203  1  0.98356588  0.81351110  0.03694645  1  0.038606  0.001047  -0.091033  -0.134845  0.000389  3.988563  0.001
C  C204  1  0.10710429  0.31321293  0.03768553  1  -0.125504  -0.001766  -0.083616  -0.087158  -0.002173  3.985066  -0.001
C  C205  1  0.10710399  0.18678158  0.96230850  1  -0.125477  -0.001765  -0.083556  -0.08701  -0.002173  3.984993  -0.001
C  C206  1  0.89288716  0.68678546  0.96231032  1  -0.125449  -0.001765  -0.083551  -0.087008  -0.002173  3.985185  -0.001
C  C207  1  0.89288942  0.81321513  0.03768946  1  -0.125507  -0.001765  -0.083561  -0.086989  -0.002173  3.985158  -0.001
C  C208  1  0.15339787  0.24999724  0.99999691  1  0.004666  0.009229  -0.018056  -0.03184  0.004848  3.980807  0.007
C  C209  1  0.84659424  0.75000118  0.00000040  1  0.00445  0.009227  -0.017995  -0.031891  0.004847  3.980621  0.007
C  C210  1  0.25054480  0.24999609  0.99999669  1  1.565695  -0.010677  0.214096  0.56913  -0.014129  4.163871  -0.009
C  C211  1  0.74944601  0.75000293  0.00000170  1  1.565375  -0.010675  0.214006  0.569208  -0.014129  4.16408  -0.009
C  C212  1  0.32327424  0.47003372  0.15971246  1  -0.005079  0.000211  -0.232419  -0.425491  -8e-05  3.957446  0.0
C  C213  1  0.32327513  0.02996201  0.84028519  1  -0.004684  0.000211  -0.232353  -0.42546  -8e-05  3.957148  0.0
C  C214  1  0.67673221  0.53003553  0.84028658  1  -0.005364  0.000211  -0.232019  -0.424534  -8e-05  3.956762  0.0
C  C215  1  0.67673327  0.96996628  0.15971633  1  -0.00539  0.000211  -0.231947  -0.424542  -8e-05  3.956661  0.0
C  C216  1  0.37203775  0.41463638  0.19014882  1  0.467113  0.002897  0.109196  0.225161  0.001681  3.971611  0.003
C  C217  1  0.37203928  0.08536051  0.80984954  1  0.467091  0.002898  0.109297  0.225304  0.001681  3.971592  0.003
C  C218  1  0.62795826  0.58542071  0.80984647  1  0.467985  0.00289  0.10932  0.224692  0.001679  3.971094  0.003
C  C219  1  0.62795870  0.91458167  0.19015655  1  0.468269  0.002891  0.109255  0.224635  0.00168  3.971036  0.003
C  C220  1  0.37917964  0.41216124  0.25842315  1  0.066652  0.004555  -0.035547  -0.147186  0.002335  4.054645  0.003
C  C221  1  0.37918001  0.08783623  0.74157531  1  0.066987  0.004555  -0.035661  -0.147366  0.002335  4.054705  0.003
C  C222  1  0.62082290  0.58790107  0.74157409  1  0.065934  0.004556  -0.035711  -0.147111  0.002335  4.054347  0.003
C  C223  1  0.62082318  0.91209957  0.25842812  1  0.065947  0.004556  -0.035697  -0.147046  0.002335  4.054331  0.003
C  C224  1  0.42846735  0.34581029  0.25863123  1  0.41055  0.004985  0.103278  0.199094  0.002712  3.999268  0.004
C  C225  1  0.42846892  0.15418660  0.74136712  1  0.41028  0.004985  0.103233  0.199079  0.002712  3.999243  0.004
C  C226  1  0.57152215  0.65424629  0.74136784  1  0.407314  0.004987  0.103378  0.199555  0.002712  3.998559  0.004
C  C227  1  0.57152254  0.84575434  0.25863388  1  0.40717  0.00499  0.103396  0.199539  0.002714  3.998512  0.004
C  C228  1  0.45835076  0.31062813  0.31358889  1  -0.045216  0.000411  -0.230526  -0.422797  0.000211  3.966983  0.0
C  C229  1  0.45835108  0.18936875  0.68640898  1  -0.04516  0.000411  -0.230486  -0.422783  0.000211  3.967131  0.0
C  C230  1  0.54163157  0.68943197  0.68641327  1  -0.040334  0.000409  -0.230659  -0.423233  0.000212  3.967287  0.0
C  C231  1  0.54163059  0.81056690  0.31358667  1  -0.04  0.000409  -0.230646  -0.42321  0.000212  3.967227  0.0
C  C232  1  0.42302082  0.59415554  0.30580672  1  -0.054561  0.000145  -0.23544  -0.423234  -2.8e-05  3.955965  0.0
C  C233  1  0.42302011  0.90584274  0.69419262  1  -0.054938  0.000145  -0.235471  -0.423186  -2.7e-05  3.956008  0.0
C  C234  1  0.57698628  0.40590638  0.69420014  1  -0.053189  0.000145  -0.235308  -0.423172  -2.8e-05  3.956156  0.0
C  C235  1  0.57698699  0.09409288  0.30580157  1  -0.053028  0.000145  -0.235233  -0.423121  -2.8e-05  3.956112  0.0
C  C236  1  0.36103867  0.54783539  0.33617525  1  0.475763  0.00365  0.106003  0.220094  0.002025  3.971474  0.003
C  C237  1  0.36103795  0.95216347  0.66382421  1  0.4757  0.003651  0.106068  0.220169  0.002025  3.971451  0.003
C  C238  1  0.63897039  0.45222187  0.66382831  1  0.46736  0.00367  0.105746  0.219486  0.002021  3.97255  0.003
C  C239  1  0.63897045  0.04777741  0.33617388  1  0.467489  0.003671  0.105829  0.219651  0.002022  3.97243  0.003
C  C240  1  0.34303163  0.46723148  0.31600468  1  0.017021  0.003266  -0.033754  -0.136943  0.001662  4.055966  0.002
C  C241  1  0.34303092  0.03276716  0.68399449  1  0.017015  0.003266  -0.033744  -0.136876  0.001662  4.056043  0.002
C  C242  1  0.65697742  0.53282739  0.68399337  1  0.015781  0.003263  -0.033701  -0.136812  0.00166  4.056342  0.002
C  C243  1  0.65697683  0.96717152  0.31600900  1  0.015805  0.003263  -0.033724  -0.13689  0.00166  4.056444  0.002
C  C244  1  0.28352744  0.45229661  0.36290721  1  0.401063  0.006079  0.09832  0.195424  0.003216  3.998764  0.004
C  C245  1  0.28352682  0.04770203  0.63709196  1  0.401092  0.00608  0.09838  0.195491  0.003217  3.9989  0.004
C  C246  1  0.71648617  0.54775132  0.63709023  1  0.401538  0.006065  0.09814  0.194993  0.003209  3.999654  0.004
C  C247  1  0.71648615  0.95224759  0.36291165  1  0.401509  0.006067  0.098132  0.19493  0.00321  3.999679  0.004
C  C248  1  0.23903939  0.37944308  0.36788423  1  -0.02868  0.000316  -0.229672  -0.421743  0.000194  3.982956  0.0
C  C249  1  0.23903866  0.12055497  0.63211435  1  -0.028622  0.000316  -0.229733  -0.421851  0.000194  3.982991  0.0
C  C250  1  0.76097097  0.62060549  0.63211672  1  -0.026905  0.000315  -0.229581  -0.421692  0.000194  3.982932  0.0
C  C251  1  0.76097170  0.87939339  0.36788370  1  -0.026915  0.000315  -0.229551  -0.421583  0.000194  3.982753  0.0
C  C252  1  0.48029825  0.75000117  0.50000054  1  1.484048  -0.010121  0.212655  0.559761  -0.014422  4.181206  -0.01
C  C253  1  0.51971863  0.24999961  0.49999964  1  1.484503  -0.010124  0.212567  0.559513  -0.014427  4.180985  -0.01
C  C254  1  0.57741715  0.75000118  0.50000102  1  0.110019  0.010065  -0.017214  -0.027766  0.005551  3.980098  0.008
C  C255  1  0.42259843  0.25000019  0.50000023  1  0.111045  0.010064  -0.017039  -0.027492  0.00555  3.979419  0.008
C  C256  1  0.62355390  0.81372470  0.53683426  1  -0.070789  -0.002065  -0.083421  -0.092211  -0.002459  3.984331  -0.001
C  C257  1  0.62355605  0.68627884  0.46316898  1  -0.069951  -0.002065  -0.083369  -0.092171  -0.002459  3.984289  -0.001
C  C258  1  0.37645776  0.18627232  0.46317926  1  -0.070994  -0.002065  -0.083429  -0.092154  -0.002459  3.984011  -0.001
C  C259  1  0.37646018  0.31372982  0.53682251  1  -0.070803  -0.002065  -0.083401  -0.092188  -0.002459  3.983989  -0.001
C  C260  1  0.71419516  0.81387218  0.53655300  1  -0.034147  0.001334  -0.094633  -0.147635  0.00051  4.000796  0.001
C  C261  1  0.71419666  0.68613195  0.46345132  1  -0.034747  0.001334  -0.094617  -0.147571  0.00051  4.000932  0.001
C  C262  1  0.28581715  0.18612488  0.46346294  1  -0.034631  0.001334  -0.094718  -0.147908  0.00051  4.000586  0.001
C  C263  1  0.28581892  0.31387901  0.53654012  1  -0.034663  0.001334  -0.094679  -0.147705  0.00051  4.000655  0.001
C  C264  1  0.76159361  0.75000293  0.50000232  1  -0.104444  -0.003292  -0.004383  0.06804  -0.00356  4.008186  -0.002
C  C265  1  0.23842001  0.25000253  0.50000164  1  -0.103883  -0.003292  -0.004386  0.068146  -0.00356  4.007994  -0.002
C  C266  1  0.85793996  0.75000351  0.50000243  1  0.030227  -0.002558  -0.007908  0.063682  -0.002809  4.007122  -0.002
C  C267  1  0.14207431  0.25000312  0.50000272  1  0.030181  -0.002559  -0.007918  0.063525  -0.00281  4.00725  -0.002
C  C268  1  0.90522282  0.79728143  0.55258772  1  -0.129592  0.000919  -0.093423  -0.135652  0.000316  3.990032  0.001
C  C269  1  0.90522302  0.70272619  0.44741774  1  -0.129735  0.000919  -0.093483  -0.135713  0.000316  3.98997  0.001
C  C270  1  0.09479211  0.20272351  0.44741905  1  -0.129818  0.00092  -0.09347  -0.135636  0.000316  3.990244  0.001
C  C271  1  0.09479126  0.29728331  0.55258651  1  -0.12987  0.000919  -0.093528  -0.135738  0.000316  3.990191  0.001
C  C272  1  0.99585495  0.79803058  0.55228715  1  0.021767  -0.001536  -0.083635  -0.08889  -0.001932  3.984273  -0.001
C  C273  1  0.99585515  0.70197644  0.44771723  1  0.021801  -0.001536  -0.083703  -0.088996  -0.001933  3.984394  -0.001
C  C274  1  0.00415932  0.20197490  0.44771779  1  0.021851  -0.001537  -0.083472  -0.088545  -0.001934  3.984707  -0.001
C  C275  1  0.00415847  0.29803189  0.55228630  1  0.021736  -0.001537  -0.083513  -0.088657  -0.001934  3.984512  -0.001
C  C276  1  0.04196001  0.75000351  0.50000243  1  -0.025611  0.010136  -0.018026  -0.028936  0.005481  3.976069  0.008
C  C277  1  0.95805427  0.25000311  0.50000224  1  -0.025118  0.010138  -0.018057  -0.02919  0.005481  3.976115  0.008
C  C278  1  0.13914344  0.75000408  0.50000206  1  1.519422  -0.010343  0.213428  0.569631  -0.014333  4.166318  -0.01
C  C279  1  0.86086953  0.25000194  0.50000105  1  1.519914  -0.010345  0.213354  0.569496  -0.014338  4.166024  -0.01
N  N280  1  0.41466794  0.35436207  0.15197914  1  -0.735249  0.057028  -0.245605  -0.21255  0.031691  3.407695  0.047
N  N281  1  0.41466993  0.14563367  0.84801900  1  -0.735051  0.057026  -0.245705  -0.212664  0.031694  3.407951  0.047
N  N282  1  0.58531178  0.64568296  0.84801775  1  -0.73568  0.05705  -0.245837  -0.212569  0.031702  3.408139  0.047
N  N283  1  0.58531175  0.85432000  0.15198538  1  -0.735704  0.057051  -0.245853  -0.212564  0.031705  3.408191  0.047
N  N284  1  0.44911165  0.31459655  0.19425132  1  -0.835766  0.000783  -0.289976  -0.155678  -0.000942  3.719531  -0.001
N  N285  1  0.44911432  0.18539919  0.80574682  1  -0.835808  0.000783  -0.289949  -0.155662  -0.000942  3.719541  -0.001
N  N286  1  0.55086350  0.68544852  0.80574752  1  -0.835885  0.000788  -0.29006  -0.155838  -0.00094  3.719401  -0.001
N  N287  1  0.55086344  0.81455325  0.19425394  1  -0.836018  0.000788  -0.290017  -0.155841  -0.00094  3.719386  -0.001
N  N288  1  0.31525898  0.57964874  0.39118050  1  -0.711096  0.039504  -0.23742  -0.203083  0.023522  3.35703  0.03
N  N289  1  0.31525910  0.92035070  0.60881906  1  -0.711105  0.039513  -0.237464  -0.203146  0.023528  3.35714  0.03
N  N290  1  0.68475464  0.42039824  0.60882742  1  -0.702371  0.03945  -0.237067  -0.202648  0.023506  3.357205  0.03
N  N291  1  0.68475582  0.07960102  0.39117429  1  -0.702389  0.039452  -0.237116  -0.202738  0.023507  3.35716  0.03
N  N292  1  0.26904002  0.52129308  0.40626049  1  -0.831791  0.000641  -0.281972  -0.149847  -0.000885  3.70566  0.0
N  N293  1  0.26903942  0.97870578  0.59373896  1  -0.83184  0.000641  -0.281949  -0.149804  -0.000885  3.705619  0.0
N  N294  1  0.73097947  0.47875039  0.59374435  1  -0.831205  0.000642  -0.281846  -0.149652  -0.000882  3.706237  0.0
N  N295  1  0.73098007  0.02124829  0.40625677  1  -0.831262  0.000642  -0.281889  -0.149683  -0.000883  3.706308  0.0
O  O296  1  0.42774532  0.20542323  0.08731228  1  -1.161258  0.068085  -0.307255  -0.573483  0.034765  2.47334  0.064
O  O297  1  0.42774495  0.29457075  0.91268407  1  -1.161363  0.068089  -0.307241  -0.57348  0.034766  2.473276  0.064
O  O298  1  0.57220963  0.79459466  0.91270856  1  -1.160904  0.068095  -0.307303  -0.573577  0.03477  2.473454  0.064
O  O299  1  0.57221260  0.70540772  0.08729398  1  -1.160996  0.06808  -0.307334  -0.573627  0.034763  2.473465  0.064
O  O300  1  0.41516265  0.10580936  0.99782764  1  -1.124486  0.083433  -0.298564  -0.505255  0.043507  2.275986  0.071
O  O301  1  0.41516420  0.39418520  0.00216882  1  -1.124259  0.083432  -0.298592  -0.505312  0.043507  2.275957  0.071
O  O302  1  0.58484966  0.89420499  0.00218915  1  -1.125125  0.08342  -0.298732  -0.505433  0.0435  2.275569  0.071
O  O303  1  0.58484877  0.60579908  0.99781226  1  -1.12504  0.083416  -0.298698  -0.505372  0.043498  2.275565  0.071
O  O304  1  0.30467969  0.86702328  0.46969520  1  -1.139936  0.083115  -0.308673  -0.539991  0.042857  2.382757  0.076
O  O305  1  0.30468047  0.63298023  0.53030658  1  -1.140473  0.083116  -0.30872  -0.539995  0.042859  2.382667  0.076
O  O306  1  0.69532545  0.13297043  0.53029686  1  -1.14029  0.083139  -0.30854  -0.540069  0.042867  2.382924  0.076
O  O307  1  0.69532468  0.36703053  0.46970323  1  -1.140329  0.083144  -0.308551  -0.540094  0.042871  2.382906  0.076
O  O308  1  0.31278865  0.75689716  0.38931995  1  -1.098504  0.092075  -0.304327  -0.510658  0.048361  2.361509  0.081
O  O309  1  0.31278841  0.74310693  0.61068194  1  -1.098652  0.092072  -0.304279  -0.510547  0.048361  2.361611  0.081
O  O310  1  0.68722106  0.24309261  0.61067670  1  -1.098394  0.092066  -0.304455  -0.510795  0.048356  2.361485  0.081
O  O311  1  0.68722390  0.25690776  0.38932279  1  -1.098408  0.092065  -0.304455  -0.510835  0.048355  2.361514  0.081
O  O312  1  0.55125194  0.30066548  0.04452045  1  -1.134278  0.090361  -0.301765  -0.517329  0.047143  2.388416  0.079
O  O313  1  0.55125294  0.19933083  0.95547731  1  -1.134345  0.090362  -0.301755  -0.517289  0.047143  2.388362  0.079
O  O314  1  0.44873821  0.69932509  0.95548750  1  -1.134493  0.090378  -0.301716  -0.517277  0.04715  2.38851  0.079
O  O315  1  0.44873656  0.80067786  0.04451515  1  -1.134524  0.09037  -0.301686  -0.517225  0.047146  2.388576  0.079
O  O316  1  0.28990256  0.29908584  0.04574666  1  -1.130039  0.089432  -0.303684  -0.519748  0.046064  2.369635  0.079
O  O317  1  0.28990226  0.20090577  0.95424634  1  -1.130284  0.089436  -0.30373  -0.519684  0.046065  2.369503  0.079
O  O318  1  0.71008693  0.70092339  0.95424445  1  -1.130096  0.089418  -0.303667  -0.519806  0.046059  2.369787  0.079
O  O319  1  0.71008919  0.79908305  0.04575982  1  -1.130098  0.089416  -0.303726  -0.51984  0.046057  2.369807  0.079
O  O320  1  0.44139342  0.69352219  0.46139769  1  -1.143552  0.086661  -0.301186  -0.512861  0.044752  2.376748  0.077
O  O321  1  0.44139323  0.80648014  0.53860241  1  -1.143646  0.086657  -0.301166  -0.512812  0.04475  2.376781  0.077
O  O322  1  0.55862281  0.30647581  0.53860729  1  -1.14392  0.086669  -0.301188  -0.512777  0.044755  2.376759  0.077
O  O323  1  0.55862299  0.19352398  0.46139210  1  -1.144037  0.086658  -0.301212  -0.512843  0.044752  2.376783  0.077
O  O324  1  0.17809605  0.69579462  0.45860517  1  -1.11322  0.09105  -0.308401  -0.522135  0.047717  2.347862  0.082
O  O325  1  0.17809457  0.80421468  0.54139868  1  -1.113153  0.091051  -0.308391  -0.522022  0.047718  2.347797  0.082
O  O326  1  0.82191561  0.30421083  0.54139831  1  -1.11318  0.091064  -0.308438  -0.522043  0.047725  2.34785  0.082
O  O327  1  0.82191775  0.19579246  0.45860318  1  -1.113528  0.09106  -0.308393  -0.521996  0.047722  2.347816  0.082
