# generated using pymatgen
data_ZnH22C27(NO)4
_symmetry_space_group_name_H-M   'P 1'
_cell_length_a   8.21227429
_cell_length_b   11.27804130
_cell_length_c   30.89736752
_cell_angle_alpha   90.00012622
_cell_angle_beta   89.99994214
_cell_angle_gamma   103.19323939
_symmetry_Int_Tables_number   1
_chemical_formula_structural   ZnH22C27(NO)4
_chemical_formula_sum   'Zn4 H88 C108 N16 O16'
_cell_volume   2786.13256267
_cell_formula_units_Z   4
loop_
 _symmetry_equiv_pos_site_id
 _symmetry_equiv_pos_as_xyz
  1  'x, y, z'
loop_
 _atom_site_type_symbol
 _atom_site_label
 _atom_site_symmetry_multiplicity
 _atom_site_fract_x
 _atom_site_fract_y
 _atom_site_fract_z
 _atom_site_occupancy
 _atom_site_pbe_bader_charge
 _atom_site_pbe_bader_spin_density
 _atom_site_pbe_cm5_charge
 _atom_site_pbe_ddec_charge
 _atom_site_pbe_ddec_spin_density
 _atom_site_pbe_ddec_sum_bond_order
 _atom_site_pbe_magmom
Zn  Zn0  1  0.07399996  0.34385073  0.93614202  1  1.241738  0  0.694192  0.751401  0  2.385247  0
Zn  Zn1  1  0.92600755  0.15615134  0.43614261  1  1.241743  0  0.694142  0.75135  0  2.385226  0
Zn  Zn2  1  0.92599922  0.65614767  0.06385801  1  1.241735  0  0.694186  0.751377  0  2.385286  0
Zn  Zn3  1  0.07399802  0.84385154  0.56385969  1  1.241721  0  0.694188  0.751392  0  2.385258  0
H  H4  1  0.35799476  0.41433186  0.82272458  1  0.116943  0  0.098491  0.093065  0  1.067806  0
H  H5  1  0.64200241  0.08567063  0.32272745  1  0.116969  0  0.098508  0.093067  0  1.067797  0
H  H6  1  0.64200230  0.58566749  0.17727545  1  0.116927  0  0.098504  0.093084  0  1.067822  0
H  H7  1  0.35799617  0.91432961  0.67727550  1  0.116967  0  0.098506  0.093073  0  1.067816  0
H  H8  1  0.49445940  0.42177415  0.75004653  1  0.097821  0  0.107625  0.11189  0  0.993616  0
H  H9  1  0.50553521  0.07822705  0.25004943  1  0.097883  0  0.107652  0.111939  0  0.993539  0
H  H10  1  0.50553978  0.57822425  0.24995350  1  0.097937  0  0.10764  0.11194  0  0.993602  0
H  H11  1  0.49445520  0.92177422  0.74995416  1  0.097889  0  0.107648  0.111935  0  0.993611  0
H  H12  1  0.22904663  0.05305342  0.72500901  1  0.085458  0  0.102948  0.105094  0  1.035598  0
H  H13  1  0.77095680  0.44694477  0.22500857  1  0.085477  0  0.102926  0.105068  0  1.035637  0
H  H14  1  0.77095195  0.94694682  0.27499070  1  0.085466  0  0.102956  0.105106  0  1.035593  0
H  H15  1  0.22903877  0.55305735  0.77499211  1  0.085477  0  0.102936  0.105108  0  1.035683  0
H  H16  1  0.08471805  0.04823519  0.79708927  1  0.102851  0  0.105006  0.107499  0  1.008262  0
H  H17  1  0.91528733  0.45176247  0.29708881  1  0.102871  0  0.10503  0.107541  0  1.008291  0
H  H18  1  0.91527811  0.95176509  0.20291011  1  0.10286  0  0.105003  0.107505  0  1.008261  0
H  H19  1  0.08471548  0.54823588  0.70291155  1  0.102863  0  0.105021  0.107553  0  1.008302  0
H  H20  1  0.54445006  0.01651207  0.53842283  1  0.089178  0  0.103328  0.109223  0  1.020879  0
H  H21  1  0.45555595  0.48348777  0.03842412  1  0.089251  0  0.10337  0.109238  0  1.020893  0
H  H22  1  0.45554881  0.98348542  0.46157590  1  0.089261  0  0.103375  0.109256  0  1.020881  0
H  H23  1  0.54444929  0.51651055  0.96157688  1  0.089184  0  0.103334  0.109235  0  1.020885  0
H  H24  1  0.39998783  0.99779597  0.61041287  1  0.11666  0  0.104885  0.11725  0  1.039839  0
H  H25  1  0.60001291  0.50219980  0.11041439  1  0.116714  0  0.104871  0.117203  0  1.039896  0
H  H26  1  0.60000044  0.00220260  0.38958554  1  0.116782  0  0.104839  0.117195  0  1.039976  0
H  H27  1  0.39998413  0.49779589  0.88958726  1  0.116658  0  0.104864  0.117203  0  1.039871  0
H  H28  1  0.82173282  0.37480739  0.57262359  1  0.110166  0  0.106234  0.106876  0  1.019874  0
H  H29  1  0.17826462  0.12519277  0.07262337  1  0.11015  0  0.106222  0.106874  0  1.019852  0
H  H30  1  0.17826785  0.62518825  0.42737644  1  0.110184  0  0.10621  0.106851  0  1.019871  0
H  H31  1  0.82173033  0.87480753  0.92737569  1  0.11012  0  0.106257  0.106929  0  1.019828  0
H  H32  1  0.67767311  0.35775266  0.64471939  1  0.108021  0  0.109526  0.114631  0  1.009755  0
H  H33  1  0.32232050  0.14224430  0.14471979  1  0.107985  0  0.109502  0.114626  0  1.009777  0
H  H34  1  0.32232576  0.64224483  0.35528032  1  0.107964  0  0.109505  0.114628  0  1.009785  0
H  H35  1  0.67766383  0.85775341  0.85528057  1  0.108006  0  0.109536  0.114654  0  1.00979  0
H  H36  1  0.60814072  0.96795659  0.95820622  1  0.0814  0  0.108939  0.120528  0  1.0099  0
H  H37  1  0.39186170  0.53204845  0.45820587  1  0.081333  0  0.108933  0.120537  0  1.009842  0
H  H38  1  0.39185723  0.03203817  0.04179673  1  0.081527  0  0.108943  0.120587  0  1.00985  0
H  H39  1  0.60813787  0.46796184  0.54179352  1  0.08148  0  0.108913  0.120506  0  1.009947  0
H  H40  1  0.90023062  0.09488110  0.96105850  1  0.144268  0  0.123413  0.104987  0  1.01031  0
H  H41  1  0.09977109  0.40512211  0.46105885  1  0.144233  0  0.123411  0.105025  0  1.010262  0
H  H42  1  0.09976673  0.90511550  0.03894315  1  0.144219  0  0.123393  0.10494  0  1.010342  0
H  H43  1  0.90022846  0.59488452  0.53894086  1  0.144322  0  0.123384  0.10493  0  1.010382  0
H  H44  1  0.74363476  0.40465755  0.92477529  1  0.103951  0  0.112627  0.075311  0  1.037338  0
H  H45  1  0.25636853  0.09534269  0.42477988  1  0.103976  0  0.112582  0.075296  0  1.037382  0
H  H46  1  0.25636257  0.59533539  0.07521956  1  0.103851  0  0.112619  0.075308  0  1.037287  0
H  H47  1  0.74363645  0.90466203  0.57522144  1  0.103926  0  0.112637  0.075338  0  1.037275  0
H  H48  1  0.44592831  0.28977335  0.91860583  1  0.123242  0  0.109063  0.129489  0  1.022393  0
H  H49  1  0.55407530  0.21022777  0.41861141  1  0.122848  0  0.109059  0.129475  0  1.022399  0
H  H50  1  0.55407020  0.71021592  0.08139097  1  0.123509  0  0.109066  0.129517  0  1.022297  0
H  H51  1  0.44592881  0.78978154  0.58139089  1  0.123521  0  0.109053  0.129505  0  1.022337  0
H  H52  1  0.29984187  0.97552527  0.95737447  1  0.047107  0  0.091999  0.091599  0  1.019326  0
H  H53  1  0.70016173  0.52447608  0.45737469  1  0.047041  0  0.09202  0.091648  0  1.019361  0
H  H54  1  0.70015181  0.02446772  0.04262459  1  0.047128  0  0.092002  0.091624  0  1.019345  0
H  H55  1  0.29984327  0.47553230  0.54262502  1  0.047159  0  0.091997  0.091617  0  1.019292  0
H  H56  1  0.23643712  0.09692269  0.93158682  1  0.075656  0  0.097675  0.111724  0  1.010205  0
H  H57  1  0.76356070  0.40307950  0.43158764  1  0.075676  0  0.097687  0.111735  0  1.010178  0
H  H58  1  0.76356206  0.90307571  0.06841224  1  0.075636  0  0.097671  0.111725  0  1.010183  0
H  H59  1  0.23643822  0.59692532  0.56841271  1  0.07562  0  0.097666  0.111695  0  1.010176  0
H  H60  1  0.41700156  0.92077991  0.88540681  1  0.06038  0  0.0857  0.077667  0  1.023139  0
H  H61  1  0.58300069  0.57922014  0.38540678  1  0.060391  0  0.085714  0.07764  0  1.023164  0
H  H62  1  0.58299821  0.07921665  0.11459289  1  0.060417  0  0.085695  0.077624  0  1.02318  0
H  H63  1  0.41700640  0.42078364  0.61459228  1  0.060376  0  0.085659  0.077582  0  1.023272  0
H  H64  1  0.35401677  0.04410843  0.86130798  1  0.047492  0  0.091952  0.087653  0  0.992044  0
H  H65  1  0.64598940  0.45589232  0.36130855  1  0.047552  0  0.091901  0.087627  0  0.992021  0
H  H66  1  0.64598968  0.95588986  0.13869076  1  0.047719  0  0.091928  0.087672  0  0.992057  0
H  H67  1  0.35401559  0.54411241  0.63869115  1  0.047682  0  0.091934  0.087645  0  0.992037  0
H  H68  1  0.05144122  0.93760041  0.88831294  1  0.105148  0  0.104067  0.123437  0  0.993108  0
H  H69  1  0.94856164  0.56240147  0.38831507  1  0.105091  0  0.104066  0.12342  0  0.993174  0
H  H70  1  0.94855736  0.06239983  0.11168418  1  0.105089  0  0.104045  0.123406  0  0.993182  0
H  H71  1  0.05144241  0.43760052  0.61168497  1  0.105106  0  0.104063  0.123397  0  0.993193  0
H  H72  1  0.13253241  0.89026440  0.84063927  1  0.03267  0  0.095813  0.094724  0  0.991824  0
H  H73  1  0.86747268  0.60973627  0.34064016  1  0.032739  0  0.095809  0.094758  0  0.99175  0
H  H74  1  0.86747041  0.10973394  0.15935914  1  0.032775  0  0.095814  0.094731  0  0.991774  0
H  H75  1  0.13253351  0.39026844  0.65935955  1  0.032704  0  0.095815  0.094734  0  0.991775  0
H  H76  1  0.19278218  0.80347288  0.95917004  1  0.066347  0  0.106557  0.11432  0  1.030827  0
H  H77  1  0.80722385  0.69652845  0.45917133  1  0.066086  0  0.106493  0.114229  0  1.030918  0
H  H78  1  0.80722489  0.19652723  0.04082773  1  0.066048  0  0.106523  0.114282  0  1.030828  0
H  H79  1  0.19278626  0.30347346  0.54082934  1  0.066164  0  0.106531  0.114255  0  1.030845  0
H  H80  1  0.14779043  0.58612289  0.97969824  1  0.098182  0  0.116215  0.088029  0  1.014593  0
H  H81  1  0.85221859  0.91388034  0.47969873  1  0.098137  0  0.116222  0.088037  0  1.014603  0
H  H82  1  0.85221788  0.41388087  0.02030082  1  0.098122  0  0.116207  0.088  0  1.014616  0
H  H83  1  0.14779394  0.08612152  0.52030259  1  0.098182  0  0.11622  0.088007  0  1.014692  0
H  H84  1  0.99061257  0.47147813  0.85621670  1  0.089284  0  0.122072  0.09172  0  0.971381  0
H  H85  1  0.00938816  0.02852450  0.35621644  1  0.089243  0  0.122061  0.091754  0  0.971304  0
H  H86  1  0.00938419  0.52852031  0.14378366  1  0.089349  0  0.122081  0.091716  0  0.971409  0
H  H87  1  0.99061682  0.97148022  0.64378391  1  0.089368  0  0.122073  0.091694  0  0.971388  0
H  H88  1  0.03300939  0.68516112  0.82984216  1  0.065891  0  0.11004  0.118861  0  0.991243  0
H  H89  1  0.96699360  0.81484043  0.32984254  1  0.065715  0  0.11005  0.118872  0  0.991275  0
H  H90  1  0.96698432  0.31483553  0.17015690  1  0.066167  0  0.110085  0.118923  0  0.991252  0
H  H91  1  0.03301470  0.18516333  0.67015781  1  0.066119  0  0.110088  0.11895  0  0.991241  0
C  C92  1  0.13046429  0.22259069  0.85809421  1  1.564452  0  0.198288  0.55669  0  4.23328  0
C  C93  1  0.86954098  0.27741098  0.35809459  1  1.564218  0  0.198208  0.55664  0  4.233365  0
C  C94  1  0.86953399  0.77740865  0.14190517  1  1.564773  0  0.198251  0.556497  0  4.233483  0
C  C95  1  0.13046217  0.72259195  0.64190609  1  1.564213  0  0.198238  0.556584  0  4.233301  0
C  C96  1  0.21538870  0.22934502  0.81463969  1  -0.062993  0  -0.013864  -0.023143  0  3.940782  0
C  C97  1  0.78461301  0.27065278  0.31464008  1  -0.063253  0  -0.013894  -0.023245  0  3.940685  0
C  C98  1  0.78460989  0.77065522  0.18536001  1  -0.062988  0  -0.013881  -0.02309  0  3.940737  0
C  C99  1  0.21538738  0.72934560  0.68536027  1  -0.063045  0  -0.013881  -0.02314  0  3.940753  0
C  C100  1  0.33039895  0.33514048  0.80152404  1  -0.044147  0  -0.08871  -0.093532  0  3.983169  0
C  C101  1  0.66959766  0.16486008  0.30152567  1  -0.04401  0  -0.088711  -0.09346  0  3.982979  0
C  C102  1  0.66960206  0.66485973  0.19847534  1  -0.04415  0  -0.088732  -0.093555  0  3.983126  0
C  C103  1  0.33039456  0.83513935  0.69847695  1  -0.044111  0  -0.088738  -0.093558  0  3.983219  0
C  C104  1  0.40653562  0.33980778  0.76117173  1  -0.031212  0  -0.080373  -0.136009  0  3.952614  0
C  C105  1  0.59346230  0.16019253  0.26117370  1  -0.031431  0  -0.080342  -0.136011  0  3.952328  0
C  C106  1  0.59346748  0.66018782  0.23882766  1  -0.031404  0  -0.080375  -0.136066  0  3.952431  0
C  C107  1  0.40652964  0.83980965  0.73882925  1  -0.031328  0  -0.0804  -0.136026  0  3.952529  0
C  C108  1  0.37202116  0.23778771  0.73377907  1  0.347817  0  0.08463  0.162099  0  4.063002  0
C  C109  1  0.62797713  0.26221335  0.23378078  1  0.34818  0  0.084581  0.162053  0  4.063044  0
C  C110  1  0.62797892  0.76220976  0.26622064  1  0.347881  0  0.084606  0.16203  0  4.062927  0
C  C111  1  0.37201117  0.73778888  0.76622184  1  0.348023  0  0.08463  0.162033  0  4.063037  0
C  C112  1  0.25559275  0.13132419  0.74665198  1  -0.051699  0  -0.087528  -0.150464  0  3.959586  0
C  C113  1  0.74441337  0.36867499  0.24665311  1  -0.051637  0  -0.08756  -0.150477  0  3.959649  0
C  C114  1  0.74440674  0.86867512  0.25334773  1  -0.05167  0  -0.087498  -0.150431  0  3.959522  0
C  C115  1  0.25558220  0.63132712  0.75334854  1  -0.051668  0  -0.087491  -0.150398  0  3.959687  0
C  C116  1  0.17737028  0.12845035  0.78656089  1  -0.049618  0  -0.082814  -0.087088  0  3.98055  0
C  C117  1  0.82263242  0.37155002  0.28656168  1  -0.049702  0  -0.082808  -0.087097  0  3.980533  0
C  C118  1  0.82262952  0.87154987  0.21343914  1  -0.04963  0  -0.082833  -0.087136  0  3.9805  0
C  C119  1  0.17736465  0.62844933  0.71343900  1  -0.049721  0  -0.082851  -0.087196  0  3.980498  0
C  C120  1  0.78413218  0.21134740  0.50929095  1  1.54973  0  0.191857  0.546325  0  4.253507  0
C  C121  1  0.21587240  0.28865504  0.00929085  1  1.549803  0  0.191811  0.546287  0  4.253678  0
C  C122  1  0.21587061  0.78864729  0.49070941  1  1.549281  0  0.191766  0.546219  0  4.253669  0
C  C123  1  0.78412923  0.71134699  0.99070886  1  1.550155  0  0.191825  0.546294  0  4.253678  0
C  C124  1  0.69227066  0.19702075  0.55144374  1  -0.087369  0  -0.016985  -0.030917  0  3.969258  0
C  C125  1  0.30773289  0.30297920  0.05144395  1  -0.087194  0  -0.01687  -0.030718  0  3.969234  0
C  C126  1  0.30773032  0.80297580  0.44855630  1  -0.087379  0  -0.016953  -0.030832  0  3.969304  0
C  C127  1  0.69226812  0.69702101  0.94855608  1  -0.087335  0  -0.01695  -0.030919  0  3.969233  0
C  C128  1  0.57396561  0.09030686  0.56190738  1  0.026072  0  -0.086205  -0.089519  0  3.968813  0
C  C129  1  0.42603398  0.40969230  0.06190862  1  0.026136  0  -0.086284  -0.089638  0  3.968808  0
C  C130  1  0.42602873  0.90969162  0.43809168  1  0.026066  0  -0.086259  -0.089611  0  3.968802  0
C  C131  1  0.57396430  0.59030704  0.93809270  1  0.026103  0  -0.086198  -0.089511  0  3.968825  0
C  C132  1  0.49351568  0.07977806  0.60186160  1  -0.100818  0  -0.08368  -0.145657  0  3.933165  0
C  C133  1  0.50648378  0.42021766  0.10186283  1  -0.100903  0  -0.083617  -0.14549  0  3.933077  0
C  C134  1  0.50647682  0.92021861  0.39813746  1  -0.100836  0  -0.083645  -0.145506  0  3.93333  0
C  C135  1  0.49351264  0.57977621  0.89813850  1  -0.100877  0  -0.083666  -0.145598  0  3.933068  0
C  C136  1  0.52982467  0.17656354  0.63153957  1  0.310531  0  0.085316  0.162878  0  4.049893  0
C  C137  1  0.47017230  0.32343239  0.13154040  1  0.310562  0  0.08525  0.162761  0  4.049826  0
C  C138  1  0.47016845  0.82343496  0.36845917  1  0.3105  0  0.085331  0.162766  0  4.050008  0
C  C139  1  0.52981840  0.67656614  0.86846157  1  0.310373  0  0.085313  0.162866  0  4.049836  0
C  C140  1  0.72838162  0.29322348  0.58140263  1  -0.004318  0  -0.083705  -0.091347  0  4.001217  0
C  C141  1  0.27162065  0.20677665  0.08140245  1  -0.004255  0  -0.083739  -0.091424  0  4.001247  0
C  C142  1  0.27161513  0.70677496  0.41859707  1  -0.00412  0  -0.083696  -0.091335  0  4.001215  0
C  C143  1  0.72838126  0.79322262  0.91859596  1  -0.004079  0  -0.083716  -0.091347  0  4.001093  0
C  C144  1  0.64919865  0.28391773  0.62122383  1  -0.051695  0  -0.08462  -0.149074  0  3.959684  0
C  C145  1  0.35079471  0.21607819  0.12122429  1  -0.051813  0  -0.084547  -0.149018  0  3.959584  0
C  C146  1  0.35079628  0.71607891  0.37877555  1  -0.051949  0  -0.084572  -0.149031  0  3.959638  0
C  C147  1  0.64919477  0.78392036  0.87877607  1  -0.051873  0  -0.084671  -0.149166  0  3.959751  0
C  C148  1  0.63238400  0.06463899  0.95040551  1  -0.002687  0  -0.082469  -0.186242  0  3.930706  0
C  C149  1  0.36761621  0.43536327  0.45040678  1  -0.002357  0  -0.082499  -0.186355  0  3.930708  0
C  C150  1  0.36761180  0.93535305  0.04959484  1  -0.002888  0  -0.082467  -0.186234  0  3.930729  0
C  C151  1  0.63238274  0.56464521  0.54959228  1  -0.002765  0  -0.082401  -0.186089  0  3.930806  0
C  C152  1  0.79515628  0.13360525  0.95203770  1  0.444783  0  0.050121  0.100822  0  3.947024  0
C  C153  1  0.20484544  0.36639791  0.45203798  1  0.445195  0  0.050113  0.100791  0  3.947024  0
C  C154  1  0.20484014  0.86638862  0.04796331  1  0.444938  0  0.050191  0.100927  0  3.947121  0
C  C155  1  0.79515531  0.63360871  0.54796140  1  0.444796  0  0.050126  0.100836  0  3.94717  0
C  C156  1  0.70784901  0.30727599  0.93157131  1  0.373283  0  0.043633  0.091839  0  3.957475  0
C  C157  1  0.29215457  0.19272520  0.43157564  1  0.373386  0  0.043736  0.091852  0  3.957524  0
C  C158  1  0.29214832  0.69271695  0.06842516  1  0.373485  0  0.043695  0.091942  0  3.957287  0
C  C159  1  0.70785134  0.80728226  0.56842504  1  0.37347  0  0.043678  0.091871  0  3.957427  0
C  C160  1  0.54245941  0.24317675  0.92855875  1  0.04805  0  -0.082549  -0.176947  0  3.899325  0
C  C161  1  0.45754113  0.25682263  0.42856277  1  0.048488  0  -0.082622  -0.176981  0  3.899208  0
C  C162  1  0.45753789  0.75681253  0.07143837  1  0.047671  0  -0.082622  -0.177044  0  3.899393  0
C  C163  1  0.54246207  0.74318761  0.57143856  1  0.047693  0  -0.082591  -0.176973  0  3.899481  0
C  C164  1  0.50196077  0.11804247  0.93746464  1  0.012213  0  0.023314  0.189109  0  3.925273  0
C  C165  1  0.49804068  0.38195970  0.43746713  1  0.011905  0  0.023373  0.189227  0  3.924943  0
C  C166  1  0.49803382  0.88194960  0.06253636  1  0.012281  0  0.023374  0.189146  0  3.92544  0
C  C167  1  0.50196221  0.61804963  0.56253484  1  0.012163  0  0.023329  0.188977  0  3.925529  0
C  C168  1  0.32960610  0.04104528  0.93064625  1  -0.052394  0  -0.161735  -0.213078  0  3.924292  0
C  C169  1  0.67039598  0.45895867  0.43064650  1  -0.052396  0  -0.161742  -0.213179  0  3.924257  0
C  C170  1  0.67039063  0.95894950  0.06935346  1  -0.052363  0  -0.161772  -0.213139  0  3.924334  0
C  C171  1  0.32960570  0.54105068  0.56935353  1  -0.052338  0  -0.161767  -0.213025  0  3.924157  0
C  C172  1  0.32118802  0.97476013  0.88681894  1  -0.04147  0  -0.157567  -0.118913  0  3.88801  0
C  C173  1  0.67881667  0.52524356  0.38681916  1  -0.041474  0  -0.157509  -0.118736  0  3.887842  0
C  C174  1  0.67881237  0.02523826  0.11317979  1  -0.041675  0  -0.157545  -0.118902  0  3.887939  0
C  C175  1  0.32119225  0.47476202  0.61318022  1  -0.04166  0  -0.157511  -0.11882  0  3.88797  0
C  C176  1  0.14873189  0.89348256  0.87594972  1  -0.051664  0  -0.156095  -0.209483  0  3.919938  0
C  C177  1  0.85127373  0.60652014  0.37595029  1  -0.051761  0  -0.156125  -0.209595  0  3.920099  0
C  C178  1  0.85127002  0.10651672  0.12404902  1  -0.051688  0  -0.156058  -0.20944  0  3.919921  0
C  C179  1  0.14873125  0.39348459  0.62405039  1  -0.051666  0  -0.156108  -0.209464  0  3.919918  0
C  C180  1  0.11821176  0.76465695  0.89204004  1  0.019181  0  0.022207  0.18243  0  3.909735  0
C  C181  1  0.88179351  0.73534493  0.39204070  1  0.019748  0  0.022164  0.182319  0  3.909935  0
C  C182  1  0.88178742  0.23534145  0.10795870  1  0.019641  0  0.02221  0.182478  0  3.909765  0
C  C183  1  0.11820994  0.26465891  0.60795933  1  0.019171  0  0.022205  0.182429  0  3.909728  0
C  C184  1  0.14841127  0.73401737  0.93483655  1  0.005665  0  -0.080657  -0.167622  0  3.905068  0
C  C185  1  0.85159360  0.76598384  0.43483789  1  0.005972  0  -0.080526  -0.167355  0  3.904944  0
C  C186  1  0.85159064  0.26598191  0.06516219  1  0.005921  0  -0.080617  -0.167576  0  3.904925  0
C  C187  1  0.14841894  0.23401803  0.56516343  1  0.005804  0  -0.080595  -0.167492  0  3.905033  0
C  C188  1  0.12122489  0.61268663  0.94700809  1  0.469848  0  0.047431  0.100111  0  3.945709  0
C  C189  1  0.87878178  0.88731645  0.44700888  1  0.469834  0  0.047391  0.100029  0  3.945584  0
C  C190  1  0.87878158  0.38731533  0.05299064  1  0.469863  0  0.047405  0.100105  0  3.945553  0
C  C191  1  0.12122622  0.11268639  0.55299213  1  0.469864  0  0.047413  0.100084  0  3.945836  0
C  C192  1  0.03338914  0.54833950  0.87805107  1  0.465659  0  0.048428  0.094565  0  3.968105  0
C  C193  1  0.96661648  0.95166320  0.37805124  1  0.465735  0  0.048471  0.094555  0  3.968049  0
C  C194  1  0.96661004  0.45165890  0.12194896  1  0.465807  0  0.048413  0.094599  0  3.968164  0
C  C195  1  0.03339335  0.04834145  0.62194944  1  0.465608  0  0.048478  0.094714  0  3.968112  0
C  C196  1  0.05782195  0.66752391  0.86363273  1  -0.001983  0  -0.08144  -0.181781  0  3.947599  0
C  C197  1  0.94218218  0.83247782  0.36363314  1  -0.002315  0  -0.081415  -0.181714  0  3.947592  0
C  C198  1  0.94217723  0.33247449  0.13636633  1  -0.002838  0  -0.081479  -0.181929  0  3.947746  0
C  C199  1  0.05782644  0.16752685  0.63636754  1  -0.002199  0  -0.081497  -0.181979  0  3.947668  0
N  N200  1  0.45846488  0.25317389  0.69408830  1  -0.500762  0  -0.150285  -0.13714  0  3.295225  0
N  N201  1  0.54153651  0.24682507  0.19409035  1  -0.501021  0  -0.150353  -0.137258  0  3.295432  0
N  N202  1  0.54153793  0.74682446  0.30591205  1  -0.500812  0  -0.150287  -0.137086  0  3.295268  0
N  N203  1  0.45845390  0.75317621  0.80591291  1  -0.500754  0  -0.150333  -0.137255  0  3.295244  0
N  N204  1  0.44133162  0.15788858  0.67109213  1  -0.474061  0  -0.147035  -0.130421  0  3.280491  0
N  N205  1  0.55866405  0.34210759  0.17109328  1  -0.473954  0  -0.14699  -0.130332  0  3.280504  0
N  N206  1  0.55866060  0.84211084  0.32890693  1  -0.47402  0  -0.147065  -0.13046  0  3.280547  0
N  N207  1  0.44132664  0.65789094  0.82890901  1  -0.474061  0  -0.146967  -0.130283  0  3.280407  0
N  N208  1  0.83296314  0.25363552  0.94250683  1  -1.280049  0  -0.338917  -0.248078  0  3.629553  0
N  N209  1  0.16703860  0.24636759  0.44250930  1  -1.280509  0  -0.338918  -0.248029  0  3.629485  0
N  N210  1  0.16703389  0.74636017  0.05749223  1  -1.280231  0  -0.338965  -0.248222  0  3.629567  0
N  N211  1  0.83296457  0.75363899  0.55749203  1  -1.280215  0  -0.338933  -0.248139  0  3.62952  0
N  N212  1  0.06498078  0.52055643  0.91915779  1  -1.269956  0  -0.337991  -0.250438  0  3.57892  0
N  N213  1  0.93502201  0.97944563  0.41915799  1  -1.269989  0  -0.338031  -0.250508  0  3.578979  0
N  N214  1  0.93501992  0.47944286  0.08084191  1  -1.269981  0  -0.337983  -0.250424  0  3.578929  0
N  N215  1  0.06498325  0.02055634  0.58084269  1  -1.269955  0  -0.338024  -0.250467  0  3.579038  0
O  O216  1  0.19424438  0.31293444  0.88410131  1  -1.186253  0  -0.340062  -0.573156  0  2.380366  0
O  O217  1  0.80575899  0.18706556  0.38410034  1  -1.186237  0  -0.340027  -0.573158  0  2.380387  0
O  O218  1  0.80575477  0.68706030  0.11590034  1  -1.186357  0  -0.340012  -0.573052  0  2.380413  0
O  O219  1  0.19424810  0.81293821  0.61590002  1  -1.186266  0  -0.340018  -0.573102  0  2.380287  0
O  O220  1  0.01077966  0.13647480  0.86692925  1  -1.159606  0  -0.325419  -0.540944  0  2.110148  0
O  O221  1  0.98922102  0.36352424  0.36692999  1  -1.159434  0  -0.325344  -0.540829  0  2.110217  0
O  O222  1  0.98921616  0.86352091  0.13306949  1  -1.159808  0  -0.325409  -0.540843  0  2.110258  0
O  O223  1  0.01078182  0.63647777  0.63306972  1  -1.159328  0  -0.325393  -0.540863  0  2.110207  0
O  O224  1  0.77794405  0.11212581  0.48720553  1  -1.165538  0  -0.337168  -0.558264  0  2.313301  0
O  O225  1  0.22205909  0.38787479  0.98720527  1  -1.1654  0  -0.337182  -0.558292  0  2.313326  0
O  O226  1  0.22206148  0.88786976  0.51279482  1  -1.165458  0  -0.337091  -0.558214  0  2.313303  0
O  O227  1  0.77794223  0.61212633  0.01279444  1  -1.165541  0  -0.337175  -0.558264  0  2.313334  0
O  O228  1  0.86343452  0.31452798  0.49722102  1  -1.176843  0  -0.315685  -0.544546  0  2.148939  0
O  O229  1  0.13657012  0.18547357  0.99722061  1  -1.177249  0  -0.315703  -0.544594  0  2.149016  0
O  O230  1  0.13656675  0.68546582  0.50277836  1  -1.176498  0  -0.315728  -0.544576  0  2.14894  0
O  O231  1  0.86343210  0.81452662  0.00277812  1  -1.177274  0  -0.315681  -0.544544  0  2.149014  0
