# generated using pymatgen
data_ZnH16C16(NO2)2
_symmetry_space_group_name_H-M   'P 1'
_cell_length_a   7.77958982
_cell_length_b   7.83835093
_cell_length_c   12.85003874
_cell_angle_alpha   90.08036576
_cell_angle_beta   81.21091883
_cell_angle_gamma   89.52979910
_symmetry_Int_Tables_number   1
_chemical_formula_structural   ZnH16C16(NO2)2
_chemical_formula_sum   'Zn2 H32 C32 N4 O8'
_cell_volume   774.35440317
_cell_formula_units_Z   2
loop_
 _symmetry_equiv_pos_site_id
 _symmetry_equiv_pos_as_xyz
  1  'x, y, z'
loop_
 _atom_site_type_symbol
 _atom_site_label
 _atom_site_symmetry_multiplicity
 _atom_site_fract_x
 _atom_site_fract_y
 _atom_site_fract_z
 _atom_site_occupancy
 _atom_site_hle17_bader_spin_density
 _atom_site_hle17_ddec_charge
 _atom_site_hle17_ddec_spin_density
 _atom_site_hle17_ddec_sum_bond_order
 _atom_site_hle17_magmom
 _atom_site_hse06_10hf_bader_spin_density
 _atom_site_hse06_10hf_ddec_charge
 _atom_site_hse06_10hf_ddec_spin_density
 _atom_site_hse06_10hf_ddec_sum_bond_order
 _atom_site_hse06_10hf_magmom
 _atom_site_hse06_bader_spin_density
 _atom_site_hse06_ddec_charge
 _atom_site_hse06_ddec_spin_density
 _atom_site_hse06_ddec_sum_bond_order
 _atom_site_hse06_magmom
 _atom_site_pbe_bader_spin_density
 _atom_site_pbe_cm5_charge
 _atom_site_pbe_ddec_charge
 _atom_site_pbe_ddec_spin_density
 _atom_site_pbe_ddec_sum_bond_order
 _atom_site_pbe_magmom
Zn  Zn0  1  0.30901782  0.07199460  0.32804086  1  0  0.962365  0  1.848161  0  0  0.777586  0  2.296881  0  0  0.827612  0  2.246036  0  0  0.685779  0.742808  0  2.331355  0
Zn  Zn1  1  0.69097998  0.92800646  0.67195918  1  0  0.96238  0  1.848136  0  0  0.77762  0  2.296869  0  0  0.827645  0  2.246024  0  0  0.685782  0.742841  0  2.331348  0
H  H2  1  0.68352953  0.05738377  0.35500778  1  0  0.101829  0  0.941292  0  0  0.105867  0  1.014647  0  0  0.109986  0  1.009637  0  0  0.12499  0.102821  0  1.018341  0
H  H3  1  0.31646951  0.94262240  0.64499292  1  0  0.101895  0  0.94129  0  0  0.105928  0  1.014644  0  0  0.110048  0  1.009631  0  0  0.12501  0.102889  0  1.018332  0
H  H4  1  0.98695709  0.18497743  0.05679986  1  0  0.110259  0  0.927321  0  0  0.122801  0  0.984772  0  0  0.126483  0  0.981646  0  0  0.113355  0.120091  0  0.98708  0
H  H5  1  0.01303807  0.81502746  0.94320042  1  0  0.110216  0  0.927332  0  0  0.122763  0  0.98479  0  0  0.126445  0  0.981664  0  0  0.113355  0.120052  0  0.987097  0
H  H6  1  0.42444126  0.17147455  0.10442664  1  0  0.101129  0  0.946301  0  0  0.109276  0  1.010666  0  0  0.112508  0  1.007612  0  0  0.122246  0.106914  0  1.012838  0
H  H7  1  0.57555658  0.82852141  0.89557340  1  0  0.101057  0  0.946338  0  0  0.109218  0  1.010696  0  0  0.112449  0  1.007642  0  0  0.122221  0.106859  0  1.012872  0
H  H8  1  0.57549051  0.22011460  0.92954289  1  0  0.079121  0  0.923293  0  0  0.098021  0  0.978943  0  0  0.099026  0  0.978926  0  0  0.095934  0.097221  0  0.979085  0
H  H9  1  0.42450992  0.77988263  0.07045612  1  0  0.079123  0  0.923288  0  0  0.098015  0  0.978947  0  0  0.099025  0  0.978933  0  0  0.095938  0.097215  0  0.979094  0
H  H10  1  0.79547344  0.16397345  0.89776508  1  0  0.089914  0  0.927348  0  0  0.107878  0  0.983823  0  0  0.108471  0  0.984413  0  0  0.097011  0.107363  0  0.983518  0
H  H11  1  0.20452568  0.83602507  0.10223640  1  0  0.089957  0  0.927349  0  0  0.107925  0  0.983811  0  0  0.108526  0  0.984404  0  0  0.097041  0.107412  0  0.983508  0
H  H12  1  0.74870240  0.46702825  0.85340371  1  0  0.105979  0  0.967747  0  0  0.125398  0  1.033456  0  0  0.12729  0  1.032624  0  0  0.088189  0.123982  0  1.034107  0
H  H13  1  0.25129673  0.53296899  0.14659621  1  0  0.105974  0  0.967754  0  0  0.125397  0  1.033457  0  0  0.127289  0  1.032624  0  0  0.088189  0.123979  0  1.03411  0
H  H14  1  0.88171134  0.45736897  0.95401828  1  0  0.08166  0  0.969494  0  0  0.102165  0  1.036261  0  0  0.10304  0  1.036793  0  0  0.081199  0.101484  0  1.035933  0
H  H15  1  0.11828645  0.54263209  0.04598176  1  0  0.081653  0  0.9695  0  0  0.102155  0  1.036276  0  0  0.103027  0  1.036812  0  0  0.081196  0.10147  0  1.035949  0
H  H16  1  0.65882313  0.51406621  0.98667364  1  0  0.086077  0  0.962532  0  0  0.109313  0  1.022675  0  0  0.109944  0  1.023886  0  0  0.08263  0.108779  0  1.021895  0
H  H17  1  0.34117338  0.48593230  0.01332652  1  0  0.086075  0  0.962528  0  0  0.109306  0  1.022683  0  0  0.109944  0  1.023887  0  0  0.082627  0.108776  0  1.021897  0
H  H18  1  0.36974844  0.44522040  0.29519718  1  0  0.080914  0  0.950407  0  0  0.08763  0  1.022157  0  0  0.090727  0  1.018809  0  0  0.118037  0.085388  0  1.024563  0
H  H19  1  0.63025716  0.55478067  0.70480291  1  0  0.08091  0  0.950426  0  0  0.087629  0  1.022159  0  0  0.090725  0  1.018813  0  0  0.118061  0.085367  0  1.024588  0
H  H20  1  0.18891098  0.69596441  0.58871678  1  0  0.106498  0  0.965931  0  0  0.114241  0  1.035815  0  0  0.116989  0  1.033795  0  0  0.107983  0.11216  0  1.037319  0
H  H21  1  0.81109724  0.30403539  0.41128462  1  0  0.106483  0  0.965937  0  0  0.114253  0  1.035785  0  0  0.116995  0  1.033771  0  0  0.107959  0.112171  0  1.03729  0
H  H22  1  0.17413075  0.14771434  0.55301836  1  0  0.108389  0  0.954932  0  0  0.114973  0  1.02121  0  0  0.118663  0  1.017231  0  0  0.122198  0.112298  0  1.024033  0
H  H23  1  0.82587095  0.85228544  0.44697975  1  0  0.108387  0  0.954954  0  0  0.114967  0  1.02121  0  0  0.118656  0  1.017233  0  0  0.122195  0.112291  0  1.02404  0
H  H24  1  0.02074473  0.28433397  0.71276413  1  0  0.087905  0  0.94157  0  0  0.104412  0  1.000407  0  0  0.10523  0  1.001319  0  0  0.095797  0.103735  0  0.999829  0
H  H25  1  0.97925828  0.71566583  0.28723464  1  0  0.08791  0  0.941559  0  0  0.104404  0  1.000401  0  0  0.10522  0  1.001314  0  0  0.095788  0.103724  0  0.999826  0
H  H26  1  0.01485336  0.50812503  0.72784976  1  0  0.073242  0  0.93619  0  0  0.091089  0  0.996835  0  0  0.091395  0  0.997853  0  0  0.091189  0.09078  0  0.996213  0
H  H27  1  0.98514966  0.49187349  0.27214901  1  0  0.073246  0  0.936209  0  0  0.091097  0  0.996826  0  0  0.091405  0  0.997841  0  0  0.091185  0.090788  0  0.996204  0
H  H28  1  0.18387393  0.36994371  0.85716165  1  0  0.08686  0  0.961043  0  0  0.109209  0  1.022073  0  0  0.109915  0  1.022891  0  0  0.082225  0.108619  0  1.021574  0
H  H29  1  0.81612518  0.63005608  0.14283904  1  0  0.086826  0  0.961087  0  0  0.10915  0  1.022158  0  0  0.109852  0  1.022979  0  0  0.08217  0.108558  0  1.021662  0
H  H30  1  0.31944008  0.50564528  0.77034204  1  0  0.083824  0  0.971601  0  0  0.103156  0  1.038606  0  0  0.103197  0  1.041178  0  0  0.078297  0.103048  0  1.036875  0
H  H31  1  0.68056033  0.49435452  0.22965931  1  0  0.083838  0  0.971618  0  0  0.103178  0  1.038608  0  0  0.103217  0  1.041183  0  0  0.078292  0.103071  0  1.036876  0
H  H32  1  0.33367742  0.28182128  0.75196666  1  0  0.099321  0  0.967568  0  0  0.118726  0  1.030493  0  0  0.119605  0  1.031833  0  0  0.082421  0.118052  0  1.02955  0
H  H33  1  0.66632432  0.71817596  0.24803456  1  0  0.099365  0  0.967589  0  0  0.118787  0  1.03048  0  0  0.119667  0  1.03182  0  0  0.082449  0.118109  0  1.029544  0
C  C34  1  0.69344912  0.09231047  0.27204348  1  0  0.110299  0  3.660258  0  0  0.064834  0  3.915459  0  0  0.073668  0  3.931105  0  0  0.054302  0.059088  0  3.905158  0
C  C35  1  0.30654867  0.90769187  0.72795733  1  0  0.11025  0  3.660331  0  0  0.064793  0  3.915526  0  0  0.073626  0  3.931172  0  0  0.054297  0.05903  0  3.905241  0
C  C36  1  0.85528708  0.11693812  0.21010344  1  0  -0.094763  0  3.760073  0  0  -0.067502  0  3.994865  0  0  -0.079398  0  4.018065  0  0  -0.007553  -0.060155  0  3.979543  0
C  C37  1  0.14471072  0.88306167  0.78989660  1  0  -0.094828  0  3.760006  0  0  -0.067546  0  3.994811  0  0  -0.079443  0  4.018012  0  0  -0.007541  -0.060201  0  3.979489  0
C  C38  1  0.86057502  0.16451238  0.10497931  1  0  -0.061541  0  3.650449  0  0  -0.097702  0  3.892256  0  0  -0.093164  0  3.909236  0  0  -0.057844  -0.100272  0  3.880766  0
C  C39  1  0.13942276  0.83548996  0.89502073  1  0  -0.061452  0  3.650384  0  0  -0.097639  0  3.89219  0  0  -0.093101  0  3.909169  0  0  -0.057849  -0.100205  0  3.880697  0
C  C40  1  0.70585218  0.18608635  0.06323389  1  0  0.057261  0  3.738471  0  0  0.082237  0  3.980619  0  0  0.077065  0  4.006258  0  0  0.004142  0.085237  0  3.963454  0
C  C41  1  0.29414433  0.81391344  0.93676705  1  0  0.057145  0  3.738534  0  0  0.082152  0  3.980657  0  0  0.076988  0  4.006302  0  0  0.004085  0.085151  0  3.963493  0
C  C42  1  0.55040193  0.15781702  0.13102502  1  0  0.069206  0  3.64369  0  0  0.028285  0  3.893624  0  0  0.035659  0  3.909736  0  0  0.049058  0.023652  0  3.882677  0
C  C43  1  0.44959589  0.84218021  0.86897424  1  0  0.069307  0  3.643676  0  0  0.028391  0  3.893563  0  0  0.035765  0  3.909675  0  0  0.049093  0.023752  0  3.882617  0
C  C44  1  0.01720103  0.09503966  0.25852904  1  0  0.612098  0  3.963672  0  0  0.563753  0  4.254395  0  0  0.597865  0  4.248431  0  0  0.191714  0.540794  0  4.257607  0
C  C45  1  0.98279677  0.90496013  0.74147022  1  0  0.612291  0  3.963389  0  0  0.563918  0  4.254155  0  0  0.598031  0  4.24819  0  0  0.191808  0.540973  0  4.257354  0
C  C46  1  0.70429661  0.24281415  0.95177500  1  0  -0.108302  0  3.72428  0  0  -0.147782  0  3.97759  0  0  -0.147976  0  3.991757  0  0  -0.160008  -0.147436  0  3.967856  0
C  C47  1  0.29570249  0.75718564  0.04822570  1  0  -0.108337  0  3.724318  0  0  -0.147815  0  3.977608  0  0  -0.14804  0  3.991816  0  0  -0.160039  -0.147468  0  3.967879  0
C  C48  1  0.75086842  0.43162913  0.93564774  1  0  -0.276289  0  3.697329  0  0  -0.35082  0  3.938742  0  0  -0.353452  0  3.949617  0  0  -0.2435  -0.348681  0  3.931247  0
C  C49  1  0.24912810  0.56836938  0.06435242  1  0  -0.276277  0  3.697328  0  0  -0.350808  0  3.938742  0  0  -0.353434  0  3.94962  0  0  -0.243493  -0.348667  0  3.931247  0
C  C50  1  0.31726473  0.44063315  0.37877451  1  0  0.109141  0  3.693413  0  0  0.063014  0  3.948058  0  0  0.071546  0  3.965707  0  0  0.050149  0.057065  0  3.937073  0
C  C51  1  0.68273957  0.55936792  0.62122492  1  0  0.109158  0  3.693398  0  0  0.063033  0  3.94805  0  0  0.071568  0  3.965697  0  0  0.050145  0.057096  0  3.937066  0
C  C52  1  0.28763084  0.59069107  0.43725036  1  0  -0.091332  0  3.762967  0  0  -0.063852  0  3.997215  0  0  -0.076044  0  4.020683  0  0  -0.009874  -0.056178  0  3.981432  0
C  C53  1  0.71237606  0.40931001  0.56275116  1  0  -0.091239  0  3.762937  0  0  -0.063762  0  3.997169  0  0  -0.07596  0  4.020641  0  0  -0.009833  -0.056085  0  3.981376  0
C  C54  1  0.21751732  0.57848551  0.54370090  1  0  -0.060988  0  3.644403  0  0  -0.099281  0  3.889803  0  0  -0.094688  0  3.907958  0  0  -0.05978  -0.101693  0  3.877196  0
C  C55  1  0.78249093  0.42151175  0.45630049  1  0  -0.061106  0  3.644323  0  0  -0.0994  0  3.889739  0  0  -0.094801  0  3.907899  0  0  -0.059833  -0.101812  0  3.877131  0
C  C56  1  0.17709755  0.41885549  0.58911082  1  0  0.058017  0  3.712713  0  0  0.083632  0  3.954277  0  0  0.078326  0  3.979243  0  0  0.001653  0.086814  0  3.937326  0
C  C57  1  0.82291065  0.58114559  0.41088902  1  0  0.058146  0  3.712702  0  0  0.083666  0  3.95432  0  0  0.07836  0  3.979283  0  0  0.001627  0.086841  0  3.93738  0
C  C58  1  0.20963670  0.27546910  0.52386780  1  0  0.093851  0  3.598587  0  0  0.053832  0  3.843131  0  0  0.061447  0  3.859331  0  0  0.055734  0.048524  0  3.832989  0
C  C59  1  0.79037021  0.72453071  0.47613217  1  0  0.09381  0  3.598697  0  0  0.053881  0  3.843165  0  0  0.061494  0  3.859372  0  0  0.055789  0.048585  0  3.833013  0
C  C60  1  0.31805375  0.75919710  0.38342884  1  0  0.624956  0  3.942272  0  0  0.578024  0  4.22756  0  0  0.612564  0  4.221385  0  0  0.196604  0.554784  0  4.230822  0
C  C61  1  0.68194925  0.24080398  0.61657304  1  0  0.624853  0  3.942333  0  0  0.577951  0  4.227581  0  0  0.612493  0  4.221409  0  0  0.196574  0.554716  0  4.230831  0
C  C62  1  0.10165569  0.39909944  0.70343777  1  0  -0.116615  0  3.723094  0  0  -0.155335  0  3.972911  0  0  -0.15614  0  3.988344  0  0  -0.16355  -0.154454  0  3.962204  0
C  C63  1  0.89834864  0.60089908  0.29656243  1  0  -0.116596  0  3.723166  0  0  -0.155257  0  3.972922  0  0  -0.156058  0  3.98835  0  0  -0.163467  -0.154373  0  3.962213  0
C  C64  1  0.24273191  0.38806582  0.77462976  1  0  -0.276607  0  3.701583  0  0  -0.345058  0  3.937879  0  0  -0.348307  0  3.950873  0  0  -0.245575  -0.342509  0  3.928859  0
C  C65  1  0.75726850  0.61193398  0.22537081  1  0  -0.276652  0  3.701741  0  0  -0.345125  0  3.93801  0  0  -0.348368  0  3.951008  0  0  -0.245565  -0.342567  0  3.928989  0
N  N66  1  0.54446976  0.11274343  0.23276407  1  0  -0.310468  0  3.340727  0  0  -0.227375  0  3.620507  0  0  -0.246428  0  3.635415  0  0  -0.324808  -0.214618  0  3.610131  0
N  N67  1  0.45552674  0.88725764  0.76723687  1  0  -0.310448  0  3.340726  0  0  -0.227381  0  3.620542  0  0  -0.246432  0  3.63545  0  0  -0.324779  -0.214616  0  3.61016  0
N  N68  1  0.27939369  0.28686268  0.42146428  1  0  -0.317666  0  3.342242  0  0  -0.232694  0  3.61998  0  0  -0.252896  0  3.636226  0  0  -0.33044  -0.218951  0  3.608469  0
N  N69  1  0.72061061  0.71313840  0.57853593  1  0  -0.317706  0  3.342298  0  0  -0.232774  0  3.620046  0  0  -0.252977  0  3.636289  0  0  -0.330488  -0.219034  0  3.608539  0
O  O70  1  0.16310851  0.13721618  0.20434921  1  0  -0.636829  0  1.979351  0  0  -0.577123  0  2.230338  0  0  -0.604921  0  2.218961  0  0  -0.327943  -0.557686  0  2.237352  0
O  O71  1  0.83689063  0.86277978  0.79564915  1  0  -0.636902  0  1.979359  0  0  -0.577207  0  2.230386  0  0  -0.605001  0  2.218996  0  0  -0.328046  -0.557777  0  2.237399  0
O  O72  1  0.00518399  0.03778317  0.35124470  1  0  -0.594279  0  1.953655  0  0  -0.537828  0  2.185179  0  0  -0.5635  0  2.176675  0  0  -0.302136  -0.5199  0  2.190322  0
O  O73  1  0.99481248  0.96221916  0.64875391  1  0  -0.594344  0  1.953443  0  0  -0.537875  0  2.184971  0  0  -0.563546  0  2.176468  0  0  -0.302137  -0.519952  0  2.190115  0
O  O74  1  0.32313615  0.76702352  0.28492465  1  0  -0.619009  0  1.936624  0  0  -0.568539  0  2.17316  0  0  -0.594292  0  2.165819  0  0  -0.315189  -0.550487  0  2.177452  0
O  O75  1  0.67686426  0.23297627  0.71507592  1  0  -0.618916  0  1.936651  0  0  -0.56846  0  2.173183  0  0  -0.594215  0  2.165842  0  0  -0.315139  -0.550409  0  2.177461  0
O  O76  1  0.33158874  0.89152611  0.44106279  1  0  -0.615436  0  1.97498  0  0  -0.548476  0  2.226243  0  0  -0.577037  0  2.21415  0  0  -0.324642  -0.528495  0  2.233625  0
O  O77  1  0.66840905  0.10847495  0.55893725  1  0  -0.615443  0  1.974908  0  0  -0.548514  0  2.226192  0  0  -0.577062  0  2.214071  0  0  -0.324667  -0.528536  0  2.233574  0
