# generated using pymatgen
data_Mg2H13C24BrO6
_symmetry_space_group_name_H-M   'P 1'
_cell_length_a   6.84141238
_cell_length_b   34.40681675
_cell_length_c   34.40075878
_cell_angle_alpha   119.56381789
_cell_angle_beta   93.79631515
_cell_angle_gamma   93.80111873
_symmetry_Int_Tables_number   1
_chemical_formula_structural   Mg2H13C24BrO6
_chemical_formula_sum   'Mg6 H39 C72 Br3 O18'
_cell_volume   6982.08760977
_cell_formula_units_Z   3
loop_
 _symmetry_equiv_pos_site_id
 _symmetry_equiv_pos_as_xyz
  1  'x, y, z'
loop_
 _atom_site_type_symbol
 _atom_site_label
 _atom_site_symmetry_multiplicity
 _atom_site_fract_x
 _atom_site_fract_y
 _atom_site_fract_z
 _atom_site_occupancy
 _atom_site_pbe_bader_charge
 _atom_site_pbe_bader_spin_density
 _atom_site_pbe_cm5_charge
 _atom_site_pbe_ddec_charge
 _atom_site_pbe_ddec_spin_density
 _atom_site_pbe_ddec_sum_bond_order
 _atom_site_pbe_magmom
Mg  Mg0  1  0.17734503  0.67005361  0.30458947  1  1.683611  0  0.90928  1.410366  0  1.328909  0
Mg  Mg1  1  0.87292739  0.69543148  0.36549327  1  1.682256  0  0.909489  1.40987  0  1.329888  0
Mg  Mg2  1  0.50729318  0.63455251  0.33001668  1  1.684316  0  0.909546  1.410741  0  1.328468  0
Mg  Mg3  1  0.69655500  0.33020672  0.69570165  1  1.683618  0  0.909337  1.410803  0  1.327147  0
Mg  Mg4  1  0.00088305  0.30423353  0.63447269  1  1.682731  0  0.909778  1.411329  0  1.327261  0
Mg  Mg5  1  0.36629492  0.36545824  0.66973729  1  1.683112  0  0.909548  1.410929  0  1.328163  0
H  H6  1  0.04739590  0.93714075  0.49976431  1  0.040588  0  0.101782  0.102453  0  0.999469  0
H  H7  1  0.54803459  0.50018179  0.43728739  1  0.079947  0  0.101879  0.102726  0  0.999163  0
H  H8  1  0.11014482  0.56263820  0.06296151  1  0.057995  0  0.10182  0.102746  0  0.999357  0
H  H9  1  0.26152180  0.00850997  0.53586557  1  0.061291  0  0.101718  0.10666  0  0.999482  0
H  H10  1  0.72588780  0.46407395  0.47257435  1  0.068098  0  0.101701  0.107003  0  0.999575  0
H  H11  1  0.25314910  0.52737915  0.99161053  1  0.079293  0  0.101867  0.106886  0  0.999147  0
H  H12  1  0.80976828  0.06771001  0.49598358  1  0.079463  0  0.100919  0.113293  0  1.008887  0
H  H13  1  0.31392105  0.50401739  0.57167927  1  0.077988  0  0.100682  0.112886  0  1.009163  0
H  H14  1  0.74179046  0.42838603  0.93230962  1  0.071685  0  0.100809  0.11268  0  1.009577  0
H  H15  1  0.08590772  0.11487021  0.54112675  1  0.039968  0  0.097604  0.098211  0  1.012733  0
H  H16  1  0.54500814  0.45884244  0.57370434  1  0.019994  0  0.097717  0.0982  0  1.013107  0
H  H17  1  0.97073550  0.42636612  0.88513799  1  0.03296  0  0.098017  0.098601  0  1.01244  0
H  H18  1  0.44529720  0.07140112  0.55406844  1  0.050677  0  0.096376  0.094952  0  1.018179  0
H  H19  1  0.89157900  0.44594880  0.51733847  1  0.043591  0  0.096594  0.095364  0  1.017127  0
H  H20  1  0.37385127  0.48262316  0.92859907  1  0.05804  0  0.096263  0.095056  0  1.016908  0
H  H21  1  0.21966623  0.17941857  0.58045173  1  0.095983  0  0.1043  0.10571  0  1.028152  0
H  H22  1  0.63931396  0.41945558  0.59886654  1  0.09294  0  0.10447  0.106409  0  1.027469  0
H  H23  1  0.04020966  0.40102293  0.82058101  1  0.112779  0  0.104086  0.10599  0  1.027654  0
H  H24  1  0.93763071  0.19591718  0.62469235  1  0.092934  0  0.106081  0.123276  0  1.001994  0
H  H25  1  0.31325254  0.37532369  0.57131774  1  0.093304  0  0.105983  0.123661  0  1.002364  0
H  H26  1  0.74157300  0.42876210  0.80400154  1  0.085118  0  0.105803  0.12261  0  1.002298  0
H  H27  1  0.75039617  0.11984226  0.58429356  1  0.070735  0  0.101966  0.101874  0  1.002715  0
H  H28  1  0.16675454  0.41575526  0.53562792  1  0.06214  0  0.102095  0.102365  0  1.002865  0
H  H29  1  0.63069489  0.46443873  0.88012331  1  0.085246  0  0.102113  0.102559  0  1.001931  0
H  H30  1  0.78880923  0.88978103  0.45419540  1  0.034389  0  0.096122  0.093825  0  1.020893  0
H  H31  1  0.33492711  0.54585917  0.43550979  1  0.027029  0  0.095798  0.093294  0  1.020792  0
H  H32  1  0.89851200  0.56445150  0.11033338  1  0.022814  0  0.095646  0.09305  0  1.021184  0
H  H33  1  0.40138584  0.92825809  0.44948008  1  0.066447  0  0.082364  0.083026  0  1.083979  0
H  H34  1  0.95242947  0.55049407  0.47878096  1  0.06811  0  0.082406  0.083481  0  1.083513  0
H  H35  1  0.47264656  0.52125989  0.07174756  1  0.075736  0  0.082492  0.083187  0  1.083966  0
H  H36  1  0.65210513  0.82187237  0.42177270  1  0.084527  0  0.104192  0.106742  0  1.0217  0
H  H37  1  0.22987794  0.57812079  0.39998489  1  0.096839  0  0.104198  0.10719  0  1.021496  0
H  H38  1  0.82958653  0.59996247  0.17811346  1  0.07124  0  0.104327  0.107401  0  1.02063  0
H  H39  1  0.93201455  0.80285898  0.37744521  1  0.087364  0  0.10629  0.123281  0  1.003731  0
H  H40  1  0.55446187  0.62264576  0.42553523  1  0.082123  0  0.106104  0.123255  0  1.00357  0
H  H41  1  0.12865181  0.57453636  0.19724279  1  0.091703  0  0.106298  0.123408  0  1.003347  0
H  H42  1  0.11470594  0.87951247  0.41846241  1  0.057574  0  0.102165  0.100626  0  1.006872  0
H  H43  1  0.69626714  0.58163909  0.46118019  1  0.065116  0  0.102295  0.100637  0  1.007047  0
H  H44  1  0.23459609  0.53887048  0.12053621  1  0.081877  0  0.102168  0.100589  0  1.006476  0
C  C45  1  0.74306018  0.99841007  0.47654560  1  -0.156299  0  -0.016534  0.06847  0  3.914591  0
C  C46  1  0.26701345  0.52346466  0.52180693  1  -0.156682  0  -0.015885  0.068952  0  3.91441  0
C  C47  1  0.74451592  0.47820350  0.00163268  1  -0.15971  0  -0.016755  0.068123  0  3.915144  0
C  C48  1  0.80262750  0.96000737  0.47708683  1  0.058687  0  -0.02039  0.058828  0  4.031006  0
C  C49  1  0.32609559  0.52293737  0.48286359  1  0.079658  0  -0.020178  0.059262  0  4.028779  0
C  C50  1  0.84236147  0.51713504  0.04006384  1  0.084622  0  -0.020143  0.059356  0  4.030336  0
C  C51  1  0.99524045  0.96606021  0.49891284  1  -0.100951  0  -0.091124  -0.123347  0  3.995883  0
C  C52  1  0.49676826  0.50107222  0.46708074  1  -0.127246  0  -0.091576  -0.124227  0  3.994972  0
C  C53  1  0.02900685  0.53289556  0.03403168  1  -0.107384  0  -0.09163  -0.124544  0  3.995236  0
C  C54  1  0.11626996  0.00634315  0.51941881  1  0.031868  0  -0.096966  -0.137378  0  4.007008  0
C  C55  1  0.59714945  0.48054885  0.48687168  1  0.017521  0  -0.096995  -0.137662  0  4.006332  0
C  C56  1  0.10994588  0.51311568  0.99375019  1  0.00539  0  -0.097113  -0.137298  0  4.00456  0
C  C57  1  0.05189259  0.04441730  0.51935979  1  -0.014886  0  -0.016508  0.12247  0  4.0677  0
C  C58  1  0.53289916  0.48064461  0.52503736  1  -0.008706  0  -0.01618  0.122639  0  4.067206  0
C  C59  1  0.00742077  0.47501491  0.95563405  1  0.011198  0  -0.016417  0.122376  0  4.066711  0
C  C60  1  0.86269536  0.03920489  0.49744253  1  -0.020393  0  -0.102765  -0.201378  0  3.992386  0
C  C61  1  0.36559544  0.50256326  0.54172828  1  0.014363  0  -0.103001  -0.201066  0  3.992995  0
C  C62  1  0.82333884  0.45833045  0.96082148  1  0.008706  0  -0.102784  -0.200547  0  3.993007  0
C  C63  1  0.16732782  0.08809764  0.54003337  1  0.05356  0  -0.100572  -0.145643  0  4.015963  0
C  C64  1  0.62761851  0.45994819  0.54803932  1  0.018499  0  -0.100836  -0.145926  0  4.015823  0
C  C65  1  0.07904992  0.45199496  0.91191491  1  0.006602  0  -0.10115  -0.1466  0  4.015921  0
C  C66  1  0.36007334  0.09829788  0.55687838  1  -0.111573  0  -0.094654  -0.127902  0  4.013694  0
C  C67  1  0.80354366  0.44311224  0.54141565  1  -0.088365  0  -0.09498  -0.128594  0  4.012618  0
C  C68  1  0.26165723  0.45857277  0.90169824  1  -0.094578  0  -0.094272  -0.127339  0  4.01184  0
C  C69  1  0.46853625  0.14307711  0.57906461  1  -0.016498  0  -0.025504  0.079374  0  4.077347  0
C  C70  1  0.88987990  0.42091445  0.56400885  1  -0.019517  0  -0.025436  0.079644  0  4.075788  0
C  C71  1  0.32544334  0.43598162  0.85690754  1  -0.026655  0  -0.025014  0.080334  0  4.075577  0
C  C72  1  0.37716847  0.18174444  0.58964496  1  -0.015968  0  -0.079752  -0.104046  0  3.937825  0
C  C73  1  0.78770957  0.41028233  0.59204019  1  -0.023087  0  -0.079546  -0.104182  0  3.93682  0
C  C74  1  0.19537254  0.40789381  0.81823950  1  -0.059048  0  -0.079883  -0.105031  0  3.937154  0
C  C75  1  0.47919324  0.22507382  0.61298891  1  -0.034211  0  -0.040019  -0.203538  0  3.975862  0
C  C76  1  0.86619704  0.38690663  0.61201779  1  -0.017773  0  -0.040504  -0.204784  0  3.976263  0
C  C77  1  0.25400575  0.38791501  0.77489478  1  -0.019806  0  -0.039831  -0.203709  0  3.974769  0
C  C78  1  0.68685071  0.23092512  0.62664449  1  0.563676  0  0.094129  0.365263  0  4.077279  0
C  C79  1  0.06017867  0.37326137  0.60423413  1  0.573275  0  0.094599  0.367379  0  4.076112  0
C  C80  1  0.45576389  0.39572392  0.76903481  1  0.650081  0  0.094621  0.366512  0  4.076575  0
C  C81  1  0.77959692  0.19169907  0.61468807  1  -0.028566  0  -0.108914  -0.218127  0  3.985875  0
C  C82  1  0.16513187  0.38527584  0.57703266  1  -0.029677  0  -0.108555  -0.218959  0  3.988509  0
C  C83  1  0.58781041  0.42298908  0.80825583  1  -0.075528  0  -0.108429  -0.216507  0  3.986035  0
C  C84  1  0.67383310  0.14929196  0.59205797  1  -0.058401  0  -0.080896  -0.091154  0  3.973059  0
C  C85  1  0.08228618  0.40795199  0.55727239  1  -0.062326  0  -0.081195  -0.091486  0  3.974266  0
C  C86  1  0.52458074  0.44275059  0.85068878  1  -0.101776  0  -0.08148  -0.092917  0  3.973371  0
C  C87  1  0.36302460  0.26299727  0.62318033  1  1.513297  0  0.239466  0.680661  0  4.118235  0
C  C88  1  0.73979179  0.37672324  0.63973931  1  1.510205  0  0.239459  0.680094  0  4.117381  0
C  C89  1  0.09997278  0.36016702  0.73696326  1  1.518095  0  0.239155  0.679897  0  4.117134  0
C  C90  1  0.69448291  0.91551750  0.45756176  1  -0.019795  0  -0.105279  -0.139931  0  4.024137  0
C  C91  1  0.23732077  0.54246796  0.45789105  1  -0.065364  0  -0.105079  -0.139369  0  4.022253  0
C  C92  1  0.77846847  0.54209428  0.08455857  1  -0.059425  0  -0.104593  -0.139272  0  4.021771  0
C  C93  1  0.49861875  0.90277715  0.44463780  1  -0.051606  0  -0.101433  -0.129983  0  4.017687  0
C  C94  1  0.05425186  0.55535077  0.45810306  1  -0.023969  0  -0.101582  -0.130815  0  4.017048  0
C  C95  1  0.59521687  0.54191526  0.09725318  1  -0.043316  0  -0.101705  -0.129981  0  4.017403  0
C  C96  1  0.39906817  0.85719073  0.42321189  1  0.011479  0  -0.025761  0.082438  0  4.067894  0
C  C97  1  0.97570944  0.57678696  0.43398622  1  0.051566  0  -0.025918  0.082608  0  4.066614  0
C  C98  1  0.54114715  0.56604983  0.14283372  1  0.073424  0  -0.025993  0.081328  0  4.068225  0
C  C99  1  0.49427512  0.81889972  0.41229612  1  0.055542  0  -0.078585  -0.102847  0  3.92884  0
C  C100  1  0.08158877  0.58764684  0.40654371  1  -0.06023  0  -0.078524  -0.1033  0  3.928795  0
C  C101  1  0.67473947  0.59342526  0.18110720  1  0.022006  0  -0.07859  -0.102737  0  3.928464  0
C  C102  1  0.39474507  0.77521212  0.38836969  1  -0.104398  0  -0.039902  -0.205572  0  3.969882  0
C  C103  1  0.00594863  0.61156066  0.38677969  1  -0.065006  0  -0.03981  -0.204476  0  3.969049  0
C  C104  1  0.61908705  0.61320495  0.22481191  1  -0.087291  0  -0.040149  -0.205619  0  3.969866  0
C  C105  1  0.18682258  0.76887213  0.37470639  1  0.585967  0  0.095447  0.369285  0  4.073658  0
C  C106  1  0.81184189  0.62528898  0.39417740  1  0.588529  0  0.095851  0.369094  0  4.073952  0
C  C107  1  0.41754332  0.60586054  0.23117803  1  0.608557  0  0.09589  0.369537  0  4.073881  0
C  C108  1  0.09028788  0.80768622  0.38740689  1  -0.027334  0  -0.10896  -0.218649  0  3.992176  0
C  C109  1  0.70270410  0.61263882  0.42035097  1  -0.0479  0  -0.108863  -0.218763  0  3.991643  0
C  C110  1  0.28206493  0.57970361  0.19238470  1  -0.019302  0  -0.109163  -0.219109  0  3.991322  0
C  C111  1  0.19318955  0.85029382  0.41052109  1  -0.078839  0  -0.080342  -0.089576  0  3.975004  0
C  C112  1  0.78259354  0.58954057  0.43985841  1  -0.040221  0  -0.08056  -0.089902  0  3.974597  0
C  C113  1  0.34222677  0.56020176  0.14975596  1  -0.161508  0  -0.080196  -0.088821  0  3.97362  0
C  C114  1  0.51203072  0.73729806  0.37765260  1  1.517906  0  0.238437  0.678759  0  4.119866  0
C  C115  1  0.13400779  0.62229834  0.35960845  1  1.507658  0  0.238506  0.677826  0  4.119672  0
C  C116  1  0.77445933  0.64035932  0.26271615  1  1.496363  0  0.238584  0.678737  0  4.118587  0
Br  Br117  1  0.50032356  0.99829021  0.44529062  1  -0.07781  0  0.037131  -0.061744  0  1.451764  0
Br  Br118  1  0.05573713  0.55477310  0.55298872  1  -0.078183  0  0.036984  -0.062063  0  1.452204  0
Br  Br119  1  0.50228834  0.44695834  0.00176565  1  -0.075945  0  0.037061  -0.061876  0  1.451266  0
O  O120  1  0.69245152  0.74397658  0.39337305  1  -1.242605  0  -0.354521  -0.642828  0  2.146968  0
O  O121  1  0.29871423  0.60657591  0.35055450  1  -1.241301  0  -0.354829  -0.643085  0  2.145793  0
O  O122  1  0.94825034  0.64936932  0.25603433  1  -1.234315  0  -0.354895  -0.643348  0  2.145527  0
O  O123  1  0.42679516  0.69689622  0.35101330  1  -1.300372  0  -0.400279  -0.766161  0  2.412198  0
O  O124  1  0.07561286  0.64898945  0.34588481  1  -1.289682  0  -0.400462  -0.765987  0  2.412359  0
O  O125  1  0.72976835  0.65412188  0.30314392  1  -1.29214  0  -0.400124  -0.765972  0  2.411995  0
O  O126  1  0.08104673  0.72838505  0.35039568  1  -1.311229  0  -0.450544  -0.780954  0  2.320454  0
O  O127  1  0.73048953  0.64966175  0.37806406  1  -1.312479  0  -0.450323  -0.780203  0  2.319929  0
O  O128  1  0.35237092  0.62200843  0.27167814  1  -1.312164  0  -0.450309  -0.780801  0  2.32113  0
O  O129  1  0.18296821  0.25623566  0.60723126  1  -1.242543  0  -0.356147  -0.643625  0  2.148198  0
O  O130  1  0.57553423  0.39262561  0.64886181  1  -1.238521  0  -0.356371  -0.643423  0  2.146973  0
O  O131  1  0.92659334  0.35102950  0.74374818  1  -1.242426  0  -0.356327  -0.643678  0  2.14675  0
O  O132  1  0.44841244  0.30342196  0.64958176  1  -1.30014  0  -0.40244  -0.768132  0  2.4164  0
O  O133  1  0.79875790  0.35034864  0.65380019  1  -1.295691  0  -0.401975  -0.767509  0  2.416631  0
O  O134  1  0.14491786  0.34609840  0.69652939  1  -1.298774  0  -0.401899  -0.767261  0  2.416637  0
O  O135  1  0.79438668  0.27129546  0.65026968  1  -1.309215  0  -0.446644  -0.778037  0  2.310232  0
O  O136  1  0.14413305  0.34964570  0.62099405  1  -1.30978  0  -0.447228  -0.77951  0  2.310715  0
O  O137  1  0.52291348  0.37896928  0.72865123  1  -1.307162  0  -0.447141  -0.779635  0  2.309979  0
