# generated using pymatgen
data_NdH14C9O7
_symmetry_space_group_name_H-M   'P 1'
_cell_length_a   7.74186973
_cell_length_b   9.79736222
_cell_length_c   18.04084766
_cell_angle_alpha   79.42767769
_cell_angle_beta   77.83400373
_cell_angle_gamma   66.75285501
_symmetry_Int_Tables_number   1
_chemical_formula_structural   NdH14C9O7
_chemical_formula_sum   'Nd4 H56 C36 O28'
_cell_volume   1221.37329869
_cell_formula_units_Z   4
loop_
 _symmetry_equiv_pos_site_id
 _symmetry_equiv_pos_as_xyz
  1  'x, y, z'
loop_
 _atom_site_type_symbol
 _atom_site_label
 _atom_site_symmetry_multiplicity
 _atom_site_fract_x
 _atom_site_fract_y
 _atom_site_fract_z
 _atom_site_occupancy
 _atom_site_hle17_bader_spin_density
 _atom_site_hle17_ddec_charge
 _atom_site_hle17_ddec_spin_density
 _atom_site_hle17_ddec_sum_bond_order
 _atom_site_hle17_magmom
 _atom_site_hse06_10hf_bader_spin_density
 _atom_site_hse06_10hf_ddec_charge
 _atom_site_hse06_10hf_ddec_spin_density
 _atom_site_hse06_10hf_ddec_sum_bond_order
 _atom_site_hse06_10hf_magmom
 _atom_site_hse06_bader_spin_density
 _atom_site_hse06_ddec_charge
 _atom_site_hse06_ddec_spin_density
 _atom_site_hse06_ddec_sum_bond_order
 _atom_site_hse06_magmom
 _atom_site_pbe_bader_charge
 _atom_site_pbe_bader_spin_density
 _atom_site_pbe_cm5_charge
 _atom_site_pbe_ddec_charge
 _atom_site_pbe_ddec_spin_density
 _atom_site_pbe_ddec_sum_bond_order
 _atom_site_pbe_magmom
Nd  Nd0  1  0.21629413  0.51362550  0.53831170  1  0  2.29525  0  1.637255  0  0  2.136921  0  2.09776  0  0  2.234767  0  1.953845  0  2.236664  0  1.492959  2.102411  0  2.132985  0
Nd  Nd1  1  0.26812163  0.98631479  0.96186922  1  0  2.294964  0  1.640404  0  0  2.135788  0  2.102352  0  0  2.234326  0  1.957389  0  2.23609  0  1.49477  2.10183  0  2.137284  0
Nd  Nd2  1  0.78370737  0.48637195  0.46168774  1  0  2.295295  0  1.637194  0  0  2.136988  0  2.097662  0  0  2.234821  0  1.953774  0  2.236648  0  1.492988  2.102482  0  2.132884  0
Nd  Nd3  1  0.73187786  0.01368714  0.03813120  1  0  2.294997  0  1.640377  0  0  2.13582  0  2.102316  0  0  2.23436  0  1.957353  0  2.236117  0  1.494776  2.101861  0  2.137245  0
H  H4  1  0.00783565  0.09220934  0.58366526  1  0  0.11706  0  0.930474  0  0  0.132306  0  0.990625  0  0  0.134252  0  0.99057  0  0.073316  0  0.110953  0.130704  0  0.990986  0
H  H5  1  0.68391372  0.40780951  0.91624654  1  0  0.117417  0  0.930215  0  0  0.13283  0  0.990303  0  0  0.134746  0  0.990254  0  0.083086  0  0.110997  0.131561  0  0.990141  0
H  H6  1  0.99216770  0.90778811  0.41633499  1  0  0.117118  0  0.930386  0  0  0.132346  0  0.990579  0  0  0.134292  0  0.990526  0  0.073303  0  0.110962  0.130742  0  0.990945  0
H  H7  1  0.31608627  0.59219019  0.08375456  1  0  0.117431  0  0.930229  0  0  0.132836  0  0.99033  0  0  0.134754  0  0.990279  0  0.083013  0  0.110998  0.131567  0  0.99017  0
H  H8  1  0.84380907  0.22288219  0.64344179  1  0  0.102374  0  0.912351  0  0  0.120595  0  0.966759  0  0  0.122549  0  0.966417  0  0.033049  0  0.108113  0.11919  0  0.967027  0
H  H9  1  0.70973558  0.27743289  0.85618940  1  0  0.103871  0  0.911784  0  0  0.122108  0  0.966006  0  0  0.124084  0  0.965563  0  0.046673  0  0.108615  0.120622  0  0.966533  0
H  H10  1  0.15619068  0.77711527  0.35655808  1  0  0.102427  0  0.912326  0  0  0.120658  0  0.966737  0  0  0.122615  0  0.966393  0  0.033065  0  0.108121  0.119253  0  0.967006  0
H  H11  1  0.29026443  0.72256792  0.14381108  1  0  0.103879  0  0.911723  0  0  0.12211  0  0.965957  0  0  0.124083  0  0.965519  0  0.046668  0  0.108612  0.120625  0  0.966484  0
H  H12  1  0.04814876  0.10855365  0.74781784  1  0  0.073074  0  0.940333  0  0  0.091405  0  0.999748  0  0  0.092231  0  1.000423  0  0.042115  0  0.092055  0.090814  0  0.999139  0
H  H13  1  0.90389956  0.39152221  0.75242252  1  0  0.073276  0  0.939767  0  0  0.091639  0  0.999135  0  0  0.092468  0  0.999817  0  0.043798  0  0.092106  0.091043  0  0.998546  0
H  H14  1  0.95185290  0.89144604  0.25218160  1  0  0.073061  0  0.940355  0  0  0.091401  0  0.999761  0  0  0.092226  0  1.000435  0  0.0421  0  0.092043  0.090811  0  0.99915  0
H  H15  1  0.09609937  0.60847972  0.24757846  1  0  0.073294  0  0.939725  0  0  0.091659  0  0.999094  0  0  0.09249  0  0.999769  0  0.043761  0  0.092106  0.091034  0  0.99854  0
H  H16  1  0.21732197  0.98043034  0.68774084  1  0  0.063807  0  0.937996  0  0  0.083968  0  0.997174  0  0  0.085007  0  0.996686  0  0.031866  0  0.090699  0.083152  0  0.997588  0
H  H17  1  0.88558115  0.51936910  0.81272958  1  0  0.064142  0  0.938775  0  0  0.084288  0  0.99803  0  0  0.085301  0  0.997591  0  0.022371  0  0.091066  0.083418  0  0.998501  0
H  H18  1  0.78268018  0.01956711  0.31225928  1  0  0.063818  0  0.937977  0  0  0.083977  0  0.997161  0  0  0.085015  0  0.996672  0  0.031885  0  0.090708  0.083161  0  0.997575  0
H  H19  1  0.11441659  0.48063283  0.18727127  1  0  0.064095  0  0.938824  0  0  0.084248  0  0.998073  0  0  0.085261  0  0.997635  0  0.02238  0  0.091059  0.083382  0  0.998535  0
H  H20  1  0.80025746  0.00885685  0.73496192  1  0  0.044682  0  0.949012  0  0  0.06301  0  1.012677  0  0  0.064085  0  1.012153  0  0.009411  0  0.081923  0.062219  0  1.013014  0
H  H21  1  0.54404288  0.49173100  0.76452517  1  0  0.044605  0  0.949272  0  0  0.062545  0  1.013493  0  0  0.063543  0  1.013034  0  -0.01294  0  0.081195  0.061811  0  1.013774  0
H  H22  1  0.19974191  0.99114396  0.26503788  1  0  0.0447  0  0.949017  0  0  0.063036  0  1.012677  0  0  0.06411  0  1.012153  0  0.009419  0  0.081934  0.062246  0  1.013014  0
H  H23  1  0.45595769  0.50826981  0.23547476  1  0  0.044609  0  0.949214  0  0  0.06256  0  1.01342  0  0  0.063557  0  1.012957  0  -0.012947  0  0.081192  0.061826  0  1.013702  0
H  H24  1  0.97131761  0.88268422  0.67317675  1  0  0.08713  0  0.925402  0  0  0.106389  0  0.982278  0  0  0.10786  0  0.982423  0  0.067743  0  0.100367  0.105312  0  0.98226  0
H  H25  1  0.52764915  0.61774905  0.82648406  1  0  0.088054  0  0.92524  0  0  0.107452  0  0.981659  0  0  0.108964  0  0.981723  0  0.066531  0  0.100957  0.106306  0  0.981683  0
H  H26  1  0.02868349  0.11731548  0.32682324  1  0  0.087121  0  0.92551  0  0  0.106382  0  0.982386  0  0  0.107854  0  0.98253  0  0.067746  0  0.100364  0.105305  0  0.982368  0
H  H27  1  0.47234969  0.38225287  0.17351569  1  0  0.08808  0  0.925202  0  0  0.10748  0  0.981613  0  0  0.108986  0  0.981681  0  0.066562  0  0.100966  0.106334  0  0.981638  0
H  H28  1  0.92243013  0.75677236  0.80276879  1  0  0.101693  0  0.935907  0  0  0.11527  0  0.997835  0  0  0.117552  0  0.996459  0  0.038195  0  0.100854  0.113675  0  0.998698  0
H  H29  1  0.48281375  0.74338257  0.69659104  1  0  0.101468  0  0.936213  0  0  0.115187  0  0.997623  0  0  0.117481  0  0.996192  0  0.032715  0  0.10046  0.113551  0  0.998569  0
H  H30  1  0.07756801  0.24322734  0.19723151  1  0  0.101724  0  0.93596  0  0  0.115283  0  0.997879  0  0  0.117562  0  0.996505  0  0.038194  0  0.100847  0.113686  0  0.998742  0
H  H31  1  0.51718726  0.25661713  0.30340772  1  0  0.101452  0  0.936221  0  0  0.115171  0  0.997643  0  0  0.117467  0  0.996215  0  0.032703  0  0.100446  0.113537  0  0.998588  0
H  H32  1  0.16165760  0.74727050  0.77536004  1  0  0.109657  0  0.926892  0  0  0.126188  0  0.982498  0  0  0.12841  0  0.981434  0  0.069441  0  0.103112  0.124644  0  0.9831  0
H  H33  1  0.68451209  0.75298950  0.72486037  1  0  0.110431  0  0.927269  0  0  0.126335  0  0.983507  0  0  0.128434  0  0.982544  0  0.061636  0  0.103053  0.124863  0  0.98409  0
H  H34  1  0.83834228  0.25272807  0.22464044  1  0  0.109721  0  0.926897  0  0  0.126238  0  0.982502  0  0  0.12846  0  0.981435  0  0.069436  0  0.103106  0.124693  0  0.983106  0
H  H35  1  0.31549076  0.24701019  0.27513919  1  0  0.110438  0  0.927255  0  0  0.126373  0  0.983473  0  0  0.128476  0  0.982511  0  0.061641  0  0.103057  0.124899  0  0.98406  0
H  H36  1  0.21192557  0.01646392  0.46267661  1  0  0.11921  0  0.923043  0  0  0.132741  0  0.982184  0  0  0.135505  0  0.98058  0  0.067  0  0.107207  0.130651  0  0.983546  0
H  H37  1  0.69194752  0.48306195  0.03720499  1  0  0.119889  0  0.922754  0  0  0.133098  0  0.982233  0  0  0.135918  0  0.980608  0  0.077241  0  0.107568  0.131298  0  0.983001  0
H  H38  1  0.78807365  0.98353466  0.53732320  1  0  0.119209  0  0.923089  0  0  0.1328  0  0.98219  0  0  0.135565  0  0.980583  0  0.067063  0  0.107226  0.130709  0  0.983555  0
H  H39  1  0.30804902  0.51693997  0.96279574  1  0  0.119815  0  0.92279  0  0  0.133086  0  0.982269  0  0  0.13591  0  0.980646  0  0.077223  0  0.107571  0.131283  0  0.983034  0
H  H40  1  0.42510361  0.90934642  0.40455541  1  0  0.110828  0  0.920781  0  0  0.125489  0  0.977948  0  0  0.128214  0  0.976276  0  0.054247  0  0.10444  0.12367  0  0.97896  0
H  H41  1  0.74052179  0.59026410  0.09543168  1  0  0.111253  0  0.920935  0  0  0.125977  0  0.977744  0  0  0.128738  0  0.976085  0  0.041953  0  0.10448  0.124064  0  0.97884  0
H  H42  1  0.57489628  0.09065328  0.59544446  1  0  0.110832  0  0.920777  0  0  0.125491  0  0.977977  0  0  0.128214  0  0.976309  0  0.054249  0  0.104441  0.123672  0  0.97899  0
H  H43  1  0.25947475  0.40973782  0.90456905  1  0  0.111235  0  0.920939  0  0  0.126  0  0.977764  0  0  0.128763  0  0.976111  0  0.041966  0  0.104507  0.124084  0  0.978858  0
H  H44  1  0.38940902  0.94780992  0.57291021  1  0  0.063542  0  0.941305  0  0  0.08558  0  0.997852  0  0  0.085685  0  0.999219  0  -0.002673  0  0.093959  0.085514  0  0.996685  0
H  H45  1  0.90912099  0.55232264  0.92704635  1  0  0.06311  0  0.941991  0  0  0.085404  0  0.998517  0  0  0.085485  0  0.999911  0  0.020805  0  0.093399  0.085272  0  0.997548  0
H  H46  1  0.61059097  0.05218977  0.42709089  1  0  0.063517  0  0.941374  0  0  0.085567  0  0.997896  0  0  0.085672  0  0.999263  0  -0.002679  0  0.093941  0.085501  0  0.996729  0
H  H47  1  0.09087622  0.44768040  0.07295444  1  0  0.063081  0  0.942033  0  0  0.08538  0  0.998553  0  0  0.085461  0  0.999945  0  0.020776  0  0.093386  0.085247  0  0.997586  0
H  H48  1  0.59543907  0.83099972  0.51933077  1  0  0.066866  0  0.956344  0  0  0.084106  0  1.01871  0  0  0.084749  0  1.020453  0  0.011982  0  0.098361  0.083181  0  1.018464  0
H  H49  1  0.94532755  0.66904789  0.98080732  1  0  0.066974  0  0.95627  0  0  0.084209  0  1.018996  0  0  0.084787  0  1.02077  0  0.044387  0  0.098517  0.0834  0  1.018471  0
H  H50  1  0.40456150  0.16900109  0.48066916  1  0  0.066898  0  0.956329  0  0  0.084146  0  1.018674  0  0  0.084804  0  1.020398  0  0.012329  0  0.098384  0.08322  0  1.01843  0
H  H51  1  0.05466966  0.33095516  0.01919347  1  0  0.066972  0  0.956275  0  0  0.084209  0  1.018992  0  0  0.084786  0  1.02077  0  0.044423  0  0.098519  0.083402  0  1.018465  0
H  H52  1  0.47528748  0.53843540  0.63456133  1  0  0.431307  0  0.874972  0  0  0.398249  0  0.942649  0  0  0.409864  0  0.926139  0  0.659396  0  0.295689  0.38998  0  0.95456  0
H  H53  1  0.64779565  0.96110805  0.86550671  1  0  0.431357  0  0.87498  0  0  0.39857  0  0.942079  0  0  0.410155  0  0.925635  0  0.654174  0  0.296202  0.39035  0  0.953904  0
H  H54  1  0.52471350  0.46156317  0.36543805  1  0  0.43131  0  0.87497  0  0  0.398238  0  0.942674  0  0  0.409854  0  0.926164  0  0.659419  0  0.295675  0.389967  0  0.954588  0
H  H55  1  0.35220370  0.03889165  0.13449372  1  0  0.431357  0  0.874973  0  0  0.398575  0  0.94206  0  0  0.41016  0  0.925616  0  0.654181  0  0.296215  0.390355  0  0.953885  0
H  H56  1  0.36420116  0.43780854  0.68560314  1  0  0.43041  0  0.817787  0  0  0.417152  0  0.866088  0  0  0.425311  0  0.856118  0  0.620333  0  0.332043  0.411279  0  0.873151  0
H  H57  1  0.48647288  0.06205158  0.81452829  1  0  0.4303  0  0.81869  0  0  0.416905  0  0.867323  0  0  0.425108  0  0.85656  0  0.595188  0  0.331785  0.410996  0  0.874464  0
H  H58  1  0.63579994  0.56219116  0.31439685  1  0  0.43042  0  0.817771  0  0  0.417164  0  0.866068  0  0  0.425323  0  0.856098  0  0.62034  0  0.332046  0.411291  0  0.873128  0
H  H59  1  0.51352821  0.93794812  0.18547171  1  0  0.430305  0  0.81865  0  0  0.416911  0  0.867282  0  0  0.425113  0  0.856544  0  0.595188  0  0.331779  0.411001  0  0.874424  0
C  C60  1  0.09417362  0.26306609  0.59861297  1  0  0.737302  0  3.813685  0  0  0.691698  0  4.115808  0  0  0.724757  0  4.11245  0  1.52353  0  0.213604  0.668726  0  4.121552  0
C  C61  1  0.95551505  0.23675713  0.90158444  1  0  0.734687  0  3.818364  0  0  0.690002  0  4.118998  0  0  0.723057  0  4.115763  0  1.526714  0  0.212343  0.667164  0  4.124508  0
C  C62  1  0.90582681  0.73693248  0.40138696  1  0  0.737318  0  3.813683  0  0  0.69173  0  4.115807  0  0  0.724789  0  4.112449  0  1.523532  0  0.213598  0.668758  0  4.121549  0
C  C63  1  0.04448432  0.76324368  0.09841536  1  0  0.734692  0  3.81837  0  0  0.689998  0  4.119019  0  0  0.723051  0  4.115786  0  1.52644  0  0.212369  0.667161  0  4.124528  0
C  C64  1  0.99677963  0.15396469  0.63075448  1  0  -0.265097  0  3.67026  0  0  -0.300341  0  3.91975  0  0  -0.306474  0  3.928869  0  -0.01636  0  -0.15626  -0.295702  0  3.912896  0
C  C65  1  0.78126693  0.34612682  0.86921841  1  0  -0.268129  0  3.673861  0  0  -0.303949  0  3.923529  0  0  -0.309986  0  3.932509  0  -0.045942  0  -0.157469  -0.299547  0  3.916803  0
C  C66  1  0.00322469  0.84603053  0.36924466  1  0  -0.265213  0  3.670139  0  0  -0.300489  0  3.919715  0  0  -0.306625  0  3.928838  0  -0.016298  0  -0.156283  -0.295848  0  3.912859  0
C  C67  1  0.21873349  0.65387175  0.13078152  1  0  -0.268139  0  3.673836  0  0  -0.303963  0  3.923533  0  0  -0.31  0  3.932515  0  -0.045802  0  -0.157474  -0.299562  0  3.9168  0
C  C68  1  0.06402401  0.04630980  0.70033539  1  0  -0.084489  0  3.691589  0  0  -0.127818  0  3.955144  0  0  -0.127666  0  3.968286  0  -0.016283  0  -0.166923  -0.127618  0  3.945468  0
C  C69  1  0.81047055  0.45376606  0.79981850  1  0  -0.084169  0  3.693825  0  0  -0.127701  0  3.957438  0  0  -0.127565  0  3.970561  0  -0.018651  0  -0.167274  -0.12741  0  3.947868  0
C  C70  1  0.93597764  0.95368989  0.29966405  1  0  -0.084505  0  3.691651  0  0  -0.127825  0  3.955231  0  0  -0.127673  0  3.968375  0  -0.016339  0  -0.166946  -0.127625  0  3.945556  0
C  C71  1  0.18953002  0.54623475  0.20018143  1  0  -0.084166  0  3.693866  0  0  -0.127703  0  3.957474  0  0  -0.127565  0  3.970593  0  -0.018691  0  -0.167277  -0.127396  0  3.947907  0
C  C72  1  0.95348974  0.94161360  0.72232264  1  0  -0.080056  0  3.668788  0  0  -0.119759  0  3.930931  0  0  -0.12068  0  3.945054  0  -0.031784  0  -0.158907  -0.118753  0  3.920673  0
C  C73  1  0.61760006  0.55876825  0.77743625  1  0  -0.0817  0  3.670961  0  0  -0.121003  0  3.931939  0  0  -0.121933  0  3.946049  0  -7.8e-05  0  -0.159233  -0.120023  0  3.921767  0
C  C74  1  0.04650955  0.05838386  0.27767901  1  0  -0.079987  0  3.668876  0  0  -0.119723  0  3.930994  0  0  -0.120646  0  3.945115  0  -0.031765  0  -0.158879  -0.118717  0  3.920733  0
C  C75  1  0.38239876  0.44123256  0.22256411  1  0  -0.08171  0  3.670844  0  0  -0.120987  0  3.931808  0  0  -0.12191  0  3.945922  0  -0.000111  0  -0.15921  -0.120004  0  3.92163  0
C  C76  1  0.01376605  0.82269845  0.79027322  1  0  -0.272085  0  3.654889  0  0  -0.312196  0  3.906756  0  0  -0.317343  0  3.913253  0  -0.037541  0  -0.162858  -0.308278  0  3.901285  0
C  C77  1  0.62731936  0.67747547  0.70955840  1  0  -0.273439  0  3.656798  0  0  -0.312839  0  3.90755  0  0  -0.317825  0  3.913916  0  -0.022214  0  -0.163109  -0.309129  0  3.902352  0
C  C78  1  0.98623165  0.17730571  0.20972516  1  0  -0.272278  0  3.655089  0  0  -0.312329  0  3.906815  0  0  -0.317487  0  3.913318  0  -0.037476  0  -0.162852  -0.308407  0  3.901342  0
C  C79  1  0.37268229  0.32252422  0.29044104  1  0  -0.273456  0  3.656725  0  0  -0.31292  0  3.907545  0  0  -0.317915  0  3.913912  0  -0.022201  0  -0.163128  -0.309211  0  3.902351  0
C  C80  1  0.99927839  0.89227550  0.86077218  1  0  0.762459  0  3.775333  0  0  0.720772  0  4.069537  0  0  0.754735  0  4.062473  0  1.550786  0  0.238237  0.697875  0  4.075189  0
C  C81  1  0.75291092  0.60776875  0.63924997  1  0  0.76226  0  3.772771  0  0  0.720785  0  4.066786  0  0  0.754579  0  4.059874  0  1.53516  0  0.238845  0.698042  0  4.072375  0
C  C82  1  0.00072160  0.10772419  0.13922892  1  0  0.762473  0  3.775575  0  0  0.720856  0  4.069618  0  0  0.754842  0  4.062514  0  1.550683  0  0.238216  0.697958  0  4.075272  0
C  C83  1  0.24709073  0.39223094  0.36074947  1  0  0.762322  0  3.772533  0  0  0.720834  0  4.066597  0  0  0.75463  0  4.059686  0  1.535169  0  0.238849  0.698087  0  4.072192  0
C  C84  1  0.30632745  0.77992670  0.49252276  1  0  0.727329  0  3.843247  0  0  0.684208  0  4.141915  0  0  0.716832  0  4.139197  0  1.528412  0  0.208581  0.661776  0  4.146791  0
C  C85  1  0.57888584  0.71963464  0.00747143  1  0  0.727627  0  3.844272  0  0  0.68499  0  4.141561  0  0  0.717614  0  4.139018  0  1.513401  0  0.209134  0.662461  0  4.146851  0
C  C86  1  0.69367470  0.22007076  0.50747737  1  0  0.727258  0  3.843234  0  0  0.684183  0  4.14188  0  0  0.716807  0  4.139163  0  1.528534  0  0.208593  0.661754  0  4.146757  0
C  C87  1  0.42111137  0.28036841  0.99252936  1  0  0.727532  0  3.844293  0  0  0.684928  0  4.141629  0  0  0.717557  0  4.139087  0  1.512858  0  0.209047  0.662397  0  4.14692  0
C  C88  1  0.34625985  0.91918810  0.46283048  1  0  -0.274246  0  3.670836  0  0  -0.31232  0  3.922637  0  0  -0.31814  0  3.929375  0  -0.039794  0  -0.161631  -0.308237  0  3.917415  0
C  C89  1  0.72894504  0.58046266  0.03712117  1  0  -0.27625  0  3.67152  0  0  -0.313994  0  3.922873  0  0  -0.319961  0  3.929763  0  -0.033959  0  -0.16254  -0.309737  0  3.917539  0
C  C90  1  0.65374162  0.08080824  0.53716958  1  0  -0.274228  0  3.670825  0  0  -0.312429  0  3.922705  0  0  -0.31825  0  3.929446  0  -0.039969  0  -0.161681  -0.308347  0  3.917484  0
C  C91  1  0.27104977  0.41954038  0.96287936  1  0  -0.275985  0  3.671291  0  0  -0.313959  0  3.922917  0  0  -0.319935  0  3.929812  0  -0.033801  0  -0.162519  -0.309687  0  3.917562  0
C  C92  1  0.46927542  0.93428599  0.51481606  1  0  -0.074425  0  3.67327  0  0  -0.113981  0  3.930178  0  0  -0.114852  0  3.944782  0  0.034236  0  -0.156667  -0.112937  0  3.919433  0
C  C93  1  0.91813146  0.56569566  0.98520704  1  0  -0.073543  0  3.671018  0  0  -0.113542  0  3.928536  0  0  -0.114313  0  3.94316  0  0.006195  0  -0.1561  -0.112726  0  3.918225  0
C  C94  1  0.53072731  0.06571259  0.48518289  1  0  -0.074473  0  3.67331  0  0  -0.113978  0  3.93018  0  0  -0.114856  0  3.944779  0  0.060194  0  -0.156647  -0.112933  0  3.919437  0
C  C95  1  0.08186508  0.43430626  0.01479369  1  0  -0.073533  0  3.670972  0  0  -0.113498  0  3.928551  0  0  -0.114265  0  3.943182  0  -0.015913  0  -0.156062  -0.112687  0  3.918239  0
O  O96  1  0.21412394  0.27922036  0.63067055  1  0  -0.67602  0  1.888352  0  0  -0.629906  0  2.117761  0  0  -0.657308  0  2.106623  0  -1.188959  0  -0.358205  -0.614076  0  2.124522  0
O  O97  1  0.12328934  0.22052126  0.86972640  1  0  -0.674096  0  1.891478  0  0  -0.627783  0  2.120312  0  0  -0.655335  0  2.109257  0  -1.183637  0  -0.357591  -0.612071  0  2.126813  0
O  O98  1  0.78587649  0.72077822  0.36932939  1  0  -0.676041  0  1.888342  0  0  -0.629939  0  2.117757  0  0  -0.65734  0  2.106619  0  -1.188971  0  -0.358207  -0.614108  0  2.124516  0
O  O99  1  0.87670893  0.77947955  0.13027451  1  0  -0.674122  0  1.891457  0  0  -0.627808  0  2.120307  0  0  -0.655359  0  2.109254  0  -1.183374  0  -0.357621  -0.612095  0  2.126806  0
O  O100  1  0.04875530  0.34358033  0.53488151  1  0  -0.861375  0  2.153054  0  0  -0.803712  0  2.421846  0  0  -0.841305  0  2.410943  0  -1.226344  0  -0.46543  -0.78554  0  2.428538  0
O  O101  1  0.92724971  0.15620153  0.96518233  1  0  -0.859102  0  2.153817  0  0  -0.801908  0  2.42233  0  0  -0.839545  0  2.41139  0  -1.22862  0  -0.463891  -0.783783  0  2.428651  0
O  O102  1  0.95124512  0.65641825  0.46511842  1  0  -0.861378  0  2.153014  0  0  -0.803694  0  2.421752  0  0  -0.841284  0  2.410838  0  -1.226422  0  -0.465437  -0.785522  0  2.428443  0
O  O103  1  0.07274913  0.84380039  0.03481742  1  0  -0.859065  0  2.153808  0  0  -0.801873  0  2.422344  0  0  -0.839511  0  2.411413  0  -1.228643  0  -0.463886  -0.783747  0  2.428664  0
O  O104  1  0.83454122  0.94179357  0.90279112  1  0  -0.763126  0  2.017176  0  0  -0.703241  0  2.259834  0  0  -0.736435  0  2.249119  0  -1.222388  0  -0.369467  -0.684221  0  2.265789  0
O  O105  1  0.67966586  0.55783372  0.59710506  1  0  -0.763433  0  2.016486  0  0  -0.703967  0  2.259738  0  0  -0.737077  0  2.249144  0  -1.206612  0  -0.369639  -0.685119  0  2.265829  0
O  O106  1  0.16545573  0.05820612  0.09720906  1  0  -0.763084  0  2.017206  0  0  -0.703266  0  2.259889  0  0  -0.736466  0  2.249162  0  -1.222368  0  -0.369457  -0.684247  0  2.265846  0
O  O107  1  0.32033577  0.44216486  0.40289500  1  0  -0.763467  0  2.016452  0  0  -0.703986  0  2.259722  0  0  -0.737098  0  2.249128  0  -1.206623  0  -0.369643  -0.685135  0  2.265814  0
O  O108  1  0.14790892  0.90183325  0.87358627  1  0  -0.705514  0  2.002716  0  0  -0.655161  0  2.251195  0  0  -0.686698  0  2.239355  0  -1.195239  0  -0.386448  -0.638097  0  2.257264  0
O  O109  1  0.92356138  0.59853742  0.62662255  1  0  -0.704666  0  1.995099  0  0  -0.654664  0  2.243189  0  0  -0.686028  0  2.231386  0  -1.197736  0  -0.384913  -0.637681  0  2.249337  0
O  O110  1  0.85208992  0.09816868  0.12641347  1  0  -0.705544  0  2.002758  0  0  -0.655215  0  2.251199  0  0  -0.686761  0  2.239345  0  -1.195243  0  -0.386464  -0.638152  0  2.257269  0
O  O111  1  0.07644145  0.40146115  0.37337763  1  0  -0.704695  0  1.994959  0  0  -0.654687  0  2.243073  0  0  -0.686049  0  2.231269  0  -1.19767  0  -0.384922  -0.637702  0  2.249221  0
O  O112  1  0.15423850  0.78470333  0.53673123  1  0  -0.658824  0  1.923417  0  0  -0.611239  0  2.157664  0  0  -0.639124  0  2.147997  0  -1.178724  0  -0.362976  -0.595012  0  2.163468  0
O  O113  1  0.47487143  0.71486918  0.96332984  1  0  -0.658225  0  1.924714  0  0  -0.610697  0  2.15892  0  0  -0.638678  0  2.149271  0  -1.179107  0  -0.36245  -0.594844  0  2.164327  0
O  O114  1  0.84576482  0.21529300  0.46326963  1  0  -0.658804  0  1.923392  0  0  -0.611229  0  2.157627  0  0  -0.639111  0  2.147959  0  -1.178761  0  -0.362982  -0.595004  0  2.163428  0
O  O115  1  0.52512227  0.28513387  0.03667180  1  0  -0.65827  0  1.924768  0  0  -0.610718  0  2.158938  0  0  -0.638698  0  2.149282  0  -1.178728  0  -0.362445  -0.594858  0  2.164333  0
O  O116  1  0.43402388  0.65230786  0.47403499  1  0  -0.853444  0  2.074781  0  0  -0.794475  0  2.33874  0  0  -0.831191  0  2.326097  0  -1.239483  0  -0.44822  -0.776479  0  2.345822  0
O  O117  1  0.56088979  0.84729819  0.02595749  1  0  -0.853683  0  2.074599  0  0  -0.794678  0  2.338788  0  0  -0.831648  0  2.32612  0  -1.230818  0  -0.449616  -0.777258  0  2.346393  0
O  O118  1  0.56597938  0.34768960  0.52596402  1  0  -0.853381  0  2.074801  0  0  -0.794427  0  2.338756  0  0  -0.831144  0  2.326118  0  -1.239425  0  -0.448209  -0.776415  0  2.345801  0
O  O119  1  0.43910970  0.15270373  0.97404293  1  0  -0.853659  0  2.074611  0  0  -0.794645  0  2.338802  0  0  -0.831616  0  2.326131  0  -1.230756  0  -0.449573  -0.777227  0  2.346409  0
O  O120  1  0.34624337  0.52986585  0.65139351  1  0  -0.874948  0  1.823542  0  0  -0.83132  0  2.006077  0  0  -0.854664  0  1.97363  0  -1.267819  0  -0.620476  -0.818921  0  2.025488  0
O  O121  1  0.52647779  0.97000290  0.84876595  1  0  -0.875607  0  1.821771  0  0  -0.831986  0  2.004118  0  0  -0.855396  0  1.970926  0  -1.238268  0  -0.620357  -0.819657  0  2.023591  0
O  O122  1  0.65375761  0.47013272  0.34860587  1  0  -0.874977  0  1.82352  0  0  -0.831347  0  2.006062  0  0  -0.854689  0  1.973617  0  -1.267824  0  -0.62048  -0.818948  0  2.025473  0
O  O123  1  0.47352050  0.02999903  0.15123435  1  0  -0.875622  0  1.821761  0  0  -0.832008  0  2.004115  0  0  -0.855418  0  1.970946  0  -1.238275  0  -0.620358  -0.819679  0  2.023588  0
