# generated using pymatgen
data_AgH10C10N5O2
_symmetry_space_group_name_H-M   'P 1'
_cell_length_a   11.39579984
_cell_length_b   11.93977991
_cell_length_c   12.63870000
_cell_angle_alpha   116.43083528
_cell_angle_beta   103.66262316
_cell_angle_gamma   103.66582824
_symmetry_Int_Tables_number   1
_chemical_formula_structural   AgH10C10N5O2
_chemical_formula_sum   'Ag4 H40 C40 N20 O8'
_cell_volume   1376.35453689
_cell_formula_units_Z   4
loop_
 _symmetry_equiv_pos_site_id
 _symmetry_equiv_pos_as_xyz
  1  'x, y, z'
loop_
 _atom_site_type_symbol
 _atom_site_label
 _atom_site_symmetry_multiplicity
 _atom_site_fract_x
 _atom_site_fract_y
 _atom_site_fract_z
 _atom_site_occupancy
 _atom_site_pbe_bader_charge
 _atom_site_pbe_bader_spin_density
 _atom_site_pbe_cm5_charge
 _atom_site_pbe_ddec_charge
 _atom_site_pbe_ddec_spin_density
 _atom_site_pbe_ddec_sum_bond_order
 _atom_site_pbe_magmom
Ag  Ag0  1  0.12995167  0.68887747  0.01478274  1  0.584564  0  0.408994  0.382892  0  1.880816  0
Ag  Ag1  1  0.87004540  0.31111907  0.98521661  1  0.584561  0  0.408981  0.382833  0  1.880874  0
Ag  Ag2  1  0.74765023  0.07331586  0.73357880  1  0.58727  0  0.414863  0.392558  0  1.874352  0
Ag  Ag3  1  0.25234942  0.92668271  0.26642037  1  0.587272  0  0.41487  0.392547  0  1.874412  0
H  H4  1  0.93156237  0.04136791  0.46815217  1  0.053161  0  0.100251  0.144904  0  1.014948  0
H  H5  1  0.06843908  0.95863066  0.53184738  1  0.053213  0  0.100266  0.144914  0  1.014962  0
H  H6  1  0.82535095  0.09646208  0.39610523  1  0.08835  0  0.10738  0.163833  0  0.960155  0
H  H7  1  0.17464960  0.90353649  0.60389255  1  0.088457  0  0.107394  0.163858  0  0.960123  0
H  H8  1  0.77607007  0.02187314  0.48111068  1  0.042053  0  0.095839  0.139659  0  1.033066  0
H  H9  1  0.22393048  0.97812543  0.51888710  1  0.042043  0  0.095844  0.139645  0  1.033064  0
H  H10  1  0.35845049  0.47351276  0.11874685  1  0.05248  0  0.09931  0.152665  0  0.999408  0
H  H11  1  0.64155264  0.52648785  0.88125312  1  0.052421  0  0.099297  0.152636  0  0.999416  0
H  H12  1  0.51810226  0.49959865  0.11520192  1  0.060585  0  0.100773  0.150081  0  0.990045  0
H  H13  1  0.48190100  0.50039992  0.88479722  1  0.060172  0  0.100769  0.150084  0  0.990055  0
H  H14  1  0.45909281  0.40553427  0.18039671  1  0.080531  0  0.100316  0.152063  0  1.019485  0
H  H15  1  0.54091032  0.59446634  0.81960484  1  0.080509  0  0.100303  0.152036  0  1.019511  0
H  H16  1  0.61503084  0.81974926  0.28306800  1  0.075181  0  0.10077  0.097178  0  1.054251  0
H  H17  1  0.38496997  0.18025237  0.71693428  1  0.075282  0  0.100748  0.097195  0  1.054273  0
H  H18  1  0.82882553  0.80502446  0.28222952  1  0.091701  0  0.100386  0.103622  0  1.037188  0
H  H19  1  0.17117398  0.19497614  0.71777127  1  0.091789  0  0.100377  0.103564  0  1.037244  0
H  H20  1  0.86579550  0.83923996  0.92678672  1  0.064552  0  0.10298  0.10937  0  1.003183  0
H  H21  1  0.13419964  0.16075862  0.07321228  1  0.064533  0  0.103004  0.109415  0  1.003147  0
H  H22  1  0.71898227  0.84569483  0.75308234  1  0.071738  0  0.091783  0.090619  0  1.04762  0
H  H23  1  0.28100888  0.15429561  0.24691318  1  0.07129  0  0.091793  0.090629  0  1.047601  0
H  H24  1  0.50140795  0.85294791  0.75014172  1  0.057921  0  0.097969  0.101036  0  1.008432  0
H  H25  1  0.49858307  0.14704456  0.24985542  1  0.058068  0  0.097956  0.101039  0  1.008382  0
H  H26  1  0.42932344  0.85030516  0.91896702  1  0.092383  0  0.101853  0.113187  0  1.019882  0
H  H27  1  0.57066950  0.14969240  0.08103346  1  0.092411  0  0.101878  0.113247  0  1.019909  0
H  H28  1  0.27241301  0.59367219  0.86293171  1  0.505008  0  0.297604  0.317955  0  0.993112  0
H  H29  1  0.72758689  0.40632943  0.13706721  1  0.505035  0  0.297634  0.317962  0  0.993107  0
H  H30  1  0.27202594  0.45456403  0.72410998  1  0.514142  0  0.29208  0.292503  0  1.025965  0
H  H31  1  0.72797886  0.54543861  0.27589042  1  0.514155  0  0.292106  0.292521  0  1.025952  0
H  H32  1  0.86147373  0.53085515  0.90659593  1  0.483934  0  0.295776  0.315738  0  0.989173  0
H  H33  1  0.13852721  0.46914443  0.09340314  1  0.483922  0  0.295771  0.315744  0  0.989132  0
H  H34  1  0.72859143  0.37915451  0.78145944  1  0.507831  0  0.290261  0.289894  0  1.021165  0
H  H35  1  0.27140963  0.62084305  0.21853723  1  0.50782  0  0.290262  0.2899  0  1.021136  0
H  H36  1  0.33671422  0.82570079  0.44913689  1  0.518631  0  0.291699  0.290628  0  1.027847  0
H  H37  1  0.66328542  0.17429778  0.55086069  1  0.518651  0  0.291701  0.29061  0  1.027865  0
H  H38  1  0.47259989  0.95119048  0.59846127  1  0.512344  0  0.298754  0.317218  0  0.991289  0
H  H39  1  0.52740014  0.04880911  0.40153840  1  0.512318  0  0.298731  0.317165  0  0.991351  0
H  H40  1  0.88444212  0.90846204  0.63293684  1  0.517207  0  0.296068  0.317654  0  0.996067  0
H  H41  1  0.11555868  0.09153958  0.36706227  1  0.517205  0  0.296064  0.317628  0  0.996117  0
H  H42  1  0.88117089  0.76691348  0.49675991  1  0.504181  0  0.29205  0.292955  0  1.019738  0
H  H43  1  0.11883133  0.23308713  0.50324066  1  0.504246  0  0.29207  0.292967  0  1.019736  0
C  C44  1  0.90435339  0.39080947  0.77219634  1  1.580335  0  0.342529  0.608204  0  4.099118  0
C  C45  1  0.09565025  0.60919011  0.22780173  1  1.580356  0  0.342535  0.60814  0  4.09922  0
C  C46  1  0.92108387  0.22544053  0.60005080  1  1.155964  0  0.251643  0.50123  0  4.044197  0
C  C47  1  0.07891874  0.77456109  0.39994949  1  1.155592  0  0.251693  0.501281  0  4.044182  0
C  C48  1  0.09812204  0.42632346  0.74330492  1  1.600564  0  0.351046  0.613471  0  4.108503  0
C  C49  1  0.90187645  0.57367206  0.25669510  1  1.600599  0  0.351121  0.613529  0  4.108407  0
C  C50  1  0.85996954  0.08808844  0.48011954  1  -0.068237  0  -0.23619  -0.476611  0  3.90358  0
C  C51  1  0.14003178  0.91191216  0.51988005  1  -0.068171  0  -0.236233  -0.476639  0  3.903607  0
C  C52  1  0.70412940  0.77426520  0.48478417  1  1.559438  0  0.344709  0.605596  0  4.129582  0
C  C53  1  0.29587011  0.22573541  0.51521424  1  1.559441  0  0.344727  0.605532  0  4.129669  0
C  C54  1  0.52032823  0.61891919  0.30199667  1  1.148207  0  0.251951  0.497803  0  4.053781  0
C  C55  1  0.47967580  0.38108141  0.69800270  1  1.148169  0  0.251959  0.497797  0  4.05371  0
C  C56  1  0.50809679  0.80066021  0.46314276  1  1.581639  0  0.345979  0.613442  0  4.10826  0
C  C57  1  0.49190492  0.19934142  0.53685338  1  1.581574  0  0.345961  0.613473  0  4.108192  0
C  C58  1  0.45930248  0.49275230  0.17121249  1  -0.062213  0  -0.234189  -0.477597  0  3.888606  0
C  C59  1  0.54069975  0.50724830  0.82878729  1  -0.06167  0  -0.234165  -0.477555  0  3.888598  0
C  C60  1  0.43394699  0.82995625  0.12338116  1  1.543747  0  0.21252  0.582549  0  4.178896  0
C  C61  1  0.56605368  0.17004741  0.87662669  1  1.542741  0  0.212394  0.582425  0  4.17909  0
C  C62  1  0.56492439  0.83378158  0.11775375  1  -0.059761  0  -0.016189  -0.084064  0  3.94081  0
C  C63  1  0.43507834  0.16622512  0.88225503  1  -0.059554  0  -0.016249  -0.084114  0  3.940891  0
C  C64  1  0.64709801  0.82353493  0.20986472  1  -0.019942  0  -0.090333  -0.096238  0  4.01348  0
C  C65  1  0.35290421  0.17647279  0.79014121  1  -0.019561  0  -0.090276  -0.096297  0  4.013466  0
C  C66  1  0.76865806  0.81706888  0.21010471  1  -0.050677  0  -0.09354  -0.110044  0  4.003727  0
C  C67  1  0.23134223  0.18293376  0.78989867  1  -0.051152  0  -0.093553  -0.109966  0  4.003855  0
C  C68  1  0.81165802  0.82540591  0.11933530  1  -0.005649  0  -0.010065  -0.065579  0  3.939046  0
C  C69  1  0.18834213  0.17459876  0.88066813  1  -0.005257  0  -0.01004  -0.065554  0  3.939204  0
C  C70  1  0.73103784  0.83707613  0.02248627  1  -0.009741  0  -0.003898  0.046003  0  3.966058  0
C  C71  1  0.26895922  0.16292753  0.97751527  1  -0.010253  0  -0.003906  0.045954  0  3.966029  0
C  C72  1  0.77054747  0.84193762  0.92557175  1  -0.013695  0  -0.089746  -0.124837  0  3.973543  0
C  C73  1  0.22944908  0.15805993  0.07442870  1  -0.013434  0  -0.089791  -0.124902  0  3.973563  0
C  C74  1  0.68865851  0.84574363  0.82874248  1  -0.045368  0  -0.098638  -0.090992  0  4.042659  0
C  C75  1  0.31133289  0.15424985  0.17125279  1  -0.044463  0  -0.098544  -0.090902  0  4.042626  0
C  C76  1  0.56489147  0.84876059  0.82656232  1  -0.034281  0  -0.091336  -0.073033  0  4.014823  0
C  C77  1  0.43509954  0.15123189  0.17343482  1  -0.034714  0  -0.091376  -0.073071  0  4.01453  0
C  C78  1  0.52446113  0.84740921  0.92077771  1  -0.076182  0  -0.095192  -0.138533  0  3.977819  0
C  C79  1  0.47553220  0.15258936  0.07922090  1  -0.07681  0  -0.095222  -0.138632  0  3.977685  0
C  C80  1  0.60455638  0.83983379  0.02032316  1  -0.009824  0  -0.002356  0.056475  0  3.952638  0
C  C81  1  0.39544312  0.16017393  0.97968299  1  -0.008874  0  -0.002329  0.056567  0  3.952616  0
C  C82  1  0.94315143  0.81938218  0.12449896  1  1.58078  0  0.217582  0.593654  0  4.18407  0
C  C83  1  0.05684885  0.18062046  0.87550126  1  1.581657  0  0.217574  0.59368  0  4.183947  0
N  N84  1  0.03014415  0.47494141  0.81583029  1  -1.251075  0  -0.359776  -0.512048  0  3.318444  0
N  N85  1  0.96985782  0.52505614  0.18416895  1  -1.250843  0  -0.359794  -0.512014  0  3.318409  0
N  N86  1  0.84638314  0.26261501  0.66570571  1  -1.273432  0  -0.348019  -0.519433  0  3.296036  0
N  N87  1  0.15362037  0.73738661  0.33429318  1  -1.273291  0  -0.348013  -0.5194  0  3.295963  0
N  N88  1  0.04446187  0.30180181  0.63200929  1  -1.245027  0  -0.340142  -0.505702  0  3.225374  0
N  N89  1  0.95553996  0.69819778  0.36799235  1  -1.244939  0  -0.340207  -0.505811  0  3.225361  0
N  N90  1  0.22347489  0.50052397  0.77899553  1  -1.324793  0  -0.56043  -0.618428  0  3.315868  0
N  N91  1  0.77653133  0.49947765  0.22100711  1  -1.32504  0  -0.560494  -0.618434  0  3.316042  0
N  N92  1  0.82870712  0.42987425  0.83732755  1  -1.271789  0  -0.575306  -0.64139  0  3.372414  0
N  N93  1  0.17129369  0.57012737  0.16267156  1  -1.271865  0  -0.575332  -0.641421  0  3.372505  0
N  N94  1  0.63837352  0.85149282  0.53556285  1  -1.227762  0  -0.359987  -0.538835  0  3.316328  0
N  N95  1  0.36162690  0.14850778  0.46443496  1  -1.227764  0  -0.359947  -0.538771  0  3.316278  0
N  N96  1  0.64698294  0.65488669  0.36907509  1  -1.254215  0  -0.345923  -0.515845  0  3.226377  0
N  N97  1  0.35302019  0.34511391  0.63092488  1  -1.254137  0  -0.345954  -0.515865  0  3.226345  0
N  N98  1  0.44629854  0.68636385  0.34262846  1  -1.255744  0  -0.340839  -0.503693  0  3.206878  0
N  N99  1  0.55370369  0.31363676  0.65736895  1  -1.255787  0  -0.340851  -0.503696  0  3.206784  0
N  N100  1  0.43387230  0.86471575  0.50901116  1  -1.34377  0  -0.567029  -0.623217  0  3.332854  0
N  N101  1  0.56612683  0.13528384  0.49098358  1  -1.343745  0  -0.566996  -0.62316  0  3.332906  0
N  N102  1  0.83270185  0.81563107  0.54923751  1  -1.316985  0  -0.57059  -0.631749  0  3.311744  0
N  N103  1  0.16729909  0.18436851  0.45076236  1  -1.31705  0  -0.570615  -0.631717  0  3.311835  0
O  O104  1  0.43213041  0.89645931  0.23429506  1  -1.151608  0  -0.318567  -0.530493  0  2.389382  0
O  O105  1  0.56787299  0.10353722  0.76571513  1  -1.151444  0  -0.318508  -0.530429  0  2.389252  0
O  O106  1  0.33261420  0.75629263  0.01837084  1  -1.140297  0  -0.316815  -0.522619  0  2.391914  0
O  O107  1  0.66738543  0.24372018  0.98163668  1  -1.140378  0  -0.31673  -0.522513  0  2.392069  0
O  O108  1  0.04355182  0.91785861  0.22192570  1  -1.149081  0  -0.314928  -0.522945  0  2.348606  0
O  O109  1  0.95644898  0.08214301  0.77807499  1  -1.149986  0  -0.314927  -0.522974  0  2.348528  0
O  O110  1  0.94455917  0.71552974  0.03292822  1  -1.155295  0  -0.315714  -0.522708  0  2.370947  0
O  O111  1  0.05543648  0.28446782  0.96706729  1  -1.155297  0  -0.315712  -0.522691  0  2.370896  0
