# generated using pymatgen
data_LaH15C12S2O15
_symmetry_space_group_name_H-M   'P 1'
_cell_length_a   7.00273009
_cell_length_b   10.87213145
_cell_length_c   12.35498237
_cell_angle_alpha   83.85042181
_cell_angle_beta   77.12252157
_cell_angle_gamma   89.15277483
_symmetry_Int_Tables_number   1
_chemical_formula_structural   LaH15C12S2O15
_chemical_formula_sum   'La2 H30 C24 S4 O30'
_cell_volume   911.66671815
_cell_formula_units_Z   2
loop_
 _symmetry_equiv_pos_site_id
 _symmetry_equiv_pos_as_xyz
  1  'x, y, z'
loop_
 _atom_site_type_symbol
 _atom_site_label
 _atom_site_symmetry_multiplicity
 _atom_site_fract_x
 _atom_site_fract_y
 _atom_site_fract_z
 _atom_site_occupancy
 _atom_site_hle17_bader_spin_density
 _atom_site_hle17_ddec_charge
 _atom_site_hle17_ddec_spin_density
 _atom_site_hle17_ddec_sum_bond_order
 _atom_site_hle17_magmom
 _atom_site_hse06_10hf_bader_spin_density
 _atom_site_hse06_10hf_ddec_charge
 _atom_site_hse06_10hf_ddec_spin_density
 _atom_site_hse06_10hf_ddec_sum_bond_order
 _atom_site_hse06_10hf_magmom
 _atom_site_hse06_bader_spin_density
 _atom_site_hse06_ddec_charge
 _atom_site_hse06_ddec_spin_density
 _atom_site_hse06_ddec_sum_bond_order
 _atom_site_hse06_magmom
 _atom_site_pbe_bader_spin_density
 _atom_site_pbe_cm5_charge
 _atom_site_pbe_ddec_charge
 _atom_site_pbe_ddec_spin_density
 _atom_site_pbe_ddec_sum_bond_order
 _atom_site_pbe_magmom
La  La0  1  0.21014209  0.59828348  0.21342802  1  0  2.228075  0  1.658498  0  0  2.126982  0  2.129247  0  0  2.217954  0  2.031853  0  0  1.406941  2.058099  0  2.198735  0
La  La1  1  0.78985421  0.40172117  0.78657237  1  0  2.228172  0  1.658369  0  0  2.127014  0  2.129185  0  0  2.217996  0  2.031765  0  0  1.406957  2.05814  0  2.198683  0
H  H2  1  0.97157716  0.22321633  0.26449870  1  0  0.424814  0  0.845951  0  0  0.392815  0  0.925154  0  0  0.404542  0  0.912018  0  0  0.319158  0.384539  0  0.93441  0
H  H3  1  0.02842025  0.77677168  0.73549902  1  0  0.42485  0  0.845891  0  0  0.392856  0  0.925109  0  0  0.404581  0  0.911975  0  0  0.319154  0.384575  0  0.934383  0
H  H4  1  0.77134192  0.58632314  0.16600644  1  0  0.441864  0  0.855363  0  0  0.411344  0  0.918482  0  0  0.422929  0  0.901556  0  0  0.302689  0.40296  0  0.930776  0
H  H5  1  0.22865726  0.41367872  0.83399465  1  0  0.441859  0  0.855353  0  0  0.411344  0  0.918467  0  0  0.422928  0  0.901541  0  0  0.302687  0.402961  0  0.93076  0
H  H6  1  0.86046721  0.44867861  0.17046551  1  0  0.435865  0  0.858679  0  0  0.405394  0  0.921004  0  0  0.416003  0  0.905474  0  0  0.303377  0.397721  0  0.932221  0
H  H7  1  0.13953345  0.55132325  0.82953700  1  0  0.43583  0  0.858718  0  0  0.405362  0  0.921039  0  0  0.415969  0  0.905512  0  0  0.303363  0.39769  0  0.932253  0
H  H8  1  0.35688121  0.35030670  0.09827575  1  0  0.433442  0  0.866668  0  0  0.40286  0  0.929923  0  0  0.413348  0  0.914687  0  0  0.305287  0.395299  0  0.940941  0
H  H9  1  0.64311360  0.64969609  0.90172742  1  0  0.433337  0  0.866825  0  0  0.402757  0  0.930075  0  0  0.413246  0  0.914838  0  0  0.305241  0.395196  0  0.941094  0
H  H10  1  0.27495935  0.43372652  0.00839934  1  0  0.4429  0  0.825022  0  0  0.416838  0  0.892038  0  0  0.426939  0  0.877054  0  0  0.322036  0.409515  0  0.902927  0
H  H11  1  0.72503536  0.56627166  0.99160185  1  0  0.442868  0  0.825065  0  0  0.416802  0  0.892091  0  0  0.426903  0  0.877107  0  0  0.322041  0.409481  0  0.902977  0
H  H12  1  0.86771112  0.44034494  0.39575536  1  0  0.449309  0  0.843992  0  0  0.416633  0  0.909479  0  0  0.427746  0  0.8933  0  0  0.304787  0.408689  0  0.921017  0
H  H13  1  0.13229244  0.55965693  0.60424273  1  0  0.449298  0  0.843999  0  0  0.416625  0  0.90948  0  0  0.427749  0  0.893284  0  0  0.304761  0.408681  0  0.921017  0
H  H14  1  0.06337752  0.43605704  0.43959530  1  0  0.445323  0  0.80801  0  0  0.423232  0  0.869674  0  0  0.432612  0  0.858974  0  0  0.328953  0.416444  0  0.877456  0
H  H15  1  0.93663012  0.56393190  0.56039616  1  0  0.445347  0  0.807974  0  0  0.423251  0  0.869655  0  0  0.432633  0  0.858951  0  0  0.328937  0.416461  0  0.877435  0
H  H16  1  0.44097733  0.35017341  0.24535280  1  0  0.423504  0  0.881408  0  0  0.394981  0  0.942352  0  0  0.404988  0  0.927765  0  0  0.301442  0.387811  0  0.952812  0
H  H17  1  0.55900716  0.64982663  0.75465034  1  0  0.423493  0  0.881444  0  0  0.394977  0  0.942371  0  0  0.404983  0  0.927786  0  0  0.301463  0.387808  0  0.952829  0
H  H18  1  0.49333673  0.41978131  0.33940444  1  0  0.445493  0  0.849665  0  0  0.413541  0  0.914221  0  0  0.424569  0  0.898134  0  0  0.303263  0.40573  0  0.925551  0
H  H19  1  0.50665512  0.58022057  0.66059758  1  0  0.445499  0  0.849647  0  0  0.413548  0  0.914201  0  0  0.424584  0  0.898103  0  0  0.303279  0.405736  0  0.925532  0
H  H20  1  0.83485221  0.73274386  0.32995057  1  0  0.441588  0  0.853767  0  0  0.412938  0  0.912886  0  0  0.423308  0  0.897944  0  0  0.302094  0.405476  0  0.923632  0
H  H21  1  0.16514839  0.26725709  0.67004718  1  0  0.441568  0  0.853795  0  0  0.412929  0  0.912897  0  0  0.423297  0  0.897953  0  0  0.302095  0.40547  0  0.92364  0
H  H22  1  0.97270716  0.84949970  0.27436501  1  0  0.445562  0  0.846995  0  0  0.418215  0  0.904372  0  0  0.429083  0  0.888576  0  0  0.30328  0.410318  0  0.915806  0
H  H23  1  0.02729636  0.15050032  0.72563406  1  0  0.445596  0  0.846941  0  0  0.418242  0  0.904336  0  0  0.42911  0  0.888541  0  0  0.303292  0.410347  0  0.915772  0
H  H24  1  0.09822187  0.24997352  0.98698254  1  0  0.110575  0  0.973024  0  0  0.115582  0  1.043483  0  0  0.119873  0  1.039406  0  0  0.115316  0.112209  0  1.047065  0
H  H25  1  0.90176556  0.75002932  0.01301350  1  0  0.110542  0  0.972963  0  0  0.11554  0  1.043442  0  0  0.119831  0  1.039363  0  0  0.115301  0.112167  0  1.047021  0
H  H26  1  0.49927618  0.97790295  0.84535956  1  0  0.122958  0  0.94719  0  0  0.12911  0  1.011942  0  0  0.13275  0  1.009773  0  0  0.112833  0.126443  0  1.013544  0
H  H27  1  0.50072440  0.02209708  0.15463747  1  0  0.122961  0  0.947193  0  0  0.129097  0  1.011956  0  0  0.132734  0  1.00979  0  0  0.112839  0.126428  0  1.013557  0
H  H28  1  0.31904751  0.21169775  0.42116060  1  0  0.11653  0  0.967199  0  0  0.121377  0  1.036903  0  0  0.12597  0  1.032325  0  0  0.112725  0.117925  0  1.0405  0
H  H29  1  0.68095747  0.78830040  0.57884169  1  0  0.116509  0  0.967234  0  0  0.121374  0  1.036911  0  0  0.125969  0  1.032332  0  0  0.112695  0.117914  0  1.040518  0
H  H30  1  0.17789835  0.84321538  0.36886901  1  0  0.108128  0  1.001454  0  0  0.112778  0  1.072112  0  0  0.117087  0  1.068303  0  0  0.1179  0.109641  0  1.074865  0
H  H31  1  0.82210808  0.15678185  0.63113318  1  0  0.108162  0  1.001368  0  0  0.112835  0  1.072032  0  0  0.117139  0  1.068223  0  0  0.117939  0.1097  0  1.074786  0
C  C32  1  0.12778223  0.15435680  0.97111633  1  0  -0.068019  0  3.637678  0  0  -0.107439  0  3.891762  0  0  -0.103904  0  3.905833  0  0  -0.062618  -0.110026  0  3.88321  0
C  C33  1  0.87221107  0.84564602  0.02888056  1  0  -0.067825  0  3.637573  0  0  -0.10727  0  3.891721  0  0  -0.103729  0  3.90579  0  0  -0.062605  -0.109865  0  3.883166  0
C  C34  1  0.31023147  0.12386942  0.91146780  1  0  -0.039032  0  3.733595  0  0  -0.014172  0  3.970152  0  0  -0.021851  0  3.989827  0  0  -0.0084  -0.009369  0  3.957327  0
C  C35  1  0.68976475  0.87613247  0.08853042  1  0  -0.039109  0  3.733571  0  0  -0.014293  0  3.970184  0  0  -0.021986  0  3.989883  0  0  -0.008402  -0.009477  0  3.95735  0
C  C36  1  0.35370850  0.00008271  0.89100186  1  0  -0.037945  0  3.692871  0  0  -0.07846  0  3.946308  0  0  -0.074624  0  3.96315  0  0  -0.067421  -0.080659  0  3.934981  0
C  C37  1  0.64628769  0.99991825  0.10899565  1  0  -0.037958  0  3.692856  0  0  -0.078437  0  3.946302  0  0  -0.074599  0  3.963147  0  0  -0.06744  -0.080644  0  3.934976  0
C  C38  1  0.21274417  0.90956784  0.92908715  1  0  -0.148655  0  3.696465  0  0  -0.131957  0  3.954266  0  0  -0.139759  0  3.974467  0  0  -0.007454  -0.12686  0  3.940745  0
C  C39  1  0.78725351  0.09043404  0.07091007  1  0  -0.14868  0  3.696476  0  0  -0.131972  0  3.954267  0  0  -0.139774  0  3.974465  0  0  -0.007459  -0.126874  0  3.940745  0
C  C40  1  0.02056799  0.93681706  0.98928315  1  0  0.081133  0  3.707286  0  0  0.088919  0  3.938238  0  0  0.089751  0  3.960508  0  0  0.016494  0.088436  0  3.923163  0
C  C41  1  0.97942529  0.06318484  0.01071303  1  0  0.081264  0  3.707223  0  0  0.089012  0  3.938198  0  0  0.089844  0  3.960472  0  0  0.016507  0.088529  0  3.923124  0
C  C42  1  0.46628643  0.21966630  0.86776488  1  0  0.643585  0  3.905438  0  0  0.593712  0  4.204431  0  0  0.627922  0  4.199573  0  0  0.204032  0.570553  0  4.20649  0
C  C43  1  0.53371426  0.78033648  0.13223836  1  0  0.643479  0  3.905699  0  0  0.593643  0  4.204659  0  0  0.627858  0  4.199797  0  0  0.204028  0.570476  0  4.206717  0
C  C44  1  0.34220450  0.11258307  0.43322330  1  0  -0.066307  0  3.622037  0  0  -0.107866  0  3.878055  0  0  -0.103741  0  3.891869  0  0  -0.06581  -0.110449  0  3.869011  0
C  C45  1  0.65780339  0.88741508  0.56677619  1  0  -0.066301  0  3.62203  0  0  -0.107822  0  3.878034  0  0  -0.103693  0  3.891848  0  0  -0.065748  -0.110395  0  3.868984  0
C  C46  1  0.23269941  0.03329074  0.39011180  1  0  -0.058599  0  3.750574  0  0  -0.033306  0  3.98978  0  0  -0.042363  0  4.012018  0  0  -0.009691  -0.027446  0  3.974959  0
C  C47  1  0.76730995  0.96670741  0.60988750  1  0  -0.058593  0  3.750401  0  0  -0.033419  0  3.989749  0  0  -0.042478  0  4.012002  0  0  -0.009723  -0.027559  0  3.974929  0
C  C48  1  0.26288018  0.90443785  0.40405678  1  0  -0.051625  0  3.741175  0  0  -0.092839  0  3.994086  0  0  -0.089476  0  4.012245  0  0  -0.071701  -0.094711  0  3.981952  0
C  C49  1  0.73713357  0.09556029  0.59594115  1  0  -0.051673  0  3.740919  0  0  -0.092936  0  3.993985  0  0  -0.089566  0  4.012138  0  0  -0.071779  -0.094809  0  3.981861  0
C  C50  1  0.40219803  0.85629195  0.45876446  1  0  -0.155657  0  3.674279  0  0  -0.136318  0  3.92687  0  0  -0.144395  0  3.948106  0  0  -0.012557  -0.131286  0  3.913106  0
C  C51  1  0.59781282  0.14370806  0.54123286  1  0  -0.155554  0  3.674141  0  0  -0.136221  0  3.926804  0  0  -0.144296  0  3.948037  0  0  -0.012504  -0.131191  0  3.913046  0
C  C52  1  0.51676784  0.93415914  0.50679785  1  0  0.075936  0  3.701062  0  0  0.084004  0  3.933638  0  0  0.084588  0  3.956576  0  0  0.010537  0.083503  0  3.918544  0
C  C53  1  0.48324444  0.06583901  0.49320027  1  0  0.07583  0  3.701033  0  0  0.083882  0  3.93364  0  0  0.084467  0  3.956576  0  0  0.010446  0.083384  0  3.918549  0
C  C54  1  0.08473403  0.07801967  0.32522730  1  0  0.660087  0  3.795058  0  0  0.608453  0  4.092728  0  0  0.641064  0  4.08512  0  0  0.238949  0.586169  0  4.097638  0
C  C55  1  0.91526498  0.92197294  0.67477546  1  0  0.66006  0  3.794881  0  0  0.608547  0  4.092454  0  0  0.641142  0  4.084873  0  0  0.238969  0.586265  0  4.097361  0
S  S56  1  0.27946061  0.75583467  0.90152015  1  0  1.348061  0  5.557241  0  0  1.242781  0  6.074204  0  0  1.292141  0  6.050282  0  0  0.548024  1.208376  0  6.090074  0
S  S57  1  0.72053412  0.24416536  0.09847924  1  0  1.348155  0  5.557026  0  0  1.242871  0  6.073985  0  0  1.292244  0  6.050056  0  0  0.548058  1.208469  0  6.089852  0
S  S58  1  0.43411478  0.69210503  0.46361848  1  0  1.343729  0  5.581028  0  0  1.239494  0  6.100525  0  0  1.288805  0  6.077247  0  0  0.542794  1.205442  0  6.11564  0
S  S59  1  0.56589312  0.30789406  0.53637931  1  0  1.343854  0  5.580908  0  0  1.23955  0  6.100421  0  0  1.288833  0  6.07717  0  0  0.542821  1.205501  0  6.115527  0
O  O60  1  0.64002069  0.18493613  0.83078202  1  0  -0.643913  0  1.982251  0  0  -0.604129  0  2.226916  0  0  -0.635398  0  2.2238  0  0  -0.356823  -0.581647  0  2.228045  0
O  O61  1  0.35998439  0.81506758  0.16921895  1  0  -0.643818  0  1.982313  0  0  -0.604077  0  2.226978  0  0  -0.635341  0  2.223862  0  0  -0.356835  -0.581597  0  2.228103  0
O  O62  1  0.42437908  0.33573161  0.86848559  1  0  -0.723254  0  2.029294  0  0  -0.671027  0  2.269849  0  0  -0.701646  0  2.25944  0  0  -0.360535  -0.649195  0  2.276509  0
O  O63  1  0.57562307  0.66427303  0.13151404  1  0  -0.72323  0  2.029458  0  0  -0.670977  0  2.269945  0  0  -0.701594  0  2.259536  0  0  -0.360511  -0.649148  0  2.276606  0
O  O64  1  0.23192641  0.67614778  0.00786701  1  0  -0.739539  0  2.071478  0  0  -0.688564  0  2.349677  0  0  -0.717167  0  2.336782  0  0  -0.378426  -0.667594  0  2.35798  0
O  O65  1  0.76806558  0.32385964  0.99213773  1  0  -0.739502  0  2.071424  0  0  -0.688554  0  2.349679  0  0  -0.717143  0  2.336735  0  0  -0.378453  -0.66759  0  2.357983  0
O  O66  1  0.16484330  0.71730281  0.82396102  1  0  -0.674568  0  2.029365  0  0  -0.610855  0  2.27116  0  0  -0.632949  0  2.255046  0  0  -0.315374  -0.594916  0  2.281925  0
O  O67  1  0.83515723  0.28269257  0.17604210  1  0  -0.674673  0  2.029174  0  0  -0.610973  0  2.270996  0  0  -0.633073  0  2.254869  0  0  -0.315386  -0.595037  0  2.281757  0
O  O68  1  0.49181501  0.76111855  0.85179306  1  0  -0.67234  0  2.009714  0  0  -0.608193  0  2.244638  0  0  -0.630769  0  2.231167  0  0  -0.318476  -0.592439  0  2.253937  0
O  O69  1  0.50818266  0.23888054  0.14820928  1  0  -0.672421  0  2.009735  0  0  -0.608255  0  2.244651  0  0  -0.630838  0  2.231176  0  0  -0.31851  -0.5925  0  2.25395  0
O  O70  1  0.06769983  0.20058234  0.31268513  1  0  -0.533387  0  2.08247  0  0  -0.481187  0  2.300104  0  0  -0.502985  0  2.286296  0  0  -0.319712  -0.46611  0  2.309501  0
O  O71  1  0.93228756  0.79941492  0.68731952  1  0  -0.533365  0  2.082624  0  0  -0.481233  0  2.300233  0  0  -0.503024  0  2.28644  0  0  -0.319654  -0.466152  0  2.30963  0
O  O72  1  0.98636739  0.00803131  0.28610438  1  0  -0.556664  0  1.958213  0  0  -0.510889  0  2.171123  0  0  -0.532248  0  2.164391  0  0  -0.278672  -0.496149  0  2.17575  0
O  O73  1  0.01364636  0.99196497  0.71389858  1  0  -0.556749  0  1.95784  0  0  -0.51098  0  2.170684  0  0  -0.532335  0  2.163966  0  0  -0.278747  -0.496238  0  2.175309  0
O  O74  1  0.32069295  0.65068038  0.38740467  1  0  -0.725896  0  2.058714  0  0  -0.671392  0  2.333256  0  0  -0.699227  0  2.319913  0  0  -0.377076  -0.65125  0  2.34155  0
O  O75  1  0.67931058  0.34932150  0.61259099  1  0  -0.726063  0  2.058804  0  0  -0.671409  0  2.333222  0  0  -0.699242  0  2.319885  0  0  -0.377089  -0.651292  0  2.341578  0
O  O76  1  0.34985297  0.64079805  0.58012877  1  0  -0.674092  0  2.015213  0  0  -0.610122  0  2.253662  0  0  -0.632759  0  2.238122  0  0  -0.319895  -0.594143  0  2.263963  0
O  O77  1  0.65015066  0.35920658  0.41987068  1  0  -0.674071  0  2.015121  0  0  -0.610045  0  2.25358  0  0  -0.632652  0  2.238025  0  0  -0.319906  -0.594062  0  2.263879  0
O  O78  1  0.64437360  0.66932963  0.43115041  1  0  -0.651221  0  1.979555  0  0  -0.595743  0  2.221271  0  0  -0.616743  0  2.205497  0  0  -0.317937  -0.580911  0  2.231726  0
O  O79  1  0.35562834  0.33066577  0.56884525  1  0  -0.651283  0  1.979475  0  0  -0.595817  0  2.221216  0  0  -0.616812  0  2.205445  0  0  -0.317972  -0.580986  0  2.231674  0
O  O80  1  0.89081800  0.53705227  0.17008253  1  0  -0.888767  0  1.816026  0  0  -0.838205  0  2.003137  0  0  -0.863509  0  1.969678  0  0  -0.638932  -0.819501  0  2.026846  0
O  O81  1  0.10917828  0.46294865  0.82992468  1  0  -0.888775  0  1.816036  0  0  -0.838202  0  2.003127  0  0  -0.863505  0  1.969671  0  0  -0.63893  -0.819496  0  2.026836  0
O  O82  1  0.27193299  0.42215773  0.08814047  1  0  -0.869132  0  1.833025  0  0  -0.824072  0  2.028855  0  0  -0.847825  0  1.996999  0  0  -0.625034  -0.806571  0  2.051337  0
O  O83  1  0.72807065  0.57784783  0.91185889  1  0  -0.869031  0  1.833199  0  0  -0.823961  0  2.029025  0  0  -0.847717  0  1.99717  0  0  -0.625007  -0.806461  0  2.051505  0
O  O84  1  0.99739689  0.48111165  0.38611166  1  0  -0.890891  0  1.848695  0  0  -0.846965  0  2.048625  0  0  -0.871161  0  2.018832  0  0  -0.628057  -0.829135  0  2.069525  0
O  O85  1  0.00260525  0.51889113  0.61389057  1  0  -0.890886  0  1.848634  0  0  -0.846957  0  2.048561  0  0  -0.871157  0  2.01875  0  0  -0.628032  -0.829124  0  2.069464  0
O  O86  1  0.40992918  0.42518202  0.28401896  1  0  -0.900148  0  1.861348  0  0  -0.856577  0  2.061035  0  0  -0.881433  0  2.028948  0  0  -0.644936  -0.83834  0  2.083388  0
O  O87  1  0.59005827  0.57481801  0.71598623  1  0  -0.900159  0  1.861408  0  0  -0.856593  0  2.061119  0  0  -0.881451  0  2.029017  0  0  -0.644985  -0.838352  0  2.083472  0
O  O88  1  0.95757021  0.75877449  0.27523829  1  0  -0.898803  0  1.820131  0  0  -0.851664  0  2.003852  0  0  -0.878025  0  1.973332  0  0  -0.63728  -0.832545  0  2.025696  0
O  O89  1  0.04243328  0.24122460  0.72475926  1  0  -0.898822  0  1.820086  0  0  -0.851694  0  2.003794  0  0  -0.878052  0  1.973282  0  0  -0.63729  -0.832577  0  2.025632  0
