# generated using pymatgen
data_ZnB2H12C4(N8O)2
_symmetry_space_group_name_H-M   'P 1'
_cell_length_a   9.82150215
_cell_length_b   8.82520824
_cell_length_c   10.04813678
_cell_angle_alpha   116.65498147
_cell_angle_beta   89.98575374
_cell_angle_gamma   89.97700567
_symmetry_Int_Tables_number   1
_chemical_formula_structural   ZnB2H12C4(N8O)2
_chemical_formula_sum   'Zn2 B4 H24 C8 N32 O4'
_cell_volume   778.38028170
_cell_formula_units_Z   2
loop_
 _symmetry_equiv_pos_site_id
 _symmetry_equiv_pos_as_xyz
  1  'x, y, z'
loop_
 _atom_site_type_symbol
 _atom_site_label
 _atom_site_symmetry_multiplicity
 _atom_site_fract_x
 _atom_site_fract_y
 _atom_site_fract_z
 _atom_site_occupancy
 _atom_site_pbe_bader_spin_density
 _atom_site_pbe_cm5_charge
 _atom_site_pbe_ddec_charge
 _atom_site_pbe_ddec_spin_density
 _atom_site_pbe_ddec_sum_bond_order
 _atom_site_pbe_magmom
Zn  Zn0  1  0.08324632  0.75022388  0.99870435  1  0  0.699753  0.744047  0  2.382109  0
Zn  Zn1  1  0.58306272  0.24927291  0.00008510  1  0  0.700205  0.74434  0  2.382238  0
B  B2  1  0.33163556  0.69412535  0.49661626  1  0  -0.222303  0.129478  0  3.623019  0
B  B3  1  0.33486702  0.18812310  0.49837775  1  0  -0.229707  0.121589  0  3.63812  0
B  B4  1  0.83653499  0.81088564  0.49989731  1  0  -0.229136  0.120933  0  3.638205  0
B  B5  1  0.83053642  0.30564908  0.50275767  1  0  -0.22267  0.128991  0  3.624286  0
H  H6  1  0.23001749  0.62981863  0.51677038  1  0  0.045269  -0.137836  0  1.045093  0
H  H7  1  0.23468530  0.10050409  0.47357632  1  0  0.048449  -0.134914  0  1.050221  0
H  H8  1  0.73656801  0.89896417  0.52469916  1  0  0.048828  -0.134979  0  1.051581  0
H  H9  1  0.72860119  0.36947808  0.48259000  1  0  0.045096  -0.137778  0  1.044254  0
H  H10  1  0.43218116  0.60723103  0.47584151  1  0  0.045144  -0.137983  0  1.044958  0
H  H11  1  0.43634907  0.12753968  0.52275507  1  0  0.048372  -0.134882  0  1.049016  0
H  H12  1  0.93810154  0.87071197  0.47487654  1  0  0.048191  -0.134233  0  1.047715  0
H  H13  1  0.93082162  0.39279869  0.52320614  1  0  0.045131  -0.138486  0  1.046228  0
H  H14  1  0.09756737  0.64762345  0.29866239  1  0  0.142403  0.101583  0  1.057976  0
H  H15  1  0.09107917  0.34735613  0.68485952  1  0  0.14853  0.114818  0  1.039311  0
H  H16  1  0.59257211  0.65429827  0.31339841  1  0  0.148815  0.115861  0  1.036668  0
H  H17  1  0.59651682  0.34952291  0.70043664  1  0  0.142218  0.101302  0  1.060045  0
H  H18  1  0.56636189  0.83925312  0.69670530  1  0  0.143296  0.101447  0  1.06198  0
H  H19  1  0.57670395  0.16604441  0.31178979  1  0  0.148901  0.117229  0  1.032072  0
H  H20  1  0.07840744  0.83253733  0.68644389  1  0  0.148768  0.115863  0  1.03477  0
H  H21  1  0.06510390  0.16210169  0.30188771  1  0  0.142849  0.101655  0  1.062158  0
H  H22  1  0.94494975  0.47493050  0.02332076  1  0  0.315133  0.390124  0  0.919113  0
H  H23  1  0.44485081  0.52384638  0.97394116  1  0  0.314442  0.388109  0  0.92387  0
H  H24  1  0.85715595  0.63397863  0.04511124  1  0  0.305606  0.364085  0  0.972277  0
H  H25  1  0.35629813  0.36903324  0.95997617  1  0  0.30665  0.366002  0  0.967226  0
H  H26  1  0.31371370  0.89715093  0.00996577  1  0  0.311611  0.374157  0  0.945449  0
H  H27  1  0.81311897  0.10917530  0.00693519  1  0  0.312573  0.376034  0  0.940811  0
H  H28  1  0.22322873  0.05201676  0.02978573  1  0  0.312075  0.38302  0  0.936726  0
H  H29  1  0.72412599  0.94743756  0.96852991  1  0  0.311254  0.381619  0  0.941995  0
C  C30  1  0.19077749  0.70011878  0.27810053  1  0  0.183521  0.129229  0  3.879635  0
C  C31  1  0.18671975  0.41656774  0.71218639  1  0  0.189074  0.128258  0  3.858199  0
C  C32  1  0.68753497  0.58352380  0.28667210  1  0  0.189602  0.127922  0  3.857362  0
C  C33  1  0.69041019  0.29842245  0.72127743  1  0  0.18263  0.12753  0  3.880542  0
C  C34  1  0.47468443  0.91582293  0.71726113  1  0  0.183254  0.129319  0  3.875637  0
C  C35  1  0.47966238  0.20440238  0.28486385  1  0  0.189154  0.126311  0  3.860886  0
C  C36  1  0.98109535  0.79551256  0.71399705  1  0  0.190048  0.1293  0  3.86106  0
C  C37  1  0.97403326  0.08471397  0.28181240  1  0  0.182747  0.127814  0  3.876452  0
N  N38  1  0.30461252  0.72746363  0.35900404  1  0  -0.09815  0.005502  0  3.668048  0
N  N39  1  0.30299676  0.35993975  0.63586316  1  0  -0.097518  0.003319  0  3.689522  0
N  N40  1  0.80394259  0.63871239  0.36299717  1  0  -0.097652  0.00458  0  3.68704  0
N  N41  1  0.80416129  0.27242241  0.64043995  1  0  -0.09872  0.005935  0  3.66792  0
N  N42  1  0.39958031  0.78958587  0.29848191  1  0  -0.05329  -0.0554  0  3.162738  0
N  N43  1  0.40058330  0.47661893  0.70668090  1  0  -0.056454  -0.067669  0  3.185279  0
N  N44  1  0.90051092  0.51993367  0.29320047  1  0  -0.057264  -0.068769  0  3.183218  0
N  N45  1  0.90010591  0.21195176  0.70137058  1  0  -0.054787  -0.058326  0  3.164236  0
N  N46  1  0.34403287  0.80082997  0.18592830  1  0  -0.087392  -0.09071  0  3.28462  0
N  N47  1  0.34516909  0.59996488  0.82193495  1  0  -0.088524  -0.089749  0  3.273599  0
N  N48  1  0.84424660  0.39669578  0.17858936  1  0  -0.087986  -0.093111  0  3.27963  0
N  N49  1  0.84532094  0.20050991  0.81418586  1  0  -0.088948  -0.090494  0  3.276229  0
N  N50  1  0.21292753  0.74479885  0.16980742  1  0  -0.2349  -0.236586  0  3.497892  0
N  N51  1  0.21056463  0.56572076  0.82845257  1  0  -0.22818  -0.211196  0  3.444101  0
N  N52  1  0.71029914  0.43316117  0.17139269  1  0  -0.227647  -0.210509  0  3.445213  0
N  N53  1  0.71358805  0.25461150  0.82993984  1  0  -0.234422  -0.235931  0  3.500546  0
N  N54  1  0.36077098  0.86636155  0.63562792  1  0  -0.097538  0.00391  0  3.668281  0
N  N55  1  0.36427708  0.22201006  0.36180610  1  0  -0.096506  0.006087  0  3.689299  0
N  N56  1  0.86580102  0.77811839  0.63707579  1  0  -0.096584  0.005784  0  3.688816  0
N  N57  1  0.86019547  0.13333702  0.36391365  1  0  -0.097141  0.004021  0  3.668028  0
N  N58  1  0.26885223  0.99394848  0.69634574  1  0  -0.051649  -0.051937  0  3.155502  0
N  N59  1  0.26451973  0.26412355  0.29196298  1  0  -0.056669  -0.068208  0  3.188263  0
N  N60  1  0.76562406  0.73818879  0.70792142  1  0  -0.054913  -0.064687  0  3.187022  0
N  N61  1  0.76917893  0.00477617  0.30402784  1  0  -0.051351  -0.051004  0  3.155119  0
N  N62  1  0.32633541  0.11672365  0.80990575  1  0  -0.084209  -0.088105  0  3.298375  0
N  N63  1  0.31764399  0.27208024  0.17664483  1  0  -0.088679  -0.087259  0  3.262396  0
N  N64  1  0.81835098  0.73127404  0.82380797  1  0  -0.088311  -0.085931  0  3.263412  0
N  N65  1  0.82710879  0.88228378  0.19053059  1  0  -0.083287  -0.086529  0  3.301882  0
N  N66  1  0.45546325  0.07118575  0.82654760  1  0  -0.235138  -0.232646  0  3.489093  0
N  N67  1  0.45315325  0.23503243  0.16921060  1  0  -0.226403  -0.209679  0  3.43289  0
N  N68  1  0.95413359  0.76676129  0.83058889  1  0  -0.226383  -0.211735  0  3.435875  0
N  N69  1  0.95558302  0.92892759  0.17298993  1  0  -0.235364  -0.234612  0  3.48734  0
O  O70  1  0.93506918  0.56304541  0.99035241  1  0  -0.564378  -0.719268  0  2.187643  0
O  O71  1  0.43596849  0.43866353  0.01057496  1  0  -0.56399  -0.718732  0  2.188384  0
O  O72  1  0.22685068  0.92778762  0.98042024  1  0  -0.562603  -0.718127  0  2.184103  0
O  O73  1  0.72340216  0.07167345  0.02280548  1  0  -0.562846  -0.719108  0  2.187001  0
