# generated using pymatgen
data_LaH12C18(NO2)3
_symmetry_space_group_name_H-M   'P 1'
_cell_length_a   7.78671134
_cell_length_b   11.00651649
_cell_length_c   11.38706442
_cell_angle_alpha   118.02952963
_cell_angle_beta   90.00001614
_cell_angle_gamma   90.00002722
_symmetry_Int_Tables_number   1
_chemical_formula_structural   LaH12C18(NO2)3
_chemical_formula_sum   'La2 H24 C36 N6 O12'
_cell_volume   861.45298692
_cell_formula_units_Z   2
loop_
 _symmetry_equiv_pos_site_id
 _symmetry_equiv_pos_as_xyz
  1  'x, y, z'
loop_
 _atom_site_type_symbol
 _atom_site_label
 _atom_site_symmetry_multiplicity
 _atom_site_fract_x
 _atom_site_fract_y
 _atom_site_fract_z
 _atom_site_occupancy
 _atom_site_hle17_bader_spin_density
 _atom_site_hle17_ddec_charge
 _atom_site_hle17_ddec_spin_density
 _atom_site_hle17_ddec_sum_bond_order
 _atom_site_hle17_magmom
 _atom_site_hse06_10hf_bader_spin_density
 _atom_site_hse06_10hf_ddec_charge
 _atom_site_hse06_10hf_ddec_spin_density
 _atom_site_hse06_10hf_ddec_sum_bond_order
 _atom_site_hse06_10hf_magmom
 _atom_site_hse06_bader_spin_density
 _atom_site_hse06_ddec_charge
 _atom_site_hse06_ddec_spin_density
 _atom_site_hse06_ddec_sum_bond_order
 _atom_site_hse06_magmom
 _atom_site_pbe_bader_spin_density
 _atom_site_pbe_cm5_charge
 _atom_site_pbe_ddec_charge
 _atom_site_pbe_ddec_spin_density
 _atom_site_pbe_ddec_sum_bond_order
 _atom_site_pbe_magmom
La  La0  1  0.34039816  0.48480164  0.52955561  1  0  1.978554  0  1.862896  0  0  1.816111  0  2.376067  0  0  1.919105  0  2.29066  0  0  1.403275  1.739593  0  2.435186  0
La  La1  1  0.84039743  0.51519835  0.47044462  1  0  1.978547  0  1.862907  0  0  1.816076  0  2.376121  0  0  1.919068  0  2.290721  0  0  1.403266  1.739557  0  2.435242  0
H  H2  1  0.08104092  0.39495191  0.73065462  1  0  0.099066  0  0.968371  0  0  0.102453  0  1.038704  0  0  0.106186  0  1.03504  0  0  0.123292  0.099599  0  1.041653  0
H  H3  1  0.58104018  0.60504590  0.26934721  1  0  0.099115  0  0.968391  0  0  0.102476  0  1.038733  0  0  0.106209  0  1.035069  0  0  0.123308  0.099621  0  1.041678  0
H  H4  1  0.64224191  0.34618755  0.90231292  1  0  0.109349  0  0.951309  0  0  0.116559  0  1.014261  0  0  0.11988  0  1.013687  0  0  0.107936  0.114106  0  1.014874  0
H  H5  1  0.14223874  0.65381232  0.09768458  1  0  0.10935  0  0.95131  0  0  0.116571  0  1.014247  0  0  0.119889  0  1.013674  0  0  0.107948  0.114117  0  1.014855  0
H  H6  1  0.08702549  0.33313455  0.91477597  1  0  0.10075  0  0.949864  0  0  0.110461  0  1.009103  0  0  0.112977  0  1.0097  0  0  0.106893  0.10863  0  1.008839  0
H  H7  1  0.58702215  0.66686429  0.08522632  1  0  0.100761  0  0.949829  0  0  0.110462  0  1.009077  0  0  0.11298  0  1.009674  0  0  0.106889  0.10863  0  1.008807  0
H  H8  1  0.37312040  0.30844235  0.00560420  1  0  0.108263  0  0.970731  0  0  0.116675  0  1.032518  0  0  0.1199  0  1.030462  0  0  0.107598  0.114367  0  1.033989  0
H  H9  1  0.87311231  0.69155766  0.99439693  1  0  0.108282  0  0.970751  0  0  0.116713  0  1.032523  0  0  0.119921  0  1.030488  0  0  0.107607  0.114403  0  1.033994  0
H  H10  1  0.62895759  0.19580168  0.42185725  1  0  0.08987  0  0.975307  0  0  0.091687  0  1.048727  0  0  0.095176  0  1.04567  0  0  0.120982  0.088984  0  1.051279  0
H  H11  1  0.12896628  0.80419717  0.57814154  1  0  0.089854  0  0.97527  0  0  0.09171  0  1.048666  0  0  0.095199  0  1.045608  0  0  0.120974  0.088999  0  1.051212  0
H  H12  1  0.64461530  0.94791736  0.35350216  1  0  0.105713  0  0.946934  0  0  0.115714  0  1.004657  0  0  0.118674  0  1.004528  0  0  0.107367  0.113548  0  1.004966  0
H  H13  1  0.14462474  0.05208150  0.64649753  1  0  0.105732  0  0.946919  0  0  0.115721  0  1.00466  0  0  0.118684  0  1.004524  0  0  0.10738  0.113558  0  1.004972  0
H  H14  1  0.08801703  0.94120803  0.35061766  1  0  0.109069  0  0.95393  0  0  0.116575  0  1.015914  0  0  0.119957  0  1.015226  0  0  0.106565  0.114062  0  1.016642  0
H  H15  1  0.58802631  0.05879286  0.64938381  1  0  0.109061  0  0.953907  0  0  0.116578  0  1.015886  0  0  0.119957  0  1.015201  0  0  0.106608  0.114055  0  1.016627  0
H  H16  1  0.36771272  0.81347711  0.32038501  1  0  0.106471  0  0.97236  0  0  0.115831  0  1.033026  0  0  0.118696  0  1.031469  0  0  0.107419  0.113804  0  1.034109  0
H  H17  1  0.86772082  0.18652394  0.67961745  1  0  0.106428  0  0.972413  0  0  0.115752  0  1.033123  0  0  0.118617  0  1.031566  0  0  0.107408  0.113729  0  1.034202  0
H  H18  1  0.09250665  0.90077878  0.02849964  1  0  0.112219  0  0.950416  0  0  0.121325  0  1.009774  0  0  0.124813  0  1.008659  0  0  0.110535  0.118776  0  1.01077  0
H  H19  1  0.59250710  0.09922108  0.97149960  1  0  0.112217  0  0.950411  0  0  0.121319  0  1.00977  0  0  0.124806  0  1.008655  0  0  0.110537  0.118771  0  1.010766  0
H  H20  1  0.63037051  0.69919796  0.79183079  1  0  0.087997  0  0.97917  0  0  0.089323  0  1.053641  0  0  0.092734  0  1.050682  0  0  0.121955  0.086739  0  1.056026  0
H  H21  1  0.13036969  0.30080398  0.20817027  1  0  0.088012  0  0.979168  0  0  0.089332  0  1.05365  0  0  0.092743  0  1.050691  0  0  0.121952  0.086749  0  1.056039  0
H  H22  1  0.64827144  0.88920881  0.02149089  1  0  0.10937  0  0.940597  0  0  0.12153  0  0.994532  0  0  0.124437  0  0.994077  0  0  0.111551  0.119356  0  0.995117  0
H  H23  1  0.14827079  0.11079417  0.97850977  1  0  0.109373  0  0.940605  0  0  0.121521  0  0.994561  0  0  0.124437  0  0.994096  0  0  0.111554  0.119369  0  0.995123  0
H  H24  1  0.37426366  0.99989124  0.14368339  1  0  0.097868  0  0.969148  0  0  0.106281  0  1.031401  0  0  0.108098  0  1.032021  0  0  0.105774  0.104911  0  1.031036  0
H  H25  1  0.87426527  0.00011082  0.85631602  1  0  0.097899  0  0.969129  0  0  0.106321  0  1.031367  0  0  0.108139  0  1.031988  0  0  0.105797  0.104946  0  1.031024  0
C  C26  1  0.50050555  0.38924879  0.76482974  1  0  0.090374  0  3.748754  0  0  0.095941  0  3.990082  0  0  0.096764  0  4.010778  0  0  0.112675  0.095075  0  3.976244  0
C  C27  1  0.00050626  0.61074690  0.23516673  1  0  0.090275  0  3.748718  0  0  0.095898  0  3.990097  0  0  0.096719  0  4.010797  0  0  0.112674  0.09502  0  3.976282  0
C  C28  1  0.20316051  0.38217634  0.77072246  1  0  0.125651  0  3.675231  0  0  0.097156  0  3.932434  0  0  0.10304  0  3.95051  0  0  0.051752  0.09315  0  3.920213  0
C  C29  1  0.70315848  0.61782255  0.22927812  1  0  0.125502  0  3.675488  0  0  0.097058  0  3.932648  0  0  0.102944  0  3.950723  0  0  0.051691  0.093057  0  3.920421  0
C  C30  1  0.51466045  0.35477653  0.86781604  1  0  -0.114583  0  3.715858  0  0  -0.133093  0  3.959673  0  0  -0.137869  0  3.98016  0  0  -0.075567  -0.129956  0  3.946018  0
C  C31  1  0.01465728  0.64522020  0.13218177  1  0  -0.114608  0  3.715838  0  0  -0.133131  0  3.959664  0  0  -0.137903  0  3.980142  0  0  -0.075615  -0.129989  0  3.946002  0
C  C32  1  0.20725468  0.34777370  0.87410637  1  0  -0.102242  0  3.712141  0  0  -0.114083  0  3.962414  0  0  -0.119242  0  3.982409  0  0  -0.076553  -0.110698  0  3.948974  0
C  C33  1  0.70725134  0.65222417  0.12589552  1  0  -0.102176  0  3.712121  0  0  -0.114019  0  3.962396  0  0  -0.119178  0  3.982378  0  0  -0.076545  -0.110641  0  3.948951  0
C  C34  1  0.36557441  0.33394321  0.92395944  1  0  -0.008526  0  3.696974  0  0  -0.025636  0  3.942174  0  0  -0.022967  0  3.95914  0  0  -0.065288  -0.027244  0  3.930577  0
C  C35  1  0.86556978  0.66605576  0.07604034  1  0  -0.008546  0  3.696763  0  0  -0.025677  0  3.941971  0  0  -0.022992  0  3.95894  0  0  -0.065273  -0.027283  0  3.930366  0
C  C36  1  0.66012493  0.41497058  0.70363732  1  0  0.631347  0  3.902959  0  0  0.580796  0  4.208903  0  0  0.615341  0  4.200465  0  0  0.224608  0.557281  0  4.213708  0
C  C37  1  0.16012178  0.58503034  0.29636329  1  0  0.631622  0  3.902504  0  0  0.5809  0  4.208723  0  0  0.615444  0  4.200285  0  0  0.224637  0.557372  0  4.213557  0
C  C38  1  0.51092314  0.13693613  0.40593815  1  0  0.129207  0  3.682553  0  0  0.101531  0  3.939829  0  0  0.107549  0  3.957207  0  0  0.050183  0.09745  0  3.928309  0
C  C39  1  0.01093059  0.86306265  0.59405971  1  0  0.129357  0  3.682394  0  0  0.101616  0  3.939715  0  0  0.107632  0  3.957098  0  0  0.050292  0.097553  0  3.928184  0
C  C40  1  0.21404299  0.13284281  0.40346295  1  0  0.088675  0  3.752572  0  0  0.095448  0  3.993071  0  0  0.096563  0  4.012756  0  0  0.112396  0.094479  0  3.980025  0
C  C41  1  0.71405028  0.86715607  0.59653412  1  0  0.088569  0  3.752422  0  0  0.095346  0  3.992918  0  0  0.096461  0  4.012602  0  0  0.11238  0.094379  0  3.979859  0
C  C42  1  0.51916184  0.99655665  0.36762789  1  0  -0.106694  0  3.709177  0  0  -0.118816  0  3.959486  0  0  -0.124098  0  3.979194  0  0  -0.077609  -0.115327  0  3.946222  0
C  C43  1  0.01916996  0.00344214  0.63237085  1  0  -0.106752  0  3.709144  0  0  -0.118863  0  3.959494  0  0  -0.124145  0  3.979204  0  0  -0.077654  -0.11538  0  3.946244  0
C  C44  1  0.21171369  0.99248267  0.36578317  1  0  -0.116821  0  3.715984  0  0  -0.135263  0  3.960706  0  0  -0.140069  0  3.980902  0  0  -0.07726  -0.132098  0  3.947175  0
C  C45  1  0.71172164  0.00751725  0.63421612  1  0  -0.116858  0  3.715835  0  0  -0.135324  0  3.960598  0  0  -0.140128  0  3.980794  0  0  -0.07738  -0.13215  0  3.947075  0
C  C46  1  0.36694222  0.92294561  0.34882374  1  0  -0.009715  0  3.703481  0  0  -0.028862  0  3.953984  0  0  -0.026525  0  3.971973  0  0  -0.06646  -0.029996  0  3.941357  0
C  C47  1  0.86695023  0.07705337  0.65117604  1  0  -0.009622  0  3.703429  0  0  -0.028728  0  3.953951  0  0  -0.026391  0  3.97194  0  0  -0.066392  -0.029866  0  3.941331  0
C  C48  1  0.04815399  0.21075087  0.42128442  1  0  0.631724  0  3.914796  0  0  0.582607  0  4.219182  0  0  0.616722  0  4.211583  0  0  0.220187  0.559158  0  4.223522  0
C  C49  1  0.54815864  0.78924999  0.57871527  1  0  0.631871  0  3.914973  0  0  0.582786  0  4.219293  0  0  0.616902  0  4.211692  0  0  0.22025  0.559347  0  4.223613  0
C  C50  1  0.05049798  0.69870265  0.77577705  1  0  0.633449  0  3.912156  0  0  0.581692  0  4.218377  0  0  0.616375  0  4.210166  0  0  0.224637  0.558068  0  4.223084  0
C  C51  1  0.55049828  0.30129617  0.22422347  1  0  0.633414  0  3.912237  0  0  0.581666  0  4.218457  0  0  0.616349  0  4.210243  0  0  0.224613  0.558039  0  4.223169  0
C  C52  1  0.21667985  0.75294416  0.85029649  1  0  0.09353  0  3.75156  0  0  0.101575  0  3.988527  0  0  0.10254  0  4.008563  0  0  0.114656  0.100714  0  3.975126  0
C  C53  1  0.71667880  0.24705577  0.14970456  1  0  0.09353  0  3.751533  0  0  0.101568  0  3.988507  0  0  0.102532  0  4.008541  0  0  0.114649  0.100711  0  3.975102  0
C  C54  1  0.21531220  0.85976658  0.98070482  1  0  -0.119133  0  3.718791  0  0  -0.137623  0  3.95988  0  0  -0.14262  0  3.980076  0  0  -0.076491  -0.134321  0  3.94631  0
C  C55  1  0.71531230  0.14023334  0.01929536  1  0  -0.119093  0  3.718722  0  0  -0.137572  0  3.959809  0  0  -0.142569  0  3.980004  0  0  -0.076473  -0.134267  0  3.946236  0
C  C56  1  0.51306941  0.74547708  0.84675517  1  0  0.132601  0  3.686293  0  0  0.104212  0  3.943042  0  0  0.110146  0  3.960849  0  0  0.052346  0.100279  0  3.930917  0
C  C57  1  0.01306983  0.25452480  0.15324584  1  0  0.13253  0  3.686286  0  0  0.10414  0  3.943038  0  0  0.11007  0  3.960848  0  0  0.052302  0.100207  0  3.930926  0
C  C58  1  0.52273081  0.85297348  0.97653296  1  0  -0.108597  0  3.708564  0  0  -0.120015  0  3.956552  0  0  -0.125163  0  3.975761  0  0  -0.076513  -0.116482  0  3.943491  0
C  C59  1  0.02272852  0.14702943  0.02346676  1  0  -0.108559  0  3.708551  0  0  -0.119967  0  3.95655  0  0  -0.125122  0  3.975758  0  0  -0.076498  -0.116448  0  3.943489  0
C  C60  1  0.37119556  0.91262272  0.04431122  1  0  -0.008389  0  3.724463  0  0  -0.026109  0  3.973851  0  0  -0.023348  0  3.992294  0  0  -0.066151  -0.02764  0  3.961117  0
C  C61  1  0.87119599  0.08737934  0.95568907  1  0  -0.008457  0  3.724506  0  0  -0.026189  0  3.973902  0  0  -0.023429  0  3.992347  0  0  -0.066192  -0.027722  0  3.961176  0
N  N62  1  0.34696448  0.40275078  0.71724184  1  0  -0.381506  0  3.258848  0  0  -0.333181  0  3.520837  0  0  -0.353645  0  3.54608  0  0  -0.371111  -0.318496  0  3.503169  0
N  N63  1  0.84696502  0.59724510  0.28275654  1  0  -0.381429  0  3.258831  0  0  -0.33312  0  3.520802  0  0  -0.353585  0  3.546045  0  0  -0.37106  -0.318434  0  3.503139  0
N  N64  1  0.36151221  0.20474730  0.42483660  1  0  -0.3805  0  3.230192  0  0  -0.331875  0  3.492326  0  0  -0.351342  0  3.515602  0  0  -0.359316  -0.318266  0  3.476398  0
N  N65  1  0.86151815  0.79525166  0.57516054  1  0  -0.38055  0  3.230114  0  0  -0.331912  0  3.492277  0  0  -0.35138  0  3.515554  0  0  -0.35934  -0.318298  0  3.476334  0
N  N66  1  0.36326416  0.69675523  0.78378467  1  0  -0.370399  0  3.230351  0  0  -0.321168  0  3.487328  0  0  -0.340497  0  3.510988  0  0  -0.355264  -0.307474  0  3.47082  0
N  N67  1  0.86326318  0.30324477  0.21621645  1  0  -0.370359  0  3.23035  0  0  -0.321115  0  3.487311  0  0  -0.340438  0  3.510967  0  0  -0.355198  -0.307418  0  3.470805  0
O  O68  1  0.63263578  0.44996973  0.61044510  1  0  -0.745731  0  2.0823  0  0  -0.686392  0  2.35368  0  0  -0.725332  0  2.346519  0  0  -0.420883  -0.65798  0  2.356935  0
O  O69  1  0.13263522  0.55003323  0.38955556  1  0  -0.745832  0  2.082147  0  0  -0.686436  0  2.353617  0  0  -0.725374  0  2.346455  0  0  -0.420915  -0.658019  0  2.356875  0
O  O70  1  0.80366306  0.40249607  0.74417110  1  0  -0.562021  0  1.934671  0  0  -0.522664  0  2.159865  0  0  -0.543564  0  2.150963  0  0  -0.289569  -0.508055  0  2.16555  0
O  O71  1  0.30366120  0.59750905  0.25583055  1  0  -0.562163  0  1.934503  0  0  -0.522743  0  2.159774  0  0  -0.543641  0  2.150868  0  0  -0.289593  -0.508124  0  2.165466  0
O  O72  1  0.06674470  0.34267871  0.46331360  1  0  -0.753831  0  2.112035  0  0  -0.696262  0  2.386897  0  0  -0.736009  0  2.381  0  0  -0.433016  -0.667153  0  2.389319  0
O  O73  1  0.56674923  0.65732217  0.53668610  1  0  -0.753849  0  2.111973  0  0  -0.696295  0  2.386809  0  0  -0.736038  0  2.38091  0  0  -0.432991  -0.66719  0  2.389227  0
O  O74  1  0.06803934  0.60435935  0.65282257  1  0  -0.742294  0  2.125704  0  0  -0.684305  0  2.401683  0  0  -0.723752  0  2.395726  0  0  -0.429563  -0.655484  0  2.404107  0
O  O75  1  0.56803848  0.39564049  0.34717666  1  0  -0.742274  0  2.125749  0  0  -0.684295  0  2.401702  0  0  -0.723763  0  2.395793  0  0  -0.429572  -0.655471  0  2.404131  0
O  O76  1  0.91086636  0.74579190  0.83170084  1  0  -0.574499  0  1.939431  0  0  -0.536602  0  2.172576  0  0  -0.558626  0  2.164689  0  0  -0.290808  -0.521211  0  2.177613  0
O  O77  1  0.41086549  0.25420607  0.16829937  1  0  -0.574497  0  1.939437  0  0  -0.536597  0  2.172567  0  0  -0.558619  0  2.164676  0  0  -0.290792  -0.521205  0  2.177605  0
O  O78  1  0.90872523  0.14905893  0.39557085  1  0  -0.565622  0  1.904386  0  0  -0.529506  0  2.125098  0  0  -0.550971  0  2.118067  0  0  -0.297167  -0.514228  0  2.129488  0
O  O79  1  0.40873267  0.85094418  0.60443080  1  0  -0.565687  0  1.904616  0  0  -0.529577  0  2.125304  0  0  -0.551045  0  2.118275  0  0  -0.297226  -0.514302  0  2.129687  0
