# generated using pymatgen
data_CdH24C22N2O7
_symmetry_space_group_name_H-M   'P 1'
_cell_length_a   7.67610696
_cell_length_b   16.49779571
_cell_length_c   21.22980879
_cell_angle_alpha   89.99990122
_cell_angle_beta   90.00029314
_cell_angle_gamma   100.30355755
_symmetry_Int_Tables_number   1
_chemical_formula_structural   CdH24C22N2O7
_chemical_formula_sum   'Cd4 H96 C88 N8 O28'
_cell_volume   2645.16322640
_cell_formula_units_Z   4
loop_
 _symmetry_equiv_pos_site_id
 _symmetry_equiv_pos_as_xyz
  1  'x, y, z'
loop_
 _atom_site_type_symbol
 _atom_site_label
 _atom_site_symmetry_multiplicity
 _atom_site_fract_x
 _atom_site_fract_y
 _atom_site_fract_z
 _atom_site_occupancy
 _atom_site_pbe_bader_charge
 _atom_site_pbe_bader_spin_density
 _atom_site_pbe_cm5_charge
 _atom_site_pbe_ddec_charge
 _atom_site_pbe_ddec_spin_density
 _atom_site_pbe_ddec_sum_bond_order
 _atom_site_pbe_magmom
Cd  Cd0  1  0.35033278  0.96318519  0.17202148  1  1.299267  0  0.748118  0.998222  0  2.071239  0
Cd  Cd1  1  0.14966118  0.03681514  0.67202501  1  1.299335  0  0.748106  0.998125  0  2.071371  0
Cd  Cd2  1  0.64966163  0.03680844  0.82797694  1  1.299328  0  0.748137  0.998233  0  2.071236  0
Cd  Cd3  1  0.85033392  0.96318652  0.32798094  1  1.299421  0  0.74813  0.998231  0  2.071267  0
H  H4  1  0.34257726  0.26862557  0.16842134  1  0.077139  0  0.094396  0.096763  0  1.042836  0
H  H5  1  0.15743957  0.73137031  0.66842395  1  0.077207  0  0.094418  0.096768  0  1.042752  0
H  H6  1  0.65742466  0.73137049  0.83157378  1  0.077094  0  0.09443  0.096879  0  1.042555  0
H  H7  1  0.84258867  0.26862004  0.33157917  1  0.077144  0  0.094447  0.096775  0  1.042772  0
H  H8  1  0.32764182  0.40051522  0.22499923  1  0.087869  0  0.099255  0.099104  0  1.006844  0
H  H9  1  0.17235244  0.59947765  0.72500016  1  0.089113  0  0.099276  0.099095  0  1.006899  0
H  H10  1  0.67235985  0.59948022  0.77499447  1  0.089057  0  0.099251  0.099053  0  1.006868  0
H  H11  1  0.82763528  0.40050924  0.27500061  1  0.08774  0  0.099265  0.099135  0  1.006801  0
H  H12  1  0.34216718  0.40710841  0.34045577  1  0.046718  0  0.092422  0.088834  0  1.063418  0
H  H13  1  0.15780945  0.59288508  0.84045433  1  0.046625  0  0.092501  0.088969  0  1.063321  0
H  H14  1  0.65782773  0.59288646  0.65953982  1  0.046576  0  0.092501  0.088899  0  1.063498  0
H  H15  1  0.84217590  0.40710553  0.15954550  1  0.04681  0  0.092428  0.088876  0  1.063333  0
H  H16  1  0.37242490  0.14850612  0.34686017  1  0.096764  0  0.101522  0.110932  0  1.011377  0
H  H17  1  0.12763002  0.85149059  0.84686304  1  0.097028  0  0.101506  0.110866  0  1.011412  0
H  H18  1  0.62761024  0.85149468  0.65313118  1  0.096805  0  0.101478  0.110901  0  1.011319  0
H  H19  1  0.87241223  0.14850214  0.15313867  1  0.096708  0  0.101553  0.110981  0  1.011283  0
H  H20  1  0.39819593  0.33162488  0.50516013  1  0.038679  0  0.112411  0.096322  0  0.953938  0
H  H21  1  0.10181693  0.66838292  0.00516502  1  0.038458  0  0.112447  0.096466  0  0.953786  0
H  H22  1  0.60180866  0.66836499  0.49483216  1  0.038521  0  0.112472  0.096502  0  0.953681  0
H  H23  1  0.89819367  0.33162791  0.99483998  1  0.038445  0  0.112412  0.096328  0  0.953958  0
H  H24  1  0.32225401  0.39500749  0.44911053  1  0.015609  0  0.098052  0.065298  0  1.040464  0
H  H25  1  0.17776227  0.60499306  0.94911994  1  0.015722  0  0.097998  0.065273  0  1.0405  0
H  H26  1  0.67773866  0.60497875  0.55088553  1  0.01537  0  0.098064  0.065286  0  1.040441  0
H  H27  1  0.82225829  0.39501030  0.05089355  1  0.015907  0  0.098054  0.065299  0  1.040389  0
H  H28  1  0.53176984  0.51342354  0.42713399  1  0.038837  0  0.098799  0.100282  0  1.014795  0
H  H29  1  0.96823248  0.48657807  0.92714409  1  0.03897  0  0.098736  0.100261  0  1.01485  0
H  H30  1  0.46822009  0.48657506  0.57286254  1  0.038878  0  0.098793  0.100287  0  1.014851  0
H  H31  1  0.03177461  0.51342104  0.07286704  1  0.038912  0  0.09879  0.100293  0  1.014792  0
H  H32  1  0.84329094  0.58390071  0.40996309  1  0.091291  0  0.102463  0.103647  0  1.021638  0
H  H33  1  0.65671320  0.41610276  0.90997083  1  0.091381  0  0.102466  0.103664  0  1.021511  0
H  H34  1  0.15669716  0.41609976  0.59002967  1  0.091235  0  0.102507  0.103727  0  1.021657  0
H  H35  1  0.34329147  0.58390316  0.09003747  1  0.091216  0  0.102499  0.103742  0  1.021693  0
H  H36  1  0.02066670  0.35323672  0.43588077  1  0.051125  0  0.10271  0.108862  0  1.005501  0
H  H37  1  0.47935842  0.64676996  0.93588314  1  0.051105  0  0.102654  0.108834  0  1.005511  0
H  H38  1  0.97933851  0.64676735  0.56412188  1  0.050914  0  0.102737  0.108934  0  1.005526  0
H  H39  1  0.52067871  0.35323885  0.06411386  1  0.053405  0  0.102746  0.108941  0  1.00551  0
H  H40  1  0.71219751  0.28296323  0.45136298  1  0.034702  0  0.102157  0.10043  0  0.994267  0
H  H41  1  0.78782541  0.71704010  0.95136585  1  0.034791  0  0.102145  0.100435  0  0.994258  0
H  H42  1  0.28780597  0.71703344  0.54863638  1  0.034767  0  0.102105  0.100313  0  0.994421  0
H  H43  1  0.21220605  0.28296443  0.04863586  1  0.03476  0  0.102136  0.100383  0  0.994276  0
H  H44  1  0.20259900  0.52041209  0.46631727  1  0.065097  0  0.10252  0.073697  0  1.073147  0
H  H45  1  0.29741821  0.47959646  0.96631671  1  0.065174  0  0.102554  0.073675  0  1.073203  0
H  H46  1  0.79740923  0.47957714  0.53368161  1  0.06522  0  0.102522  0.073732  0  1.073169  0
H  H47  1  0.70261404  0.52040683  0.03368595  1  0.065038  0  0.102506  0.073676  0  1.073057  0
H  H48  1  0.21849222  0.48095432  0.38984795  1  0.001211  0  0.098513  0.063368  0  1.037497  0
H  H49  1  0.28152233  0.51905679  0.88984966  1  0.000784  0  0.098519  0.063315  0  1.037468  0
H  H50  1  0.78149543  0.51903874  0.61014858  1  0.001698  0  0.098528  0.063384  0  1.037564  0
H  H51  1  0.71848725  0.48095157  0.11015488  1  0.001014  0  0.09847  0.063312  0  1.037485  0
H  H52  1  0.08150444  0.49165424  0.30193511  1  0.063944  0  0.096995  0.097741  0  1.049883  0
H  H53  1  0.41844185  0.50835552  0.80193378  1  0.063855  0  0.097033  0.097666  0  1.050119  0
H  H54  1  0.91843972  0.50834711  0.69806943  1  0.064025  0  0.097049  0.097667  0  1.049984  0
H  H55  1  0.58151493  0.49165749  0.19806557  1  0.063991  0  0.097036  0.097763  0  1.049919  0
H  H56  1  0.08826141  0.52406412  0.18950073  1  0.045974  0  0.091385  0.084479  0  1.043689  0
H  H57  1  0.41164847  0.47594658  0.68949896  1  0.043581  0  0.091388  0.084508  0  1.043651  0
H  H58  1  0.91161207  0.47593642  0.81050381  1  0.043491  0  0.091396  0.084471  0  1.043731  0
H  H59  1  0.58826386  0.52406607  0.31049851  1  0.045836  0  0.091368  0.084494  0  1.043589  0
H  H60  1  0.17497908  0.67075786  0.15233834  1  0.061423  0  0.094061  0.095381  0  1.028602  0
H  H61  1  0.32495681  0.32925087  0.65233850  1  0.061358  0  0.093985  0.095274  0  1.028531  0
H  H62  1  0.82490844  0.32924197  0.84766525  1  0.061128  0  0.093976  0.095196  0  1.028725  0
H  H63  1  0.67500129  0.67075904  0.34765803  1  0.061515  0  0.094048  0.095363  0  1.028527  0
H  H64  1  0.25215179  0.75017788  0.34449223  1  0.051682  0  0.100372  0.111617  0  1.006474  0
H  H65  1  0.24788487  0.24982203  0.84449754  1  0.051659  0  0.10038  0.111577  0  1.006509  0
H  H66  1  0.74792428  0.24981156  0.65550618  1  0.05145  0  0.100414  0.111505  0  1.006673  0
H  H67  1  0.75214453  0.75018066  0.15550276  1  0.051474  0  0.100336  0.111523  0  1.006509  0
H  H68  1  0.37015882  0.22336577  0.43790804  1  0.426975  0  0.31203  0.25852  0  0.943661  0
H  H69  1  0.12986953  0.77663286  0.93790489  1  0.427167  0  0.312065  0.258566  0  0.94365  0
H  H70  1  0.62986237  0.77662647  0.56208425  1  0.427078  0  0.312122  0.258597  0  0.943533  0
H  H71  1  0.87015083  0.22336370  0.06209070  1  0.42696  0  0.312019  0.258502  0  0.943643  0
H  H72  1  0.21681192  0.64737366  0.42555094  1  0.423338  0  0.306354  0.250595  0  0.973835  0
H  H73  1  0.28320811  0.35263369  0.92555570  1  0.423338  0  0.306367  0.250616  0  0.973732  0
H  H74  1  0.78319833  0.35262050  0.57444936  1  0.423323  0  0.306384  0.250656  0  0.973726  0
H  H75  1  0.71681267  0.64737338  0.07444413  1  0.423228  0  0.306354  0.25063  0  0.973871  0
H  H76  1  0.71513687  0.01136116  0.18841449  1  0.631293  0  0.291354  0.383361  0  0.956932  0
H  H77  1  0.78486408  0.98865181  0.68842029  1  0.631267  0  0.291348  0.383305  0  0.956945  0
H  H78  1  0.28486029  0.98864234  0.81158439  1  0.631292  0  0.29131  0.383307  0  0.957021  0
H  H79  1  0.21514101  0.01136461  0.31158001  1  0.631217  0  0.29134  0.383406  0  0.956894  0
H  H80  1  0.67716946  0.91654531  0.18214860  1  0.649111  0  0.294874  0.39275  0  0.938283  0
H  H81  1  0.82282956  0.08346953  0.68216840  1  0.649832  0  0.294734  0.392581  0  0.938579  0
H  H82  1  0.32284872  0.08346177  0.81784369  1  0.649955  0  0.2948  0.392632  0  0.938417  0
H  H83  1  0.17717057  0.91654753  0.31784556  1  0.649483  0  0.294866  0.392732  0  0.938298  0
H  H84  1  0.96897662  0.91687547  0.18482200  1  0.645795  0  0.298038  0.401029  0  0.928361  0
H  H85  1  0.53101401  0.08312522  0.68482289  1  0.64582  0  0.298039  0.401078  0  0.928297  0
H  H86  1  0.03102701  0.08313108  0.81517924  1  0.645732  0  0.298026  0.401005  0  0.928381  0
H  H87  1  0.46897488  0.91687401  0.31517976  1  0.645786  0  0.298046  0.400991  0  0.928407  0
H  H88  1  0.00695515  0.01246347  0.18785708  1  0.634462  0  0.298588  0.396573  0  0.933924  0
H  H89  1  0.49304296  0.98753374  0.68785431  1  0.634428  0  0.298571  0.396585  0  0.933902  0
H  H90  1  0.99305447  0.98754181  0.81214463  1  0.634429  0  0.29859  0.396604  0  0.933882  0
H  H91  1  0.50695766  0.01246233  0.31214457  1  0.634504  0  0.298589  0.39658  0  0.933934  0
H  H92  1  0.30959606  0.03633440  0.05382458  1  0.632461  0  0.326158  0.410029  0  0.867869  0
H  H93  1  0.19039495  0.96366607  0.55382788  1  0.632465  0  0.326158  0.410074  0  0.867757  0
H  H94  1  0.69041052  0.96366349  0.94617949  1  0.632483  0  0.326196  0.410101  0  0.867846  0
H  H95  1  0.80959467  0.03633809  0.44617713  1  0.632391  0  0.326223  0.410172  0  0.867878  0
H  H96  1  0.14405882  0.97859726  0.08065494  1  0.632317  0  0.300576  0.3956  0  0.917682  0
H  H97  1  0.35593570  0.02140131  0.58065980  1  0.632382  0  0.300513  0.395511  0  0.917805  0
H  H98  1  0.85594148  0.02140437  0.91934819  1  0.632338  0  0.300579  0.395604  0  0.917686  0
H  H99  1  0.64405813  0.97859727  0.41934850  1  0.63233  0  0.300593  0.395614  0  0.917666  0
C  C100  1  0.36806063  0.12190547  0.22243372  1  1.485323  0  0.201763  0.583595  0  4.171065  0
C  C101  1  0.13195198  0.87809409  0.72243845  1  1.484903  0  0.201788  0.583419  0  4.171169  0
C  C102  1  0.63195559  0.87809051  0.77755668  1  1.484591  0  0.201896  0.583692  0  4.170712  0
C  C103  1  0.86805853  0.12190069  0.27756468  1  1.485057  0  0.201814  0.583606  0  4.171101  0
C  C104  1  0.35909229  0.20112094  0.25461388  1  -0.089707  0  -0.02391  -0.022535  0  4.018611  0
C  C105  1  0.14093560  0.79887664  0.75461214  1  -0.089759  0  -0.023936  -0.022517  0  4.018642  0
C  C106  1  0.64091588  0.79887446  0.74537793  1  -0.09019  0  -0.023958  -0.02242  0  4.018252  0
C  C107  1  0.85909311  0.20111803  0.24538534  1  -0.089598  0  -0.023918  -0.022582  0  4.018595  0
C  C108  1  0.34635042  0.27190365  0.21954285  1  -0.018634  0  -0.097372  -0.119639  0  3.989672  0
C  C109  1  0.15366709  0.72809527  0.71954499  1  -0.018328  0  -0.097403  -0.119678  0  3.989714  0
C  C110  1  0.65365334  0.72809055  0.78045038  1  -0.017781  0  -0.097573  -0.120105  0  3.989871  0
C  C111  1  0.84635382  0.27189945  0.28045672  1  -0.018816  0  -0.097346  -0.119513  0  3.989679  0
C  C112  1  0.33933492  0.34499855  0.25138388  1  -0.002726  0  -0.090829  -0.061067  0  4.031416  0
C  C113  1  0.16067216  0.65499608  0.75138283  1  -0.004196  0  -0.090838  -0.061047  0  4.031231  0
C  C114  1  0.66067140  0.65499872  0.74861312  1  -0.003761  0  -0.090764  -0.060831  0  4.031449  0
C  C115  1  0.83934282  0.34499373  0.24861558  1  -0.002409  0  -0.090921  -0.061232  0  4.031524  0
C  C116  1  0.34580876  0.34865621  0.31706747  1  -0.079327  0  -0.102039  -0.183763  0  3.951136  0
C  C117  1  0.15421040  0.65134013  0.81706594  1  -0.079295  0  -0.102212  -0.183912  0  3.95117  0
C  C118  1  0.65420042  0.65134166  0.68292765  1  -0.07895  0  -0.102148  -0.183908  0  3.951248  0
C  C119  1  0.84580535  0.34865153  0.18293200  1  -0.079298  0  -0.102021  -0.183818  0  3.950956  0
C  C120  1  0.35424374  0.27750049  0.35273906  1  0.38705  0  0.091029  0.236748  0  4.090365  0
C  C121  1  0.14578115  0.72249269  0.85273790  1  0.386864  0  0.091053  0.236796  0  4.090261  0
C  C122  1  0.64577146  0.72249302  0.64725275  1  0.386796  0  0.090988  0.236846  0  4.090229  0
C  C123  1  0.85424293  0.27749706  0.14726051  1  0.387031  0  0.091045  0.236779  0  4.090271  0
C  C124  1  0.36207032  0.20409688  0.32034929  1  0.012958  0  -0.098173  -0.203911  0  3.939894  0
C  C125  1  0.13795437  0.79589695  0.82035131  1  0.012992  0  -0.098076  -0.203814  0  3.939661  0
C  C126  1  0.63795106  0.79590215  0.67964065  1  0.01304  0  -0.097973  -0.203883  0  3.939411  0
C  C127  1  0.86206971  0.20409280  0.17964899  1  0.01286  0  -0.098204  -0.203915  0  3.939833  0
C  C128  1  0.41149198  0.35046604  0.45540179  1  0.35693  0  -0.058315  -0.063066  0  3.999469  0
C  C129  1  0.08852464  0.64953512  0.95540910  1  0.35676  0  -0.05828  -0.063051  0  3.999393  0
C  C130  1  0.58850192  0.64952637  0.54459144  1  0.357126  0  -0.058438  -0.063319  0  3.999434  0
C  C131  1  0.91149722  0.35046823  0.04459921  1  0.356933  0  -0.058305  -0.063078  0  3.99933  0
C  C132  1  0.59997861  0.39358582  0.44245222  1  -0.008191  0  -0.019147  0.069023  0  3.987789  0
C  C133  1  0.90004029  0.60641753  0.94245685  1  -0.006944  0  -0.019208  0.068859  0  3.987931  0
C  C134  1  0.40002281  0.60640901  0.55754619  1  -0.008417  0  -0.019192  0.06882  0  3.987971  0
C  C135  1  0.09998131  0.39358520  0.05754674  1  -0.00817  0  -0.019163  0.069031  0  3.987768  0
C  C136  1  0.63902220  0.47803693  0.42943889  1  -0.088649  0  -0.09411  -0.143233  0  4.007393  0
C  C137  1  0.86099081  0.52196524  0.92945158  1  -0.089204  0  -0.094008  -0.143187  0  4.00759  0
C  C138  1  0.36097500  0.52196348  0.57056470  1  -0.088364  0  -0.094128  -0.143182  0  4.007183  0
C  C139  1  0.13903054  0.47803688  0.07056003  1  -0.088599  0  -0.094147  -0.143286  0  4.007327  0
C  C140  1  0.81347447  0.51803301  0.41988924  1  -0.015442  0  -0.090886  -0.125948  0  3.981593  0
C  C141  1  0.68654281  0.48197037  0.91989177  1  -0.015681  0  -0.090965  -0.12592  0  3.981413  0
C  C142  1  0.18651107  0.48196438  0.58011058  1  -0.015409  0  -0.090898  -0.125936  0  3.981311  0
C  C143  1  0.31348576  0.51803665  0.08011088  1  -0.01533  0  -0.090862  -0.126016  0  3.981608  0
C  C144  1  0.95311209  0.47446157  0.42332325  1  -0.093792  0  -0.011251  0.087236  0  3.949636  0
C  C145  1  0.54689690  0.52554371  0.92332641  1  -0.093558  0  -0.011214  0.08698  0  3.949817  0
C  C146  1  0.04688720  0.52553759  0.57667422  1  -0.093822  0  -0.011279  0.087162  0  3.949636  0
C  C147  1  0.45311272  0.47446156  0.07667248  1  -0.093998  0  -0.011262  0.087239  0  3.949675  0
C  C148  1  0.91431541  0.38925186  0.43432667  1  0.004827  0  -0.088686  -0.125775  0  3.962475  0
C  C149  1  0.58570958  0.61075393  0.93433496  1  0.005278  0  -0.088765  -0.125839  0  3.962467  0
C  C150  1  0.08568644  0.61075038  0.56566939  1  0.005021  0  -0.08874  -0.125893  0  3.962615  0
C  C151  1  0.41432625  0.38925489  0.06566722  1  0.002393  0  -0.088724  -0.125903  0  3.962527  0
C  C152  1  0.74016439  0.34954792  0.44371193  1  -0.091008  0  -0.094189  -0.134528  0  4.002088  0
C  C153  1  0.75986308  0.65045724  0.94371295  1  -0.092099  0  -0.094051  -0.134317  0  4.001772  0
C  C154  1  0.25983180  0.65045003  0.55628979  1  -0.091001  0  -0.094073  -0.134204  0  4.002065  0
C  C155  1  0.24017535  0.34955157  0.05628782  1  -0.090954  0  -0.094177  -0.134461  0  4.00203  0
C  C156  1  0.14414005  0.51838520  0.41904784  1  0.399547  0  -0.061921  -0.073933  0  4.020727  0
C  C157  1  0.35587675  0.48162402  0.91905114  1  0.39981  0  -0.06192  -0.07375  0  4.020628  0
C  C158  1  0.85585746  0.48160965  0.58095199  1  0.398955  0  -0.061814  -0.073846  0  4.020961  0
C  C159  1  0.64414143  0.51838306  0.08095245  1  0.399808  0  -0.061855  -0.073709  0  4.020639  0
C  C160  1  0.16850953  0.61846105  0.33194385  1  0.343454  0  0.094556  0.240461  0  4.098919  0
C  C161  1  0.33149880  0.38154646  0.83194772  1  0.34333  0  0.094691  0.240507  0  4.098528  0
C  C162  1  0.83151474  0.38153549  0.66805739  1  0.344157  0  0.094665  0.24079  0  4.09862  0
C  C163  1  0.66850533  0.61846133  0.16805352  1  0.343155  0  0.094596  0.240593  0  4.098456  0
C  C164  1  0.12112063  0.55545900  0.28707675  1  -0.055661  0  -0.10506  -0.192014  0  3.954952  0
C  C165  1  0.37885744  0.44454935  0.78708015  1  -0.055801  0  -0.10507  -0.191924  0  3.955118  0
C  C166  1  0.87885036  0.44453787  0.71292214  1  -0.055536  0  -0.105117  -0.19206  0  3.955106  0
C  C167  1  0.62112536  0.55546041  0.21292251  1  -0.055676  0  -0.10505  -0.192002  0  3.955227  0
C  C168  1  0.12393026  0.57422804  0.22305402  1  0.07598  0  -0.094098  -0.057885  0  4.049848  0
C  C169  1  0.37601883  0.42578178  0.72305603  1  0.078479  0  -0.094188  -0.058068  0  4.049852  0
C  C170  1  0.87599733  0.42576785  0.77694816  1  0.078162  0  -0.094084  -0.057981  0  4.049947  0
C  C171  1  0.62393275  0.57423126  0.27694427  1  0.076225  0  -0.094049  -0.057857  0  4.049857  0
C  C172  1  0.17228416  0.65497647  0.20213060  1  -0.114294  0  -0.104691  -0.131256  0  4.003269  0
C  C173  1  0.32766023  0.34503217  0.70213357  1  -0.113856  0  -0.10464  -0.131038  0  4.003296  0
C  C174  1  0.82763481  0.34502380  0.79787346  1  -0.113369  0  -0.104708  -0.130965  0  4.003288  0
C  C175  1  0.67229759  0.65498022  0.29786484  1  -0.114176  0  -0.104728  -0.1313  0  4.003158  0
C  C176  1  0.21746713  0.71818077  0.24665903  1  -0.031708  0  -0.022858  -0.018985  0  4.023862  0
C  C177  1  0.28253329  0.28182316  0.74666059  1  -0.031807  0  -0.022806  -0.019059  0  4.024001  0
C  C178  1  0.78250911  0.28180989  0.75334363  1  -0.032288  0  -0.022597  -0.018795  0  4.023708  0
C  C179  1  0.71748175  0.71818579  0.25333547  1  -0.032238  0  -0.022762  -0.018842  0  4.023683  0
C  C180  1  0.21513082  0.70009374  0.31082919  1  0.067911  0  -0.098793  -0.205004  0  3.944265  0
C  C181  1  0.28488245  0.29991067  0.81083167  1  0.06757  0  -0.098807  -0.205018  0  3.94419  0
C  C182  1  0.78490625  0.29989594  0.68917252  1  0.067685  0  -0.098981  -0.205184  0  3.944392  0
C  C183  1  0.71513649  0.70009826  0.18916628  1  0.068499  0  -0.098837  -0.205048  0  3.944249  0
C  C184  1  0.26839390  0.80525473  0.22589717  1  1.510492  0  0.202119  0.582495  0  4.184697  0
C  C185  1  0.23158594  0.19475058  0.72589640  1  1.510329  0  0.202115  0.5826  0  4.184723  0
C  C186  1  0.73155058  0.19474106  0.77410690  1  1.510692  0  0.202168  0.582742  0  4.184746  0
C  C187  1  0.76841170  0.80525724  0.27409872  1  1.510647  0  0.202113  0.582614  0  4.184577  0
N  N188  1  0.35008306  0.27693698  0.41823847  1  -1.185375  0  -0.451001  -0.359359  0  3.544675  0
N  N189  1  0.14994480  0.72305797  0.91824108  1  -1.185504  0  -0.451021  -0.359455  0  3.544529  0
N  N190  1  0.64992723  0.72305409  0.58175476  1  -1.185658  0  -0.451044  -0.359379  0  3.544659  0
N  N191  1  0.85009117  0.27693850  0.08176063  1  -1.185402  0  -0.450991  -0.359338  0  3.544598  0
N  N192  1  0.16977013  0.60115271  0.39545645  1  -1.213307  0  -0.449491  -0.343616  0  3.632397  0
N  N193  1  0.33024793  0.39885405  0.89545982  1  -1.2131  0  -0.449615  -0.343579  0  3.631861  0
N  N194  1  0.83025781  0.39884010  0.60454338  1  -1.213716  0  -0.449633  -0.343832  0  3.632381  0
N  N195  1  0.66978353  0.60115048  0.10454001  1  -1.213058  0  -0.44953  -0.343821  0  3.632296  0
O  O196  1  0.36551660  0.11583484  0.16317742  1  -1.134989  0  -0.332924  -0.557999  0  2.109549  0
O  O197  1  0.13444240  0.88416634  0.66318308  1  -1.134769  0  -0.332834  -0.557826  0  2.10959  0
O  O198  1  0.63449102  0.88416242  0.83681299  1  -1.134492  0  -0.332932  -0.557951  0  2.109385  0
O  O199  1  0.86552732  0.11582745  0.33682004  1  -1.134817  0  -0.332849  -0.557933  0  2.109815  0
O  O200  1  0.37464943  0.05747180  0.25760366  1  -1.206462  0  -0.340883  -0.629961  0  2.32546  0
O  O201  1  0.12538003  0.94252947  0.75761158  1  -1.206291  0  -0.340962  -0.629905  0  2.325427  0
O  O202  1  0.62536806  0.94252725  0.74238863  1  -1.206333  0  -0.340925  -0.630026  0  2.325487  0
O  O203  1  0.87463644  0.05746712  0.24239343  1  -1.20635  0  -0.341006  -0.630047  0  2.325324  0
O  O204  1  0.30199561  0.86278490  0.26768652  1  -1.225412  0  -0.337945  -0.62905  0  2.284244  0
O  O205  1  0.19799886  0.13721967  0.76768435  1  -1.225376  0  -0.337957  -0.629091  0  2.28448  0
O  O206  1  0.69799566  0.13721061  0.73231566  1  -1.225774  0  -0.338013  -0.62922  0  2.284389  0
O  O207  1  0.80198737  0.86278575  0.23230889  1  -1.225702  0  -0.337957  -0.62919  0  2.284278  0
O  O208  1  0.27692197  0.82181310  0.16720281  1  -1.138766  0  -0.333311  -0.543569  0  2.143859  0
O  O209  1  0.22302355  0.17819001  0.66720204  1  -1.13873  0  -0.333367  -0.543612  0  2.143799  0
O  O210  1  0.72296742  0.17818179  0.83280126  1  -1.138565  0  -0.333417  -0.543691  0  2.143838  0
O  O211  1  0.77696607  0.82181416  0.33279307  1  -1.138817  0  -0.333344  -0.543599  0  2.143846  0
O  O212  1  0.64478738  0.96658533  0.16270795  1  -1.233482  0  -0.591038  -0.749863  0  2.066181  0
O  O213  1  0.85521571  0.03343692  0.66272081  1  -1.234194  0  -0.59091  -0.749663  0  2.06638  0
O  O214  1  0.35521235  0.03342125  0.83728763  1  -1.234371  0  -0.590927  -0.749742  0  2.066257  0
O  O215  1  0.14479111  0.96658690  0.33728608  1  -1.233768  0  -0.591025  -0.749898  0  2.066129  0
O  O216  1  0.04327475  0.96577337  0.16505976  1  -1.243644  0  -0.581519  -0.775619  0  2.089628  0
O  O217  1  0.45671626  0.03422637  0.66506055  1  -1.243625  0  -0.581484  -0.775654  0  2.0896  0
O  O218  1  0.95672837  0.03423194  0.83494007  1  -1.243515  0  -0.581491  -0.775619  0  2.089596  0
O  O219  1  0.54327318  0.96577100  0.33494163  1  -1.243661  0  -0.581521  -0.77563  0  2.089692  0
O  O220  1  0.26128889  0.97847024  0.06174013  1  -1.217008  0  -0.579158  -0.731428  0  1.923191  0
O  O221  1  0.23870822  0.02152895  0.56174478  1  -1.21706  0  -0.579108  -0.731386  0  1.923208  0
O  O222  1  0.73870704  0.02152709  0.93825876  1  -1.217063  0  -0.579178  -0.731498  0  1.923226  0
O  O223  1  0.76128869  0.97847394  0.43826211  1  -1.216991  0  -0.579231  -0.731568  0  1.923292  0
