# generated using pymatgen
data_CdH18C28(NO)4
_symmetry_space_group_name_H-M   'P 1'
_cell_length_a   12.21111362
_cell_length_b   12.21338928
_cell_length_c   13.67500000
_cell_angle_alpha   67.78308903
_cell_angle_beta   67.77872782
_cell_angle_gamma   83.33814586
_symmetry_Int_Tables_number   1
_chemical_formula_structural   CdH18C28(NO)4
_chemical_formula_sum   'Cd2 H36 C56 N8 O8'
_cell_volume   1746.97130564
_cell_formula_units_Z   2
loop_
 _symmetry_equiv_pos_site_id
 _symmetry_equiv_pos_as_xyz
  1  'x, y, z'
loop_
 _atom_site_type_symbol
 _atom_site_label
 _atom_site_symmetry_multiplicity
 _atom_site_fract_x
 _atom_site_fract_y
 _atom_site_fract_z
 _atom_site_occupancy
 _atom_site_hle17_bader_spin_density
 _atom_site_hle17_ddec_charge
 _atom_site_hle17_ddec_spin_density
 _atom_site_hle17_ddec_sum_bond_order
 _atom_site_hle17_magmom
 _atom_site_hse06_10hf_bader_spin_density
 _atom_site_hse06_10hf_ddec_charge
 _atom_site_hse06_10hf_ddec_spin_density
 _atom_site_hse06_10hf_ddec_sum_bond_order
 _atom_site_hse06_10hf_magmom
 _atom_site_hse06_bader_spin_density
 _atom_site_hse06_ddec_charge
 _atom_site_hse06_ddec_spin_density
 _atom_site_hse06_ddec_sum_bond_order
 _atom_site_hse06_magmom
 _atom_site_pbe_bader_spin_density
 _atom_site_pbe_cm5_charge
 _atom_site_pbe_ddec_charge
 _atom_site_pbe_ddec_spin_density
 _atom_site_pbe_ddec_sum_bond_order
 _atom_site_pbe_magmom
Cd  Cd0  1  0.65343604  0.34652273  0.25001290  1  0  1.091958  0  1.714069  0  0  0.909919  0  2.164884  0  0  0.967701  0  2.113072  0  0  0.767894  0.869192  0  2.199593  0
Cd  Cd1  1  0.34656344  0.65347746  0.74998882  1  0  1.09194  0  1.714121  0  0  0.909889  0  2.164956  0  0  0.967672  0  2.113141  0  0  0.76789  0.869161  0  2.199664  0
H  H2  1  0.68916410  0.59580404  0.28443859  1  0  0.100358  0  0.918944  0  0  0.111709  0  0.978589  0  0  0.114116  0  0.975515  0  0  0.143319  0.109812  0  0.981031  0
H  H3  1  0.40422446  0.31089064  0.21552832  1  0  0.100412  0  0.918868  0  0  0.111693  0  0.978652  0  0  0.114096  0  0.975587  0  0  0.143339  0.109823  0  0.981059  0
H  H4  1  0.31083451  0.40419615  0.71556342  1  0  0.100352  0  0.918952  0  0  0.111693  0  0.978615  0  0  0.114099  0  0.975541  0  0  0.143305  0.109801  0  0.98105  0
H  H5  1  0.59577588  0.68910867  0.78447267  1  0  0.100432  0  0.918893  0  0  0.111734  0  0.978643  0  0  0.114138  0  0.975576  0  0  0.143344  0.109864  0  0.981051  0
H  H6  1  0.36431701  0.29128184  0.45691694  1  0  0.118641  0  0.9378  0  0  0.131232  0  0.993768  0  0  0.134315  0  0.992359  0  0  0.109212  0.128983  0  0.994938  0
H  H7  1  0.70878102  0.63569592  0.04307078  1  0  0.11884  0  0.93794  0  0  0.13139  0  0.993912  0  0  0.134471  0  0.99251  0  0  0.109332  0.129142  0  0.995077  0
H  H8  1  0.63568248  0.70871835  0.54308405  1  0  0.118669  0  0.937793  0  0  0.131258  0  0.99376  0  0  0.134342  0  0.992351  0  0  0.109216  0.12901  0  0.994929  0
H  H9  1  0.29122021  0.36430339  0.95692992  1  0  0.118865  0  0.937927  0  0  0.131411  0  0.9939  0  0  0.134491  0  0.992502  0  0  0.109353  0.129163  0  0.995065  0
H  H10  1  0.15341647  0.34627055  0.53982803  1  0  0.089083  0  0.941815  0  0  0.104199  0  0.991243  0  0  0.106814  0  0.990813  0  0  0.102528  0.102336  0  0.991609  0
H  H11  1  0.65375976  0.84656132  0.96017669  1  0  0.089025  0  0.941651  0  0  0.104115  0  0.991134  0  0  0.106732  0  0.990701  0  0  0.10248  0.102251  0  0.9915  0
H  H12  1  0.84658296  0.65372788  0.46017284  1  0  0.089125  0  0.941772  0  0  0.104243  0  0.991195  0  0  0.106857  0  0.990766  0  0  0.102545  0.102379  0  0.991562  0
H  H13  1  0.34624238  0.15343887  0.03982267  1  0  0.08901  0  0.941639  0  0  0.104096  0  0.991128  0  0  0.106712  0  0.990696  0  0  0.102472  0.102233  0  0.991494  0
H  H14  1  0.10511326  0.55051355  0.53308519  1  0  0.088429  0  0.954478  0  0  0.100816  0  1.011093  0  0  0.103036  0  1.011109  0  0  0.099058  0.099142  0  1.011327  0
H  H15  1  0.44947433  0.89483295  0.96693941  1  0  0.088474  0  0.954239  0  0  0.1008  0  1.010931  0  0  0.103017  0  1.010952  0  0  0.099094  0.099129  0  1.011165  0
H  H16  1  0.89488440  0.44948487  0.46691335  1  0  0.088421  0  0.95445  0  0  0.10082  0  1.011058  0  0  0.103039  0  1.011075  0  0  0.09907  0.099144  0  1.011293  0
H  H17  1  0.55052693  0.10516724  0.03306171  1  0  0.088491  0  0.954238  0  0  0.100821  0  1.010929  0  0  0.103037  0  1.010951  0  0  0.099101  0.09915  0  1.011163  0
H  H18  1  0.26163646  0.70711761  0.44744361  1  0  0.114393  0  0.946951  0  0  0.125993  0  1.00309  0  0  0.129236  0  1.001165  0  0  0.109926  0.12369  0  1.004499  0
H  H19  1  0.29285686  0.73832534  0.05257586  1  0  0.114433  0  0.94697  0  0  0.126042  0  1.003089  0  0  0.129284  0  1.001165  0  0  0.109916  0.12374  0  1.004497  0
H  H20  1  0.73836037  0.29288258  0.55255608  1  0  0.114383  0  0.947005  0  0  0.126005  0  1.003114  0  0  0.129249  0  1.001186  0  0  0.109929  0.123703  0  1.004523  0
H  H21  1  0.70714437  0.26167397  0.94742410  1  0  0.114441  0  0.946987  0  0  0.126051  0  1.003099  0  0  0.129293  0  1.001174  0  0  0.109914  0.123751  0  1.004504  0
H  H22  1  0.39634554  0.76808630  0.48839129  1  0  0.116456  0  0.954495  0  0  0.12497  0  1.019527  0  0  0.128304  0  1.017408  0  0  0.110416  0.122521  0  1.021302  0
H  H23  1  0.23192164  0.60364314  0.01162389  1  0  0.116383  0  0.954588  0  0  0.124952  0  1.019606  0  0  0.128288  0  1.017484  0  0  0.110362  0.122524  0  1.021359  0
H  H24  1  0.60365221  0.23191478  0.51160998  1  0  0.116437  0  0.954439  0  0  0.124959  0  1.01947  0  0  0.128292  0  1.017352  0  0  0.110395  0.122509  0  1.021247  0
H  H25  1  0.76807793  0.39635971  0.98837397  1  0  0.11643  0  0.954569  0  0  0.124966  0  1.019625  0  0  0.128301  0  1.017504  0  0  0.110375  0.122543  0  1.021371  0
H  H26  1  0.43753088  0.97858182  0.44818319  1  0  0.111254  0  0.93863  0  0  0.12059  0  0.996831  0  0  0.124073  0  0.994325  0  0  0.109565  0.11812  0  0.998595  0
H  H27  1  0.02138517  0.56245315  0.05184081  1  0  0.111317  0  0.938588  0  0  0.120643  0  0.996794  0  0  0.124128  0  0.994285  0  0  0.109622  0.118171  0  0.99856  0
H  H28  1  0.56246864  0.02141925  0.55181676  1  0  0.111273  0  0.938596  0  0  0.120608  0  0.9968  0  0  0.124091  0  0.994292  0  0  0.109568  0.118137  0  0.998565  0
H  H29  1  0.97861346  0.43754792  0.94816016  1  0  0.111298  0  0.938622  0  0  0.120627  0  0.996826  0  0  0.124112  0  0.994317  0  0  0.109614  0.118155  0  0.998592  0
H  H30  1  0.71657470  0.00284133  0.13331978  1  0  0.105255  0  0.931986  0  0  0.116447  0  0.986839  0  0  0.120167  0  0.984121  0  0  0.107538  0.113731  0  0.988884  0
H  H31  1  0.99714427  0.28342947  0.36666189  1  0  0.105349  0  0.93219  0  0  0.116531  0  0.987016  0  0  0.120254  0  0.984294  0  0  0.107554  0.113817  0  0.989058  0
H  H32  1  0.28342385  0.99715709  0.86668213  1  0  0.105263  0  0.931988  0  0  0.116467  0  0.986826  0  0  0.120187  0  0.984107  0  0  0.107547  0.11375  0  0.988871  0
H  H33  1  0.00285696  0.71656984  0.63333588  1  0  0.105362  0  0.932201  0  0  0.11655  0  0.987014  0  0  0.120268  0  0.984295  0  0  0.107549  0.113831  0  0.989063  0
H  H34  1  0.67091968  0.79342023  0.16796265  1  0  0.10074  0  0.961374  0  0  0.111886  0  1.020709  0  0  0.114684  0  1.020035  0  0  0.104013  0.109976  0  1.021219  0
H  H35  1  0.20660242  0.32909426  0.33201564  1  0  0.100763  0  0.961278  0  0  0.111914  0  1.02065  0  0  0.114712  0  1.019975  0  0  0.10399  0.110004  0  1.021161  0
H  H36  1  0.32907799  0.20657819  0.83203955  1  0  0.100779  0  0.961323  0  0  0.111924  0  1.02065  0  0  0.114722  0  1.019976  0  0  0.104023  0.110015  0  1.021161  0
H  H37  1  0.79339881  0.67090504  0.66798287  1  0  0.10076  0  0.96128  0  0  0.111945  0  1.02061  0  0  0.114741  0  1.019935  0  0  0.104003  0.110034  0  1.021122  0
C  C38  1  0.59569498  0.57068602  0.32492940  1  0  0.220174  0  3.651346  0  0  0.152926  0  3.932789  0  0  0.171067  0  3.942679  0  0  0.163794  0.141161  0  3.925812  0
C  C39  1  0.42934368  0.40433950  0.17504542  1  0  0.219865  0  3.651216  0  0  0.152614  0  3.932777  0  0  0.170754  0  3.942663  0  0  0.16352  0.140832  0  3.925788  0
C  C40  1  0.40430274  0.42931417  0.67507218  1  0  0.220187  0  3.651265  0  0  0.152931  0  3.93271  0  0  0.171074  0  3.9426  0  0  0.163816  0.141162  0  3.925731  0
C  C41  1  0.57065667  0.59565981  0.82495339  1  0  0.219759  0  3.651426  0  0  0.152482  0  3.932974  0  0  0.170622  0  3.942865  0  0  0.163482  0.1407  0  3.925987  0
C  C42  1  0.42975746  0.46946355  0.40576737  1  0  0.148353  0  3.818898  0  0  0.141644  0  4.074427  0  0  0.145222  0  4.097874  0  0  0.081512  0.139129  0  4.058671  0
C  C43  1  0.53057279  0.57025332  0.09422564  1  0  0.148198  0  3.818958  0  0  0.141639  0  4.074374  0  0  0.145219  0  4.097817  0  0  0.081541  0.139123  0  4.058618  0
C  C44  1  0.57024114  0.53053664  0.59423391  1  0  0.148336  0  3.818943  0  0  0.141634  0  4.074477  0  0  0.14521  0  4.097925  0  0  0.08152  0.139119  0  4.058721  0
C  C45  1  0.46942847  0.42974688  0.90577183  1  0  0.148178  0  3.819027  0  0  0.14169  0  4.07431  0  0  0.145272  0  4.097752  0  0  0.081497  0.139175  0  4.058554  0
C  C46  1  0.34132066  0.38105758  0.45440353  1  0  -0.147862  0  3.744495  0  0  -0.169617  0  4.003995  0  0  -0.172516  0  4.02434  0  0  -0.096252  -0.167623  0  3.99029  0
C  C47  1  0.61898737  0.65868405  0.04558789  1  0  -0.147994  0  3.744648  0  0  -0.169781  0  4.004181  0  0  -0.172675  0  4.024519  0  0  -0.09637  -0.167783  0  3.990466  0
C  C48  1  0.65867791  0.61894172  0.54559806  1  0  -0.147871  0  3.744528  0  0  -0.169631  0  4.004029  0  0  -0.172529  0  4.024372  0  0  -0.09623  -0.167631  0  3.990311  0
C  C49  1  0.38101474  0.34131525  0.95441178  1  0  -0.147977  0  3.744644  0  0  -0.169777  0  4.004129  0  0  -0.172671  0  4.024468  0  0  -0.096346  -0.167781  0  3.990421  0
C  C50  1  0.22494585  0.41278385  0.49994222  1  0  -0.087113  0  3.815235  0  0  -0.102589  0  4.071487  0  0  -0.105218  0  4.094637  0  0  -0.101358  -0.100645  0  4.055689  0
C  C51  1  0.58724580  0.77503521  0.00006016  1  0  -0.087072  0  3.814754  0  0  -0.102522  0  4.071034  0  0  -0.105153  0  4.094182  0  0  -0.101278  -0.100577  0  4.055238  0
C  C52  1  0.77505270  0.58721457  0.50005822  1  0  -0.08719  0  3.815218  0  0  -0.102669  0  4.071479  0  0  -0.105299  0  4.094629  0  0  -0.101394  -0.100725  0  4.055684  0
C  C53  1  0.41275632  0.22496409  0.99994097  1  0  -0.087045  0  3.814784  0  0  -0.102492  0  4.071067  0  0  -0.105124  0  4.094216  0  0  -0.10126  -0.100549  0  4.055272  0
C  C54  1  0.19717469  0.52931021  0.49600611  1  0  -0.070756  0  3.788118  0  0  -0.085729  0  4.041548  0  0  -0.088046  0  4.064977  0  0  -0.095456  -0.084146  0  4.02566  0
C  C55  1  0.47069105  0.80279016  0.00400987  1  0  -0.070623  0  3.787727  0  0  -0.085522  0  4.041145  0  0  -0.087835  0  4.064571  0  0  -0.095418  -0.083948  0  4.025264  0
C  C56  1  0.80282303  0.47068998  0.50399401  1  0  -0.070702  0  3.78807  0  0  -0.08569  0  4.041522  0  0  -0.088007  0  4.06495  0  0  -0.095467  -0.084108  0  4.025633  0
C  C57  1  0.52931106  0.19720915  0.99598980  1  0  -0.070676  0  3.787798  0  0  -0.085583  0  4.041226  0  0  -0.087896  0  4.064653  0  0  -0.095466  -0.084011  0  4.025349  0
C  C58  1  0.28438052  0.61820728  0.44782748  1  0  -0.135133  0  3.752972  0  0  -0.157515  0  4.008201  0  0  -0.160003  0  4.027758  0  0  -0.092199  -0.155621  0  3.994718  0
C  C59  1  0.38178703  0.71558763  0.05219119  1  0  -0.135334  0  3.753061  0  0  -0.157669  0  4.008301  0  0  -0.160156  0  4.027856  0  0  -0.092296  -0.155779  0  3.99482  0
C  C60  1  0.71561808  0.38179291  0.55217234  1  0  -0.135134  0  3.753008  0  0  -0.157522  0  4.008228  0  0  -0.16001  0  4.027785  0  0  -0.092183  -0.155629  0  3.994746  0
C  C61  1  0.61821508  0.28441168  0.94780774  1  0  -0.135348  0  3.753093  0  0  -0.157699  0  4.008335  0  0  -0.160184  0  4.027889  0  0  -0.092275  -0.155807  0  3.994854  0
C  C62  1  0.40113211  0.58594478  0.40375544  1  0  0.110387  0  3.740189  0  0  0.101152  0  3.984996  0  0  0.105211  0  4.006524  0  0  0.093807  0.098405  0  3.970442  0
C  C63  1  0.41406623  0.59886394  0.09625110  1  0  0.110368  0  3.74025  0  0  0.100982  0  3.985218  0  0  0.10504  0  4.00675  0  0  0.093711  0.098236  0  3.970661  0
C  C64  1  0.59886647  0.41405453  0.59624615  1  0  0.11035  0  3.740138  0  0  0.101081  0  3.984967  0  0  0.10514  0  4.006496  0  0  0.09375  0.098334  0  3.970413  0
C  C65  1  0.58593589  0.40113537  0.90374637  1  0  0.11036  0  3.740216  0  0  0.100988  0  3.985119  0  0  0.105045  0  4.006651  0  0  0.093724  0.098242  0  3.970563  0
C  C66  1  0.53082117  0.76881366  0.32984981  1  0  0.194246  0  3.778857  0  0  0.183728  0  4.029957  0  0  0.191125  0  4.052038  0  0  0.097169  0.178914  0  4.014833  0
C  C67  1  0.23118170  0.46918393  0.17015384  1  0  0.194303  0  3.779214  0  0  0.184182  0  4.030108  0  0  0.19158  0  4.052181  0  0  0.097382  0.179364  0  4.014992  0
C  C68  1  0.46917741  0.23118564  0.67015251  1  0  0.194287  0  3.778765  0  0  0.183747  0  4.029875  0  0  0.191145  0  4.051953  0  0  0.097177  0.178933  0  4.014749  0
C  C69  1  0.76881864  0.53081538  0.82984423  1  0  0.194214  0  3.77917  0  0  0.184196  0  4.029923  0  0  0.191593  0  4.051993  0  0  0.097335  0.179377  0  4.01481  0
C  C70  1  0.46388328  0.82012926  0.40900334  1  0  -0.146136  0  3.715001  0  0  -0.166358  0  3.969256  0  0  -0.17142  0  3.988882  0  0  -0.087701  -0.163073  0  3.956018  0
C  C71  1  0.17986644  0.53611843  0.09100572  1  0  -0.146108  0  3.715058  0  0  -0.166619  0  3.969414  0  0  -0.171681  0  3.989036  0  0  -0.087762  -0.163354  0  3.956167  0
C  C72  1  0.53611535  0.17987182  0.59099836  1  0  -0.146054  0  3.714933  0  0  -0.166282  0  3.969201  0  0  -0.171346  0  3.988828  0  0  -0.087679  -0.162999  0  3.955961  0
C  C73  1  0.82013402  0.46388442  0.90899258  1  0  -0.146141  0  3.715154  0  0  -0.166652  0  3.969479  0  0  -0.171713  0  3.9891  0  0  -0.087759  -0.16339  0  3.956232  0
C  C74  1  0.48748874  0.93767057  0.38686708  1  0  -0.039257  0  3.72121  0  0  -0.063226  0  3.966211  0  0  -0.061132  0  3.985388  0  0  -0.075767  -0.064371  0  3.95305  0
C  C75  1  0.06230337  0.51250911  0.11314990  1  0  -0.039182  0  3.721169  0  0  -0.063086  0  3.966184  0  0  -0.060991  0  3.985358  0  0  -0.075727  -0.064232  0  3.95303  0
C  C76  1  0.51251252  0.06232962  0.61313550  1  0  -0.039365  0  3.721224  0  0  -0.063339  0  3.966239  0  0  -0.061243  0  3.985415  0  0  -0.075783  -0.064483  0  3.953077  0
C  C77  1  0.93769618  0.48749285  0.88685047  1  0  -0.039174  0  3.721284  0  0  -0.063097  0  3.966297  0  0  -0.061  0  3.985473  0  0  -0.07573  -0.064244  0  3.953147  0
C  C78  1  0.57834291  0.00368550  0.28768493  1  0  -0.068379  0  3.766435  0  0  -0.043887  0  3.994717  0  0  -0.05383  0  4.019752  0  0  -0.018688  -0.037575  0  3.97787  0
C  C79  1  0.99629992  0.42165471  0.21231656  1  0  -0.068556  0  3.766285  0  0  -0.04405  0  3.994501  0  0  -0.053998  0  4.019531  0  0  -0.018781  -0.037737  0  3.977656  0
C  C80  1  0.42165658  0.99631469  0.71231533  1  0  -0.068265  0  3.76645  0  0  -0.043764  0  3.994717  0  0  -0.053706  0  4.019752  0  0  -0.018681  -0.037452  0  3.977869  0
C  C81  1  0.00370222  0.57834549  0.78768207  1  0  -0.06845  0  3.766319  0  0  -0.043924  0  3.994489  0  0  -0.053878  0  4.019523  0  0  -0.018763  -0.037613  0  3.977643  0
C  C82  1  0.64551157  0.95073396  0.20965499  1  0  -0.054558  0  3.758446  0  0  -0.076943  0  4.003279  0  0  -0.075607  0  4.023682  0  0  -0.081386  -0.07748  0  3.989283  0
C  C83  1  0.04925309  0.35449014  0.29033945  1  0  -0.054603  0  3.758386  0  0  -0.076921  0  4.003183  0  0  -0.075582  0  4.023584  0  0  -0.081392  -0.077461  0  3.989188  0
C  C84  1  0.35448875  0.04926446  0.79034632  1  0  -0.05468  0  3.758472  0  0  -0.077081  0  4.003308  0  0  -0.075744  0  4.023713  0  0  -0.081424  -0.077618  0  3.989312  0
C  C85  1  0.95074817  0.64551005  0.70965801  1  0  -0.054741  0  3.758483  0  0  -0.07708  0  4.003297  0  0  -0.075734  0  4.023697  0  0  -0.081399  -0.077616  0  3.989299  0
C  C86  1  0.62139781  0.83404655  0.22975571  1  0  -0.168884  0  3.770384  0  0  -0.188229  0  4.023435  0  0  -0.194222  0  4.045435  0  0  -0.096043  -0.184274  0  4.008373  0
C  C87  1  0.16595997  0.37860914  0.27023477  1  0  -0.168872  0  3.770431  0  0  -0.188444  0  4.023555  0  0  -0.194437  0  4.045554  0  0  -0.096054  -0.184487  0  4.008496  0
C  C88  1  0.37860077  0.16595275  0.77024661  1  0  -0.16889  0  3.770275  0  0  -0.18823  0  4.023322  0  0  -0.194224  0  4.045322  0  0  -0.096032  -0.184275  0  4.00826  0
C  C89  1  0.83404128  0.62139105  0.72976197  1  0  -0.168744  0  3.770341  0  0  -0.188374  0  4.023417  0  0  -0.194365  0  4.045414  0  0  -0.096015  -0.184416  0  4.008355  0
C  C90  1  0.60557123  0.12851109  0.26689786  1  0  0.622011  0  3.944244  0  0  0.577231  0  4.229161  0  0  0.611636  0  4.224591  0  0  0.185847  0.554128  0  4.2312  0
C  C91  1  0.87146000  0.39442537  0.23310004  1  0  0.621839  0  3.94436  0  0  0.577056  0  4.229264  0  0  0.611462  0  4.22469  0  0  0.185832  0.553953  0  4.231305  0
C  C92  1  0.39443006  0.87148998  0.73310003  1  0  0.621874  0  3.94439  0  0  0.577083  0  4.229323  0  0  0.611486  0  4.224754  0  0  0.185748  0.55398  0  4.231361  0
C  C93  1  0.12854040  0.60557570  0.76689742  1  0  0.621801  0  3.944439  0  0  0.577039  0  4.229311  0  0  0.611448  0  4.224734  0  0  0.185837  0.553938  0  4.231348  0
N  N94  1  0.55197391  0.46353401  0.35599778  1  0  -0.434944  0  3.182714  0  0  -0.373373  0  3.474895  0  0  -0.394948  0  3.48989  0  0  -0.352041  -0.358514  0  3.464144  0
N  N95  1  0.53651595  0.44805934  0.14397866  1  0  -0.434627  0  3.18257  0  0  -0.372985  0  3.474606  0  0  -0.394577  0  3.489624  0  0  -0.35173  -0.358123  0  3.46385  0
N  N96  1  0.44802381  0.53646618  0.64400381  1  0  -0.434889  0  3.182738  0  0  -0.37331  0  3.474911  0  0  -0.394885  0  3.489905  0  0  -0.352027  -0.358453  0  3.464161  0
N  N97  1  0.46348439  0.55193997  0.85602161  1  0  -0.434577  0  3.182653  0  0  -0.372979  0  3.474718  0  0  -0.394571  0  3.489738  0  0  -0.351727  -0.358117  0  3.463961  0
N  N98  1  0.50969244  0.64854075  0.35141621  1  0  -0.148929  0  3.536908  0  0  -0.064705  0  3.754536  0  0  -0.08193  0  3.777478  0  0  -0.220696  -0.053309  0  3.73874  0
N  N99  1  0.35147117  0.49032090  0.14857980  1  0  -0.148871  0  3.537213  0  0  -0.064718  0  3.754859  0  0  -0.081942  0  3.7778  0  0  -0.220771  -0.053325  0  3.739069  0
N  N100  1  0.49030614  0.35145856  0.64858612  1  0  -0.148972  0  3.536765  0  0  -0.0647  0  3.754355  0  0  -0.081927  0  3.777296  0  0  -0.220682  -0.053303  0  3.738559  0
N  N101  1  0.64853009  0.50967929  0.85141840  1  0  -0.148784  0  3.537222  0  0  -0.064671  0  3.754823  0  0  -0.081894  0  3.777764  0  0  -0.220723  -0.053279  0  3.739034  0
O  O102  1  0.53964520  0.17347418  0.34018766  1  0  -0.651901  0  1.938484  0  0  -0.590525  0  2.176584  0  0  -0.620085  0  2.166963  0  0  -0.344355  -0.56995  0  2.182274  0
O  O103  1  0.82649239  0.46033519  0.15981797  1  0  -0.651776  0  1.938646  0  0  -0.590398  0  2.176723  0  0  -0.61996  0  2.167113  0  0  -0.344294  -0.569824  0  2.182405  0
O  O104  1  0.46035609  0.82652690  0.65981023  1  0  -0.651881  0  1.938516  0  0  -0.590483  0  2.176595  0  0  -0.620046  0  2.166975  0  0  -0.34434  -0.569912  0  2.182287  0
O  O105  1  0.17350887  0.53966500  0.84017949  1  0  -0.651759  0  1.938639  0  0  -0.59039  0  2.176712  0  0  -0.619953  0  2.1671  0  0  -0.344302  -0.569813  0  2.182385  0
O  O106  1  0.69234724  0.18530936  0.17960105  1  0  -0.631965  0  1.904443  0  0  -0.576845  0  2.126991  0  0  -0.603948  0  2.117165  0  0  -0.33974  -0.558123  0  2.133043  0
O  O107  1  0.81464896  0.30765908  0.32038836  1  0  -0.631866  0  1.90473  0  0  -0.57673  0  2.12732  0  0  -0.60384  0  2.117493  0  0  -0.33971  -0.558005  0  2.133374  0
O  O108  1  0.30765311  0.81468994  0.82039775  1  0  -0.631896  0  1.904494  0  0  -0.576771  0  2.127048  0  0  -0.603876  0  2.117224  0  0  -0.339679  -0.558047  0  2.133099  0
O  O109  1  0.18535062  0.69234376  0.67961023  1  0  -0.631881  0  1.904771  0  0  -0.576757  0  2.127359  0  0  -0.603866  0  2.117527  0  0  -0.339732  -0.558031  0  2.133411  0
