# generated using pymatgen
data_InH3C2O5
_symmetry_space_group_name_H-M   'P 1'
_cell_length_a   6.13499998
_cell_length_b   9.38290067
_cell_length_c   9.38296482
_cell_angle_alpha   83.87088361
_cell_angle_beta   70.92784270
_cell_angle_gamma   70.92733452
_symmetry_Int_Tables_number   1
_chemical_formula_structural   InH3C2O5
_chemical_formula_sum   'In4 H12 C8 O20'
_cell_volume   482.45092738
_cell_formula_units_Z   4
loop_
 _symmetry_equiv_pos_site_id
 _symmetry_equiv_pos_as_xyz
  1  'x, y, z'
loop_
 _atom_site_type_symbol
 _atom_site_label
 _atom_site_symmetry_multiplicity
 _atom_site_fract_x
 _atom_site_fract_y
 _atom_site_fract_z
 _atom_site_occupancy
 _atom_site_hle17_bader_spin_density
 _atom_site_hle17_ddec_charge
 _atom_site_hle17_ddec_spin_density
 _atom_site_hle17_ddec_sum_bond_order
 _atom_site_hle17_magmom
 _atom_site_hse06_10hf_bader_spin_density
 _atom_site_hse06_10hf_ddec_charge
 _atom_site_hse06_10hf_ddec_spin_density
 _atom_site_hse06_10hf_ddec_sum_bond_order
 _atom_site_hse06_10hf_magmom
 _atom_site_hse06_bader_spin_density
 _atom_site_hse06_ddec_charge
 _atom_site_hse06_ddec_spin_density
 _atom_site_hse06_ddec_sum_bond_order
 _atom_site_hse06_magmom
 _atom_site_pbe_bader_spin_density
 _atom_site_pbe_cm5_charge
 _atom_site_pbe_ddec_charge
 _atom_site_pbe_ddec_spin_density
 _atom_site_pbe_ddec_sum_bond_order
 _atom_site_pbe_magmom
In  In0  1  0.23042347  0.89435965  0.39438571  1  0  1.776851  0  2.143615  0  0  1.596096  0  2.622082  0  0  1.665244  0  2.560152  0  0  0.766873  1.548095  0  2.663734  0
In  In1  1  0.51956674  0.10561651  0.60565128  1  0  1.776828  0  2.143721  0  0  1.596061  0  2.622204  0  0  1.665216  0  2.560268  0  0  0.76682  1.548066  0  2.663856  0
In  In2  1  0.87500166  0.60571194  0.89428904  1  0  1.777262  0  2.141884  0  0  1.595821  0  2.619772  0  0  1.665011  0  2.557944  0  0  0.76665  1.547992  0  2.661477  0
In  In3  1  0.37499710  0.39432040  0.10568179  1  0  1.777518  0  2.142868  0  0  1.597087  0  2.621031  0  0  1.666128  0  2.559132  0  0  0.766816  1.548959  0  2.662507  0
H  H4  1  0.77982070  0.93532450  0.18316864  1  0  0.041948  0  0.936467  0  0  0.049147  0  1.006827  0  0  0.050147  0  1.001616  0  0  0.127096  0.048382  0  1.010375  0
H  H5  1  0.89927087  0.06478673  0.81704984  1  0  0.041877  0  0.937694  0  0  0.049188  0  1.007821  0  0  0.050138  0  1.002647  0  0  0.127098  0.048157  0  1.011627  0
H  H6  1  0.28419936  0.81686181  0.93528508  1  0  0.042888  0  0.935404  0  0  0.049783  0  1.0061  0  0  0.050741  0  1.001006  0  0  0.127294  0.048748  0  1.009991  0
H  H7  1  0.03633689  0.18318184  0.06476811  1  0  0.041722  0  0.938571  0  0  0.049472  0  1.008199  0  0  0.050349  0  1.003092  0  0  0.127509  0.048688  0  1.011601  0
H  H8  1  0.97016945  0.31684089  0.56467730  1  0  0.041975  0  0.936464  0  0  0.049168  0  1.006828  0  0  0.050157  0  1.001633  0  0  0.127113  0.048404  0  1.010373  0
H  H9  1  0.85073663  0.68293450  0.43520452  1  0  0.042039  0  0.937675  0  0  0.049322  0  1.007818  0  0  0.050271  0  1.002642  0  0  0.127143  0.048291  0  1.011621  0
H  H10  1  0.46579562  0.56471732  0.68314436  1  0  0.042835  0  0.93549  0  0  0.049706  0  1.006229  0  0  0.05066  0  1.00114  0  0  0.127279  0.048693  0  1.010095  0
H  H11  1  0.71365785  0.43523771  0.31680987  1  0  0.041753  0  0.938456  0  0  0.049422  0  1.008182  0  0  0.050371  0  1.002992  0  0  0.127494  0.048636  0  1.011605  0
H  H12  1  0.37499439  0.13086641  0.36913439  1  0  0.418292  0  0.894124  0  0  0.381399  0  0.969976  0  0  0.394238  0  0.950976  0  0  0.29139  0.372499  0  0.9831  0
H  H13  1  0.87499535  0.86903892  0.63096725  1  0  0.418168  0  0.894342  0  0  0.381116  0  0.970405  0  0  0.393989  0  0.951359  0  0  0.291196  0.372102  0  0.983698  0
H  H14  1  0.49417199  0.63099110  0.13081356  1  0  0.419179  0  0.893113  0  0  0.382296  0  0.968941  0  0  0.395157  0  0.949891  0  0  0.292236  0.373314  0  0.982201  0
H  H15  1  0.25581696  0.36919039  0.86900127  1  0  0.41911  0  0.893215  0  0  0.382206  0  0.969078  0  0  0.395071  0  0.950021  0  0  0.292179  0.373224  0  0.982339  0
C  C16  1  0.74782430  0.84544770  0.13332654  1  0  0.601317  0  3.837854  0  0  0.5234  0  4.149143  0  0  0.558698  0  4.140387  0  0  0.172847  0.499409  0  4.154393  0
C  C17  1  0.72751673  0.15459355  0.86674902  1  0  0.60223  0  3.838649  0  0  0.524583  0  4.149876  0  0  0.559842  0  4.141059  0  0  0.172573  0.500677  0  4.155022  0
C  C18  1  0.40601891  0.86676226  0.84542004  1  0  0.602761  0  3.836075  0  0  0.524586  0  4.147497  0  0  0.55986  0  4.13869  0  0  0.172759  0.500708  0  4.152757  0
C  C19  1  0.11832122  0.13332589  0.15457196  1  0  0.603518  0  3.83532  0  0  0.525456  0  4.146452  0  0  0.560774  0  4.137627  0  0  0.173161  0.501495  0  4.151595  0
C  C20  1  0.00216971  0.36667411  0.65455277  1  0  0.601253  0  3.838064  0  0  0.523311  0  4.14939  0  0  0.558613  0  4.140631  0  0  0.172771  0.499318  0  4.15464  0
C  C21  1  0.02249135  0.63324774  0.34541181  1  0  0.6018  0  3.83901  0  0  0.524188  0  4.150195  0  0  0.55945  0  4.14138  0  0  0.172446  0.500284  0  4.155332  0
C  C22  1  0.34398464  0.65458134  0.63324515  1  0  0.602904  0  3.836291  0  0  0.52472  0  4.147728  0  0  0.559995  0  4.138918  0  0  0.172783  0.500831  0  4.152987  0
C  C23  1  0.63167078  0.34542406  0.36666878  1  0  0.60366  0  3.834838  0  0  0.525641  0  4.146022  0  0  0.560912  0  4.137195  0  0  0.173192  0.50167  0  4.151167  0
O  O24  1  0.37500285  0.05234913  0.44764986  1  0  -1.019512  0  1.80409  0  0  -0.940763  0  2.072197  0  0  -0.971743  0  2.034921  0  0  -0.534493  -0.918763  0  2.096752  0
O  O25  1  0.87500662  0.94755313  0.55244952  1  0  -1.017712  0  1.804438  0  0  -0.939101  0  2.073046  0  0  -0.970261  0  2.035765  0  0  -0.534087  -0.917537  0  2.097867  0
O  O26  1  0.57243413  0.55246156  0.05234733  1  0  -1.020033  0  1.80247  0  0  -0.94154  0  2.070979  0  0  -0.972471  0  2.033531  0  0  -0.535201  -0.919735  0  2.095766  0
O  O27  1  0.17756965  0.44764838  0.94753967  1  0  -1.019916  0  1.802474  0  0  -0.941413  0  2.070988  0  0  -0.97235  0  2.033535  0  0  -0.535124  -0.919614  0  2.095776  0
O  O28  1  0.55148023  0.81341779  0.19046090  1  0  -0.633476  0  2.148069  0  0  -0.559936  0  2.409728  0  0  -0.590936  0  2.40014  0  0  -0.281956  -0.538919  0  2.415921  0
O  O29  1  0.55647977  0.18640989  0.80947216  1  0  -0.634326  0  2.147329  0  0  -0.560898  0  2.408933  0  0  -0.591812  0  2.399249  0  0  -0.28207  -0.539762  0  2.414796  0
O  O30  1  0.63437581  0.80951912  0.81340752  1  0  -0.636926  0  2.146492  0  0  -0.561861  0  2.406943  0  0  -0.592869  0  2.397334  0  0  -0.282873  -0.540724  0  2.412929  0
O  O31  1  0.25774210  0.19036494  0.18651048  1  0  -0.635442  0  2.145624  0  0  -0.56177  0  2.407258  0  0  -0.59261  0  2.397379  0  0  -0.282547  -0.540755  0  2.413353  0
O  O32  1  0.19851277  0.30953535  0.68658236  1  0  -0.633489  0  2.148283  0  0  -0.559926  0  2.409925  0  0  -0.590922  0  2.400328  0  0  -0.281927  -0.538907  0  2.416118  0
O  O33  1  0.19354088  0.69051167  0.31359913  1  0  -0.634152  0  2.1475  0  0  -0.560726  0  2.409059  0  0  -0.591637  0  2.399372  0  0  -0.282011  -0.539592  0  2.414919  0
O  O34  1  0.11564196  0.68659374  0.69048227  1  0  -0.63705  0  2.146709  0  0  -0.561983  0  2.407186  0  0  -0.59299  0  2.39757  0  0  -0.282966  -0.540848  0  2.41318  0
O  O35  1  0.49224771  0.31348318  0.30963310  1  0  -0.635515  0  2.145488  0  0  -0.561858  0  2.407135  0  0  -0.592706  0  2.397288  0  0  -0.282564  -0.540862  0  2.413276  0
O  O36  1  0.91716762  0.77782554  0.01900991  1  0  -0.597282  0  2.052761  0  0  -0.5308  0  2.312101  0  0  -0.561592  0  2.302417  0  0  -0.279568  -0.509436  0  2.317791  0
O  O37  1  0.71442037  0.22233821  0.98114937  1  0  -0.598067  0  2.053569  0  0  -0.532072  0  2.313288  0  0  -0.56287  0  2.303507  0  0  -0.279819  -0.510736  0  2.318569  0
O  O38  1  0.30468286  0.98115119  0.77773684  1  0  -0.597305  0  2.053969  0  0  -0.53097  0  2.313591  0  0  -0.561712  0  2.303801  0  0  -0.278924  -0.509566  0  2.319129  0
O  O39  1  0.06331616  0.01905295  0.22235866  1  0  -0.598426  0  2.051639  0  0  -0.531923  0  2.310784  0  0  -0.562748  0  2.30106  0  0  -0.280194  -0.510636  0  2.316305  0
O  O40  1  0.83284245  0.48099172  0.72217270  1  0  -0.597249  0  2.052854  0  0  -0.530714  0  2.312162  0  0  -0.561504  0  2.302478  0  0  -0.279527  -0.509355  0  2.317853  0
O  O41  1  0.03557463  0.51884933  0.27766269  1  0  -0.598028  0  2.053629  0  0  -0.532002  0  2.313309  0  0  -0.562814  0  2.303539  0  0  -0.279829  -0.510673  0  2.318606  0
O  O42  1  0.44531605  0.72226353  0.51885662  1  0  -0.597289  0  2.053844  0  0  -0.530961  0  2.313483  0  0  -0.561702  0  2.303693  0  0  -0.278871  -0.509555  0  2.319025  0
O  O43  1  0.68668632  0.27764524  0.48094481  1  0  -0.598496  0  2.051382  0  0  -0.531955  0  2.310433  0  0  -0.562782  0  2.300738  0  0  -0.280163  -0.510669  0  2.315961  0
