# generated using pymatgen
data_CuH17C11N5O4
_symmetry_space_group_name_H-M   'P 1'
_cell_length_a   5.23569639
_cell_length_b   15.31993618
_cell_length_c   18.28437998
_cell_angle_alpha   90.00582356
_cell_angle_beta   93.73339027
_cell_angle_gamma   90.00269780
_symmetry_Int_Tables_number   1
_chemical_formula_structural   CuH17C11N5O4
_chemical_formula_sum   'Cu4 H68 C44 N20 O16'
_cell_volume   1463.48752414
_cell_formula_units_Z   4
loop_
 _symmetry_equiv_pos_site_id
 _symmetry_equiv_pos_as_xyz
  1  'x, y, z'
loop_
 _atom_site_type_symbol
 _atom_site_label
 _atom_site_symmetry_multiplicity
 _atom_site_fract_x
 _atom_site_fract_y
 _atom_site_fract_z
 _atom_site_occupancy
 _atom_site_pbe_bader_charge
 _atom_site_pbe_bader_spin_density
 _atom_site_pbe_cm5_charge
 _atom_site_pbe_ddec_charge
 _atom_site_pbe_ddec_spin_density
 _atom_site_pbe_ddec_sum_bond_order
 _atom_site_pbe_magmom
Cu  Cu0  1  0.46656175  0.14943577  0.24292747  1  0.966605  0.537468  0.741155  0.664397  0.754244  2.358436  0.537
Cu  Cu1  1  0.53347207  0.64941014  0.25706503  1  0.966808  -0.537477  0.741129  0.664483  -0.715144  2.35784  -0.537
Cu  Cu2  1  0.53352887  0.85054260  0.75706183  1  0.966858  -0.53837  0.741246  0.664701  -0.716509  2.35823  -0.538
Cu  Cu3  1  0.46646196  0.35052449  0.74295320  1  0.967037  -0.538403  0.741409  0.664896  -0.716661  2.358742  -0.538
H  H4  1  0.44470015  0.99023227  0.17481361  1  0.492022  0.001272  0.289764  0.297996  0.001814  0.986108  0.001
H  H5  1  0.55523436  0.49019677  0.32519392  1  0.491742  -0.001274  0.289829  0.298217  -0.001692  0.985873  -0.001
H  H6  1  0.55541391  0.00973630  0.82521822  1  0.491843  -0.001181  0.289776  0.298262  -0.001536  0.985849  -0.001
H  H7  1  0.44450996  0.50968172  0.67480235  1  0.492473  -0.001179  0.289709  0.298124  -0.001536  0.985972  -0.001
H  H8  1  0.34540878  0.07954226  0.12916687  1  0.463295  -7.2e-05  0.285799  0.277064  0.000603  0.986415  -0.001
H  H9  1  0.65456620  0.57952303  0.37084712  1  0.463117  6.2e-05  0.285867  0.277158  -0.000511  0.986221  0.001
H  H10  1  0.65472622  0.92040542  0.87085493  1  0.464393  5.8e-05  0.28579  0.277014  -0.00051  0.986274  0.001
H  H11  1  0.34533949  0.42032282  0.62920616  1  0.464628  6.1e-05  0.285816  0.276826  -0.00051  0.986955  0.001
H  H12  1  0.72640411  0.05113045  0.07172196  1  0.01929  0.005366  0.107793  0.097062  0.002954  0.966838  0.003
H  H13  1  0.27342233  0.55114936  0.42825718  1  0.019227  -0.005561  0.107754  0.0969  -0.002928  0.966715  -0.003
H  H14  1  0.27365220  0.94880157  0.92828039  1  0.018915  -0.005373  0.107844  0.097057  -0.002802  0.966719  -0.003
H  H15  1  0.72627403  0.44879832  0.57172840  1  0.019184  -0.005571  0.107821  0.096971  -0.002929  0.96657  -0.003
H  H16  1  0.86890214  0.01006876  0.15500970  1  0.09814  -0.000153  0.116439  0.115906  -0.000254  0.974691  0.0
H  H17  1  0.13104614  0.51008734  0.34497831  1  0.098187  0.000148  0.116431  0.115888  0.000255  0.974817  0.0
H  H18  1  0.13127487  0.98989655  0.84500410  1  0.098441  -7.5e-05  0.116421  0.11581  5e-05  0.974708  0.0
H  H19  1  0.86882272  0.48988253  0.65503057  1  0.099174  -8e-05  0.116487  0.116016  4.5e-05  0.974421  0.0
H  H20  1  0.80837645  0.33248918  0.17478576  1  0.063417  0.000694  0.109216  0.108054  0.000296  0.983086  0.0
H  H21  1  0.19172763  0.83248293  0.32524693  1  0.063223  -0.000693  0.109344  0.108277  -0.00028  0.982836  0.0
H  H22  1  0.19158746  0.66749963  0.82516629  1  0.062445  -0.000689  0.109226  0.108246  -0.000289  0.982898  0.0
H  H23  1  0.80825698  0.16742885  0.67484548  1  0.061944  -0.000689  0.109171  0.108147  -0.000288  0.982808  0.0
H  H24  1  0.03509171  0.28307358  0.23786910  1  0.064159  0.002373  0.107631  0.102309  0.001176  1.019407  0.001
H  H25  1  0.96500708  0.78308545  0.26215040  1  0.064193  -0.002373  0.107712  0.102421  -0.001105  1.019197  -0.001
H  H26  1  0.96492965  0.71692045  0.76208725  1  0.063173  -0.002358  0.107675  0.1024  -0.001089  1.019237  -0.001
H  H27  1  0.03498692  0.21691576  0.73792524  1  0.06372  -0.002363  0.107724  0.102385  -0.001092  1.019297  -0.001
H  H28  1  0.77058155  0.11804668  0.41957241  1  0.575311  0.000314  0.305038  0.285873  0.000235  1.013988  0.0
H  H29  1  0.22938540  0.61805615  0.08040959  1  0.575447  -0.000314  0.305041  0.285724  -0.000221  1.014374  0.0
H  H30  1  0.22957047  0.88202242  0.58043056  1  0.575267  -0.00032  0.305134  0.285996  -0.000224  1.014133  0.0
H  H31  1  0.77043363  0.38200642  0.91959130  1  0.575126  -0.00032  0.305026  0.285815  -0.000225  1.014416  0.0
H  H32  1  0.79800164  0.76235148  0.42461897  1  0.513053  2e-05  0.296125  0.272873  4.1e-05  1.025635  0.0
H  H33  1  0.20203496  0.26230803  0.07535461  1  0.513565  -3e-05  0.295957  0.272423  -4.7e-05  1.026147  0.0
H  H34  1  0.20200675  0.23765495  0.57537434  1  0.513012  2.8e-05  0.296121  0.272747  4.8e-05  1.025672  0.0
H  H35  1  0.79801756  0.73769057  0.92464988  1  0.513671  1.8e-05  0.29592  0.272523  3.8e-05  1.026119  0.0
H  H36  1  0.14187768  0.97365960  0.25809822  1  0.169992  7.5e-05  0.111375  0.115903  -0.000307  1.089353  0.0
H  H37  1  0.85817569  0.47362504  0.24185763  1  0.170006  -7.5e-05  0.111524  0.116148  0.000336  1.089146  0.0
H  H38  1  0.85820965  0.02633443  0.74193860  1  0.169244  -0.000876  0.111379  0.115816  -0.000576  1.089243  -0.001
H  H39  1  0.14176524  0.52631220  0.75809455  1  0.170454  -0.000876  0.111333  0.115882  -0.000576  1.089315  -0.001
H  H40  1  0.12661407  0.21574863  0.36859198  1  0.123945  0.000167  0.139433  0.110271  3.1e-05  0.986277  0.0
H  H41  1  0.87323689  0.71571336  0.13142267  1  0.123635  -0.000167  0.139379  0.110247  -1.9e-05  0.986449  0.0
H  H42  1  0.87352227  0.78428782  0.63137844  1  0.124143  -0.000187  0.139275  0.110027  -2.3e-05  0.986161  0.0
H  H43  1  0.12659226  0.28430678  0.86862817  1  0.12371  -0.000188  0.139238  0.109837  -2.7e-05  0.986549  0.0
H  H44  1  0.53322764  0.96768627  0.37415690  1  0.09179  0.000197  0.099862  0.113146  0.000121  0.996066  0.0
H  H45  1  0.46671813  0.46772496  0.12574602  1  0.089563  -0.000199  0.099879  0.113037  -0.000116  0.996052  0.0
H  H46  1  0.46692504  0.03239457  0.62590406  1  0.092291  -0.000219  0.099964  0.113415  -0.00011  0.995903  0.0
H  H47  1  0.53315573  0.53230563  0.87419677  1  0.091294  -0.000221  0.099749  0.113062  -0.000111  0.995962  0.0
H  H48  1  0.71492289  0.89865709  0.31923254  1  0.05729  -7.2e-05  0.100366  0.112197  -4.2e-05  0.984082  0.0
H  H49  1  0.28534541  0.39867392  0.18071904  1  0.057903  7.2e-05  0.100348  0.112174  4.7e-05  0.983954  0.0
H  H50  1  0.28505531  0.10139699  0.68079962  1  0.056362  -0.000131  0.100589  0.112675  -5.8e-05  0.984024  0.0
H  H51  1  0.71465888  0.60135601  0.81924958  1  0.057075  -0.000131  0.100392  0.11219  -5.8e-05  0.983944  0.0
H  H52  1  0.05089141  0.88957145  0.42922708  1  0.069909  1e-05  0.100948  0.070316  2.1e-05  1.016811  0.0
H  H53  1  0.94909157  0.38949578  0.07077988  1  0.069785  -1.3e-05  0.100951  0.070526  -2.3e-05  1.016733  0.0
H  H54  1  0.94920319  0.11043237  0.57077542  1  0.07063  -9e-06  0.100927  0.07021  -3e-06  1.016606  0.0
H  H55  1  0.05081553  0.61049107  0.92922640  1  0.070322  -1.2e-05  0.100908  0.070365  -6e-06  1.01663  0.0
H  H56  1  0.82497908  0.94354259  0.48165654  1  0.094677  -3e-06  0.110237  0.089839  -2e-06  0.991389  0.0
H  H57  1  0.17480322  0.44348135  0.01830459  1  0.094113  1.3e-05  0.110439  0.090335  -0.0  0.990876  0.0
H  H58  1  0.17517519  0.05645339  0.51837655  1  0.095663  -1e-05  0.110263  0.089974  -6e-06  0.991177  0.0
H  H59  1  0.82499248  0.55649897  0.98166526  1  0.094724  -1e-06  0.110358  0.090283  -9e-06  0.991018  0.0
H  H60  1  0.54432787  0.66986543  0.48278770  1  0.040779  -0.000176  0.096848  0.150284  -0.000104  1.004445  0.0
H  H61  1  0.45574242  0.16983965  0.01718402  1  0.040641  0.000162  0.09682  0.150309  0.000101  1.00449  0.0
H  H62  1  0.45547712  0.33015993  0.51715661  1  0.040873  -0.000172  0.096779  0.15022  -0.000104  1.004356  0.0
H  H63  1  0.54445404  0.83020660  0.98285638  1  0.040745  -0.000168  0.096798  0.150208  -9.7e-05  1.004424  0.0
H  H64  1  0.45898299  0.71070836  0.56961237  1  0.092415  -1.8e-05  0.100296  0.165982  -8.5e-05  1.020867  0.0
H  H65  1  0.54103845  0.21067479  0.93036129  1  0.092249  -2.5e-05  0.100369  0.166196  -8.6e-05  1.020629  0.0
H  H66  1  0.54100216  0.28930264  0.43035701  1  0.091865  1.3e-05  0.100302  0.166097  7.9e-05  1.020716  0.0
H  H67  1  0.45898365  0.78935579  0.06966070  1  0.092136  -4e-06  0.100429  0.166165  -7e-05  1.020917  0.0
H  H68  1  0.23393656  0.71579375  0.49293173  1  0.079931  -6.1e-05  0.09904  0.158603  -2.4e-05  1.004939  0.0
H  H69  1  0.76612628  0.21578900  0.00703419  1  0.079961  6.1e-05  0.099115  0.158721  3.1e-05  1.004912  0.0
H  H70  1  0.76597419  0.28429166  0.50705712  1  0.079994  -6.8e-05  0.099094  0.158681  -3.2e-05  1.00492  0.0
H  H71  1  0.23398356  0.78430555  0.99296148  1  0.080045  -6e-05  0.099072  0.158642  -2.4e-05  1.004885  0.0
C  C72  1  0.74046805  0.06103224  0.13150977  1  0.279745  0.000983  -0.069712  -0.110718  0.001899  3.920746  -0.002
C  C73  1  0.25949916  0.56104988  0.36847286  1  0.279865  -0.001003  -0.069802  -0.110738  -0.001676  3.920699  0.002
C  C74  1  0.25965523  0.93891218  0.86849158  1  0.279756  -0.001092  -0.069855  -0.110992  -0.001707  3.920543  0.002
C  C75  1  0.74037907  0.43891869  0.63151814  1  0.2792  -0.001131  -0.069928  -0.110965  -0.001763  3.92029  0.002
C  C76  1  0.86526102  0.14951340  0.14760045  1  1.385304  0.001355  0.212493  0.465644  0.002251  4.177873  0.002
C  C77  1  0.13476305  0.64953028  0.35237330  1  1.385373  -0.001362  0.212599  0.466298  -0.001891  4.178047  -0.002
C  C78  1  0.13482747  0.85044146  0.85237020  1  1.385853  -0.00137  0.212719  0.466659  -0.001905  4.177712  -0.002
C  C79  1  0.86519733  0.35045657  0.64760603  1  1.384955  -0.001383  0.212584  0.46613  -0.001912  4.177964  -0.002
C  C80  1  0.83094968  0.28298321  0.21863551  1  0.303045  0.002016  -0.075376  -0.171459  0.00256  3.984661  0.0
C  C81  1  0.16916426  0.78299370  0.28137221  1  0.304001  -0.002015  -0.075632  -0.171907  -0.002323  3.984763  0.0
C  C82  1  0.16908491  0.71699124  0.78130630  1  0.304382  -0.002418  -0.075552  -0.171813  -0.002603  3.985141  0.0
C  C83  1  0.83085990  0.21699249  0.71866349  1  0.305258  -0.00241  -0.075546  -0.171643  -0.002598  3.984769  0.0
C  C84  1  0.67115495  0.31307470  0.28129621  1  1.586291  0.001065  0.203047  0.589958  0.002432  4.178222  0.001
C  C85  1  0.32893347  0.81308131  0.21870916  1  1.587213  -0.001055  0.203097  0.590149  -0.002133  4.178227  -0.001
C  C86  1  0.32886248  0.68689974  0.71865131  1  1.586981  -0.000971  0.203185  0.590183  -0.00213  4.177705  -0.001
C  C87  1  0.67104673  0.18695906  0.78133014  1  1.586508  -0.000987  0.203017  0.58984  -0.00214  4.177623  -0.001
C  C88  1  0.08267180  0.02361860  0.29567304  1  0.324142  -0.000897  -0.018543  -0.133126  -0.00028  3.987299  0.0
C  C89  1  0.91732034  0.52358265  0.20428467  1  0.325455  0.000894  -0.018888  -0.13369  0.000405  3.987946  0.0
C  C90  1  0.91744793  0.97640154  0.70435123  1  0.321919  -0.001071  -0.018771  -0.133235  -0.000996  3.986667  -0.001
C  C91  1  0.08260548  0.47638396  0.79568475  1  0.323113  -0.001077  -0.01854  -0.133063  -0.001002  3.987403  -0.001
C  C92  1  0.08136638  0.14938649  0.35197319  1  1.004677  -0.000913  0.139226  0.15625  3.3e-05  3.930202  0.0
C  C93  1  0.91857169  0.64935368  0.14801486  1  1.004621  0.000911  0.139197  0.156101  0.000119  3.930004  0.0
C  C94  1  0.91877977  0.85064606  0.64801818  1  1.003086  0.000836  0.139428  0.156692  6.1e-05  3.930425  0.0
C  C95  1  0.08130302  0.35065080  0.85200342  1  1.002808  0.000836  0.139359  0.156713  6.3e-05  3.930711  0.0
C  C96  1  0.89192951  0.02002831  0.34404320  1  0.342447  0.001823  0.079095  0.154674  0.001271  3.994164  0.002
C  C97  1  0.10807309  0.52001168  0.15591832  1  0.339538  -0.001825  0.07927  0.154832  -0.001179  3.99393  -0.002
C  C98  1  0.10821518  0.98000684  0.65598917  1  0.342722  -0.001757  0.079612  0.155313  -0.001131  3.99301  -0.002
C  C99  1  0.89186617  0.47999605  0.84405408  1  0.342873  -0.001765  0.079073  0.154437  -0.001133  3.994082  -0.002
C  C100  1  0.72818826  0.94569847  0.36470162  1  -0.02351  0.00041  -0.15557  -0.234534  0.000283  3.948027  0.0
C  C101  1  0.27183754  0.44569495  0.13524350  1  -0.020725  -0.000416  -0.155468  -0.233769  -0.000266  3.947565  0.0
C  C102  1  0.27191250  0.05434778  0.63533763  1  -0.022253  -0.000648  -0.155908  -0.235564  -0.000434  3.948441  0.0
C  C103  1  0.72808052  0.55431997  0.86471594  1  -0.023562  -0.000657  -0.155383  -0.233999  -0.000439  3.947314  0.0
C  C104  1  0.84564348  0.90062862  0.43435172  1  0.283632  -3e-06  -0.061985  -0.000416  1.6e-05  3.91604  0.0
C  C105  1  0.15430029  0.40058035  0.06561858  1  0.284788  6e-06  -0.062404  -0.001923  -1.9e-05  3.916922  0.0
C  C106  1  0.15446665  0.09937912  0.56567074  1  0.283076  4e-06  -0.061965  -0.000307  -4e-06  3.91573  0.0
C  C107  1  0.84557784  0.59941564  0.93436312  1  0.283192  8e-06  -0.062316  -0.001491  -8e-06  3.91657  0.0
C  C108  1  0.53270387  0.81089183  0.49294577  1  1.388846  5e-06  0.237665  0.565406  1.3e-05  4.109479  0.0
C  C109  1  0.46730902  0.31086077  0.00703702  1  1.387226  -1e-05  0.237689  0.565516  -1.5e-05  4.109164  0.0
C  C110  1  0.46732752  0.18913549  0.50705123  1  1.388171  -6e-06  0.237677  0.565464  2e-06  4.109582  0.0
C  C111  1  0.53264020  0.68917307  0.99296946  1  1.387238  -5e-06  0.237798  0.565502  0.0  4.109468  0.0
C  C112  1  0.43845732  0.72088563  0.50995386  1  -0.102284  -0.000239  -0.244949  -0.523247  -0.000152  3.88556  0.0
C  C113  1  0.56159969  0.22086184  0.99002038  1  -0.101866  2.6e-05  -0.245082  -0.523733  5.3e-05  3.885595  0.0
C  C114  1  0.56147238  0.27914887  0.49001946  1  -0.101821  -6.4e-05  -0.245005  -0.523558  -9.1e-05  3.885488  0.0
C  C115  1  0.43848743  0.77919093  0.00999730  1  -0.102373  -0.000209  -0.245223  -0.523646  -0.00011  3.88573  0.0
N  N116  1  0.49077907  0.05418043  0.16359959  1  -1.151733  0.123227  -0.632806  -0.539588  0.087263  3.408595  0.1
N  N117  1  0.50921503  0.55415619  0.33640394  1  -1.150721  -0.12328  -0.632827  -0.539841  -0.082766  3.407952  -0.1
N  N118  1  0.50938267  0.94577835  0.83641776  1  -1.151793  -0.123321  -0.632691  -0.539696  -0.082769  3.408203  -0.1
N  N119  1  0.49070369  0.44574123  0.66361620  1  -1.152978  -0.123326  -0.6328  -0.539372  -0.082769  3.408473  -0.1
N  N120  1  0.74285709  0.19824583  0.19354159  1  -1.202917  0.108919  -0.441206  -0.412181  0.076  3.634925  0.09
N  N121  1  0.25721599  0.69824930  0.30643724  1  -1.203607  -0.108883  -0.441229  -0.412366  -0.072067  3.634948  -0.09
N  N122  1  0.25721019  0.80172861  0.80641393  1  -1.202759  -0.109254  -0.441221  -0.412444  -0.07231  3.634899  -0.09
N  N123  1  0.74277884  0.30172384  0.69354270  1  -1.203199  -0.109327  -0.440981  -0.412296  -0.072358  3.634101  -0.09
N  N124  1  0.19886035  0.10465812  0.30091435  1  -1.218398  0.053866  -0.401239  -0.304801  0.039267  3.705982  0.046
N  N125  1  0.80110259  0.60461299  0.19906586  1  -1.216754  -0.053823  -0.40111  -0.304617  -0.037204  3.705834  -0.046
N  N126  1  0.80125719  0.89535222  0.69908527  1  -1.217268  -0.054116  -0.400948  -0.304869  -0.037349  3.70587  -0.046
N  N127  1  0.19881788  0.39534840  0.80093847  1  -1.216641  -0.054182  -0.401105  -0.305065  -0.037397  3.706097  -0.046
N  N128  1  0.89624804  0.10015888  0.37898760  1  -1.300297  0.001638  -0.372531  -0.262205  0.001045  3.649844  0.002
N  N129  1  0.10370394  0.60014419  0.12098710  1  -1.301833  -0.001642  -0.372563  -0.262094  -0.000941  3.650045  -0.002
N  N130  1  0.10390216  0.89988998  0.62102354  1  -1.299267  -0.001713  -0.373019  -0.262635  -0.000982  3.650143  -0.002
N  N131  1  0.89617821  0.39988052  0.87901163  1  -1.299111  -0.001709  -0.372662  -0.262075  -0.000979  3.65049  -0.002
N  N132  1  0.72884243  0.81728695  0.44953599  1  -1.261764  -8.1e-05  -0.423344  -0.36501  -3e-05  3.54214  0.0
N  N133  1  0.27111856  0.31724312  0.05042862  1  -1.261716  -8.4e-05  -0.422862  -0.364114  -7.9e-05  3.542212  0.0
N  N134  1  0.27121966  0.18272274  0.55046866  1  -1.261868  3.1e-05  -0.423381  -0.364888  4.9e-05  3.542154  0.0
N  N135  1  0.72881523  0.68276461  0.94956883  1  -1.260991  -0.000127  -0.422828  -0.364407  -6.6e-05  3.542419  0.0
O  O136  1  0.07074983  0.16901319  0.11773088  1  -1.207244  0.017107  -0.328935  -0.57495  0.011451  2.230775  0.014
O  O137  1  0.92925493  0.66904894  0.38222092  1  -1.2079  -0.017142  -0.328887  -0.57534  -0.010809  2.231151  -0.014
O  O138  1  0.92933090  0.83092536  0.88222979  1  -1.207697  -0.017169  -0.328898  -0.57526  -0.010833  2.231169  -0.014
O  O139  1  0.07073596  0.33099209  0.61774747  1  -1.207478  -0.017161  -0.328859  -0.575151  -0.010817  2.230992  -0.014
O  O140  1  0.48695377  0.26233484  0.29877356  1  -1.121262  0.108583  -0.330791  -0.543186  0.075965  2.323409  0.099
O  O141  1  0.51305610  0.76232337  0.20120556  1  -1.121903  -0.108647  -0.330679  -0.543065  -0.072032  2.322776  -0.1
O  O142  1  0.51305794  0.73765593  0.70117551  1  -1.121019  -0.109027  -0.330757  -0.543339  -0.072245  2.322891  -0.1
O  O143  1  0.48678178  0.23769938  0.79877106  1  -1.121414  -0.108898  -0.330796  -0.543086  -0.072176  2.323427  -0.1
O  O144  1  0.72164147  0.38429679  0.31258373  1  -1.202256  0.021612  -0.324156  -0.543024  0.014894  2.158875  0.018
O  O145  1  0.27846266  0.88431087  0.18744397  1  -1.202556  -0.021644  -0.324266  -0.543203  -0.014116  2.159022  -0.018
O  O146  1  0.27833756  0.61568745  0.68735218  1  -1.203683  -0.025722  -0.324546  -0.543397  -0.016532  2.15778  -0.021
O  O147  1  0.72156057  0.11578433  0.81267759  1  -1.202599  -0.025684  -0.324581  -0.543388  -0.016517  2.157916  -0.021
O  O148  1  0.43478937  0.87790886  0.51948458  1  -1.182579  -0.000504  -0.307801  -0.52158  -0.000346  2.188364  0.0
O  O149  1  0.56517685  0.37788757  0.98051115  1  -1.181991  -0.00045  -0.3079  -0.521647  -0.000314  2.188449  0.0
O  O150  1  0.56532252  0.12212434  0.48052370  1  -1.182019  0.000422  -0.307766  -0.521571  0.000315  2.18835  0.0
O  O151  1  0.43464598  0.62216455  0.01948818  1  -1.18195  -0.000502  -0.307877  -0.521411  -0.000349  2.188532  0.0
