# generated using pymatgen
data_Zn3H30C54(NO9)2
_symmetry_space_group_name_H-M   'P 1'
_cell_length_a   10.21406530
_cell_length_b   10.54383521
_cell_length_c   12.78598013
_cell_angle_alpha   97.25590599
_cell_angle_beta   94.23313279
_cell_angle_gamma   114.11463412
_symmetry_Int_Tables_number   1
_chemical_formula_structural   Zn3H30C54(NO9)2
_chemical_formula_sum   'Zn3 H30 C54 N2 O18'
_cell_volume   1234.73773688
_cell_formula_units_Z   1
loop_
 _symmetry_equiv_pos_site_id
 _symmetry_equiv_pos_as_xyz
  1  'x, y, z'
loop_
 _atom_site_type_symbol
 _atom_site_label
 _atom_site_symmetry_multiplicity
 _atom_site_fract_x
 _atom_site_fract_y
 _atom_site_fract_z
 _atom_site_occupancy
 _atom_site_pbe_bader_charge
 _atom_site_pbe_bader_spin_density
 _atom_site_pbe_cm5_charge
 _atom_site_pbe_ddec_charge
 _atom_site_pbe_ddec_spin_density
 _atom_site_pbe_ddec_sum_bond_order
 _atom_site_pbe_magmom
Zn  Zn0  1  0.49996851  0.99999724  0.49999676  1  1.374042  0  0.671151  0.948042  0  2.26267  0
Zn  Zn1  1  0.66414208  0.80390645  0.55838405  1  1.291932  0  0.671612  0.813017  0  2.323139  0
Zn  Zn2  1  0.33585798  0.19611738  0.44160981  1  1.291748  0  0.671607  0.813028  0  2.323176  0
H  H3  1  0.44867712  0.45720498  0.28516363  1  0.114167  0  0.103702  0.105095  0  1.025293  0
H  H4  1  0.55133875  0.54282074  0.71483460  1  0.113564  0  0.103658  0.105062  0  1.025314  0
H  H5  1  0.18198094  0.68410176  0.28460083  1  0.105468  0  0.101793  0.101799  0  1.055897  0
H  H6  1  0.81799009  0.31587671  0.71540607  1  0.105409  0  0.101827  0.101792  0  1.056045  0
H  H7  1  0.29548709  0.29311940  0.12427152  1  0.046863  0  0.103721  0.10906  0  0.992383  0
H  H8  1  0.70453685  0.70689228  0.87573089  1  0.046823  0  0.103699  0.109082  0  0.992454  0
H  H9  1  0.61520241  0.51491673  0.44999684  1  0.125337  0  0.116476  0.087348  0  1.021578  0
H  H10  1  0.38479398  0.48509661  0.54999456  1  0.124592  0  0.116506  0.087353  0  1.021602  0
H  H11  1  0.26800368  0.36806183  0.93095612  1  0.104834  0  0.111001  0.119965  0  0.997783  0
H  H12  1  0.73200412  0.63193142  0.06905268  1  0.104922  0  0.111062  0.120064  0  0.997809  0
H  H13  1  0.73566904  0.09215084  0.87643160  1  0.075521  0  0.113614  0.126515  0  0.974624  0
H  H14  1  0.26434198  0.90783545  0.12356831  1  0.075408  0  0.113658  0.126522  0  0.974576  0
H  H15  1  0.87889672  0.05559318  0.12794832  1  0.056549  0  0.102303  0.108221  0  0.997924  0
H  H16  1  0.12110613  0.94439042  0.87206207  1  0.056688  0  0.10239  0.108375  0  0.997943  0
H  H17  1  0.71319581  0.01655861  0.26638474  1  0.099833  0  0.108284  0.119767  0  1.002863  0
H  H18  1  0.28679685  0.98342744  0.73361964  1  0.100016  0  0.108284  0.11982  0  1.00297  0
H  H19  1  0.60878447  0.35265118  0.18871752  1  0.10449  0  0.104617  0.110758  0  1.00769  0
H  H20  1  0.39121978  0.64733655  0.81127548  1  0.104437  0  0.104581  0.110687  0  1.007609  0
H  H21  1  0.76515000  0.38453020  0.04418384  1  0.08116  0  0.097835  0.100476  0  1.028556  0
H  H22  1  0.23485852  0.61545104  0.95581134  1  0.081233  0  0.097835  0.100455  0  1.028605  0
H  H23  1  0.75581254  0.37741490  0.41838285  1  0.097908  0  0.107618  0.113179  0  1.058546  0
H  H24  1  0.24417613  0.62259270  0.58161621  1  0.097871  0  0.107596  0.113128  0  1.058657  0
H  H25  1  0.12929644  0.73541050  0.59638315  1  0.107668  0  0.110543  0.118655  0  1.028105  0
H  H26  1  0.87069242  0.26459896  0.40362091  1  0.107504  0  0.110548  0.118647  0  1.028174  0
H  H27  1  0.97302618  0.85886106  0.62022960  1  0.164288  0  0.122697  0.104142  0  1.013214  0
H  H28  1  0.02696303  0.14114903  0.37976280  1  0.164186  0  0.1226  0.104085  0  1.013207  0
H  H29  1  0.02818827  0.52100882  0.12066098  1  0.068105  0  0.095412  0.093459  0  1.046267  0
H  H30  1  0.97179471  0.47896125  0.87934396  1  0.067815  0  0.095405  0.09345  0  1.046273  0
H  H31  1  0.35388711  0.31251707  0.68327426  1  0.655494  0  0.303362  0.361322  0  0.975874  0
H  H32  1  0.64611811  0.68752030  0.31672489  1  0.655443  0  0.303349  0.361404  0  0.975732  0
C  C33  1  0.42493560  0.69597567  0.38312885  1  1.567309  0  0.219334  0.586738  0  4.155835  0
C  C34  1  0.57505436  0.30403518  0.61686916  1  1.567893  0  0.219346  0.586351  0  4.155734  0
C  C35  1  0.32796898  0.58567351  0.29240024  1  -0.119985  0  -0.022939  -0.051119  0  3.980158  0
C  C36  1  0.67202225  0.41432528  0.70760454  1  -0.120808  0  -0.022968  -0.050982  0  3.979779  0
C  C37  1  0.35831481  0.47342506  0.24844596  1  0.008371  0  -0.083809  -0.080759  0  3.96607  0
C  C38  1  0.64169062  0.52658448  0.75155672  1  0.009389  0  -0.083674  -0.080586  0  3.965664  0
C  C39  1  0.20554069  0.59845821  0.24769436  1  0.02936  0  -0.083991  -0.076875  0  3.963016  0
C  C40  1  0.79444044  0.40152557  0.75231269  1  0.030924  0  -0.084019  -0.076929  0  3.963155  0
C  C41  1  0.27221693  0.38095883  0.15751223  1  -0.009486  0  -0.087086  -0.123459  0  3.95215  0
C  C42  1  0.72779226  0.61904320  0.84249167  1  -0.01314  0  -0.087097  -0.123571  0  3.952319  0
C  C43  1  0.15428905  0.39864686  0.10883652  1  -0.011539  0  -0.004449  0.07243  0  4.004321  0
C  C44  1  0.84571139  0.60134129  0.89116827  1  -0.008471  0  -0.004431  0.072405  0  4.004648  0
C  C45  1  0.72931435  0.55948563  0.48229258  1  0.422545  0  0.042569  0.091832  0  3.951737  0
C  C46  1  0.27067932  0.44052544  0.51770158  1  0.42354  0  0.042599  0.09195  0  3.951544  0
C  C47  1  0.07345534  0.31107876  0.00521658  1  -0.034046  0  0.001711  0.024671  0  3.969965  0
C  C48  1  0.92654879  0.68891167  0.99478547  1  -0.033619  0  0.001629  0.024545  0  3.969892  0
C  C49  1  0.15075846  0.30784966  0.91947564  1  -0.001242  0  -0.077845  -0.13883  0  3.948892  0
C  C50  1  0.84924946  0.69214498  0.08052710  1  -0.001404  0  -0.07786  -0.138922  0  3.948901  0
C  C51  1  0.08195773  0.22830507  0.81914415  1  -0.007613  0  -0.011091  -0.059536  0  3.978712  0
C  C52  1  0.91805392  0.77169387  0.18085773  1  -0.008107  0  -0.011121  -0.059614  0  3.978549  0
C  C53  1  0.16752915  0.21747614  0.73152993  1  1.542304  0  0.226977  0.574031  0  4.135204  0
C  C54  1  0.83249007  0.78253330  0.26847444  1  1.542406  0  0.227077  0.574215  0  4.134627  0
C  C55  1  0.93103533  0.14967271  0.80391156  1  -0.030853  0  0.000146  -0.025386  0  3.97819  0
C  C56  1  0.06897788  0.85032308  0.19608984  1  -0.030213  0  0.000241  -0.025217  0  3.978202  0
C  C57  1  0.84791611  0.04682549  0.70528265  1  1.489399  0  0.232185  0.486236  0  4.117598  0
C  C58  1  0.15209155  0.95318324  0.29471522  1  1.489401  0  0.232138  0.486285  0  4.117647  0
C  C59  1  0.85274265  0.15412978  0.88828494  1  -0.052206  0  -0.073594  -0.139491  0  3.931175  0
C  C60  1  0.14726850  0.84585638  0.11171730  1  -0.052039  0  -0.073754  -0.13965  0  3.931181  0
C  C61  1  0.92144921  0.23333040  0.98870480  1  0.072424  0  0.007994  0.041967  0  3.951621  0
C  C62  1  0.07855549  0.76665687  0.01129676  1  0.07222  0  0.008092  0.042206  0  3.951444  0
C  C63  1  0.55033812  0.15283176  0.31824167  1  1.543501  0  0.215381  0.583716  0  4.175053  0
C  C64  1  0.44965882  0.84715901  0.68175409  1  1.543467  0  0.215443  0.58384  0  4.174894  0
C  C65  1  0.81768528  0.11899120  0.14011693  1  -0.037351  0  -0.08797  -0.130404  0  3.964923  0
C  C66  1  0.18231769  0.88099379  0.85988740  1  -0.037169  0  -0.088124  -0.130655  0  3.965342  0
C  C67  1  0.72556665  0.09708731  0.21737539  1  -0.053289  0  -0.079729  -0.078079  0  3.960999  0
C  C68  1  0.27443222  0.90289992  0.78262689  1  -0.053913  0  -0.079776  -0.078284  0  3.961155  0
C  C69  1  0.64867102  0.18034768  0.23433675  1  -0.027166  0  -0.025268  -0.061471  0  3.996429  0
C  C70  1  0.35133052  0.81964187  0.76566199  1  -0.026924  0  -0.025094  -0.061165  0  3.995897  0
C  C71  1  0.66574650  0.28594813  0.17329520  1  -0.05425  0  -0.081292  -0.080102  0  3.971192  0
C  C72  1  0.33425846  0.71404041  0.82670264  1  -0.054555  0  -0.081302  -0.080094  0  3.970952  0
C  C73  1  0.75458929  0.30463170  0.09350886  1  -0.035071  0  -0.090863  -0.134614  0  3.974969  0
C  C74  1  0.24541681  0.69535257  0.90648911  1  -0.034943  0  -0.090906  -0.134635  0  3.975031  0
C  C75  1  0.83129394  0.22154259  0.07639018  1  -0.020354  0  -0.001368  0.078001  0  3.999571  0
C  C76  1  0.16871089  0.77844047  0.92361073  1  -0.020156  0  -0.001307  0.07803  0  3.999665  0
C  C77  1  0.81003956  0.48279533  0.46445908  1  0.07129  0  -0.078161  -0.155312  0  3.931115  0
C  C78  1  0.18995145  0.51721342  0.53553861  1  0.071594  0  -0.078155  -0.155377  0  3.931044  0
C  C79  1  0.95659142  0.54102594  0.50715618  1  0.016059  0  0.019635  0.1117  0  3.947931  0
C  C80  1  0.04339948  0.45898495  0.49284106  1  -0.044154  0  0.019804  0.111909  0  3.947965  0
C  C81  1  0.01567059  0.67973861  0.56331933  1  -0.035476  0  -0.068577  -0.141046  0  3.885275  0
C  C82  1  0.98431960  0.32026996  0.43668147  1  -0.0353  0  -0.068705  -0.141209  0  3.885468  0
C  C83  1  0.92847778  0.75084388  0.57756013  1  0.452706  0  0.058397  0.114445  0  3.891628  0
C  C84  1  0.07151156  0.24916609  0.42243460  1  0.452627  0  0.058547  0.11468  0  3.891227  0
C  C85  1  0.11981023  0.50637745  0.15682739  1  -0.093159  0  -0.092037  -0.132526  0  3.977165  0
C  C86  1  0.88017602  0.49359996  0.84317951  1  -0.093705  0  -0.092054  -0.132531  0  3.977333  0
N  N87  1  0.78624317  0.69114667  0.53909335  1  -1.249173  0  -0.328596  -0.232877  0  3.561458  0
N  N88  1  0.21374884  0.30886562  0.46089785  1  -1.248949  0  -0.328666  -0.233062  0  3.561372  0
O  O89  1  0.12119904  0.11680622  0.65766332  1  -1.137936  0  -0.27565  -0.473881  0  2.131263  0
O  O90  1  0.87883553  0.88319436  0.34234767  1  -1.138067  0  -0.275815  -0.474057  0  2.131069  0
O  O91  1  0.29812727  0.32589646  0.74359874  1  -1.176279  0  -0.337739  -0.493452  0  2.308745  0
O  O92  1  0.70187775  0.67413345  0.25640082  1  -1.176039  0  -0.337714  -0.493536  0  2.308446  0
O  O93  1  0.80249964  0.91852820  0.70585200  1  -1.134412  0  -0.269961  -0.458305  0  2.336357  0
O  O94  1  0.19748997  0.08147944  0.29414629  1  -1.134483  0  -0.269961  -0.4583  0  2.33622  0
O  O95  1  0.81741230  0.10466240  0.62567590  1  -0.610361  0  -0.064564  -0.055964  0  2.491564  0
O  O96  1  0.18261075  0.89535480  0.37432265  1  -0.610464  0  -0.064479  -0.056035  0  2.491564  0
O  O97  1  0.55141300  0.69827857  0.40895804  1  -1.196351  0  -0.314894  -0.571755  0  2.416469  0
O  O98  1  0.44859252  0.30176154  0.59102977  1  -1.196582  0  -0.314867  -0.571588  0  2.416457  0
O  O99  1  0.38258831  0.78135187  0.42990622  1  -1.165245  0  -0.292307  -0.520989  0  2.361374  0
O  O100  1  0.61738374  0.21863832  0.57010017  1  -1.165557  0  -0.29237  -0.520753  0  2.361  0
O  O101  1  0.50133180  0.24344562  0.34882470  1  -1.168858  0  -0.313126  -0.539964  0  2.313027  0
O  O102  1  0.49866632  0.75654853  0.65116766  1  -1.169018  0  -0.313159  -0.540024  0  2.312857  0
O  O103  1  0.52412723  0.03815994  0.35287936  1  -1.169794  0  -0.318042  -0.551041  0  2.398489  0
O  O104  1  0.47586239  0.96182979  0.64711615  1  -1.169679  0  -0.318101  -0.551106  0  2.398596  0
O  O105  1  0.72903848  0.00326299  0.53125230  1  -0.540614  0  -0.269607  -0.425484  0  1.915683  0
O  O106  1  0.27097512  0.99675949  0.46874697  1  -0.540484  0  -0.269554  -0.425355  0  1.915733  0
