# generated using pymatgen
data_CdH7C4Br2NO2
_symmetry_space_group_name_H-M   'P 1'
_cell_length_a   6.59399882
_cell_length_b   11.12686004
_cell_length_c   12.98958740
_cell_angle_alpha   90.00509327
_cell_angle_beta   89.99956722
_cell_angle_gamma   105.35075134
_symmetry_Int_Tables_number   1
_chemical_formula_structural   CdH7C4Br2NO2
_chemical_formula_sum   'Cd4 H28 C16 Br8 N4 O8'
_cell_volume   919.05078214
_cell_formula_units_Z   4
loop_
 _symmetry_equiv_pos_site_id
 _symmetry_equiv_pos_as_xyz
  1  'x, y, z'
loop_
 _atom_site_type_symbol
 _atom_site_label
 _atom_site_symmetry_multiplicity
 _atom_site_fract_x
 _atom_site_fract_y
 _atom_site_fract_z
 _atom_site_occupancy
 _atom_site_hle17_bader_spin_density
 _atom_site_hle17_ddec_charge
 _atom_site_hle17_ddec_spin_density
 _atom_site_hle17_ddec_sum_bond_order
 _atom_site_hle17_magmom
 _atom_site_hse06_10hf_bader_spin_density
 _atom_site_hse06_10hf_ddec_charge
 _atom_site_hse06_10hf_ddec_spin_density
 _atom_site_hse06_10hf_ddec_sum_bond_order
 _atom_site_hse06_10hf_magmom
 _atom_site_hse06_bader_spin_density
 _atom_site_hse06_ddec_charge
 _atom_site_hse06_ddec_spin_density
 _atom_site_hse06_ddec_sum_bond_order
 _atom_site_hse06_magmom
 _atom_site_pbe_bader_spin_density
 _atom_site_pbe_cm5_charge
 _atom_site_pbe_ddec_charge
 _atom_site_pbe_ddec_spin_density
 _atom_site_pbe_ddec_sum_bond_order
 _atom_site_pbe_magmom
Cd  Cd0  1  0.93208147  0.14358815  0.55540443  1  0  0.922978  0  1.929111  0  0  0.760346  0  2.411714  0  0  0.813819  0  2.362515  0  0  0.526247  0.723019  0  2.445185  0
Cd  Cd1  1  0.06785010  0.35639018  0.05540759  1  0  0.92302  0  1.928978  0  0  0.7604  0  2.411539  0  0  0.813872  0  2.362343  0  0  0.526272  0.723077  0  2.445  0
Cd  Cd2  1  0.06798499  0.85645523  0.44461130  1  0  0.923037  0  1.929117  0  0  0.760318  0  2.411902  0  0  0.813776  0  2.362738  0  0  0.526357  0.723111  0  2.445143  0
Cd  Cd3  1  0.93207566  0.64354695  0.94460508  1  0  0.922982  0  1.928898  0  0  0.760308  0  2.411543  0  0  0.813788  0  2.362348  0  0  0.526305  0.723044  0  2.44489  0
H  H4  1  0.31548430  0.66634768  0.69198105  1  0  0.109489  0  0.928086  0  0  0.120475  0  0.989584  0  0  0.122884  0  0.987992  0  0  0.110501  0.118698  0  0.990737  0
H  H5  1  0.68456604  0.83368259  0.19198447  1  0  0.109333  0  0.928384  0  0  0.120507  0  0.989683  0  0  0.122922  0  0.988084  0  0  0.110524  0.118702  0  0.990865  0
H  H6  1  0.68468583  0.33371221  0.30806394  1  0  0.109284  0  0.928554  0  0  0.120504  0  0.989833  0  0  0.122924  0  0.988246  0  0  0.110504  0.118728  0  0.990984  0
H  H7  1  0.31526891  0.16626253  0.80804513  1  0  0.109276  0  0.928712  0  0  0.120558  0  0.989951  0  0  0.122981  0  0.988355  0  0  0.110486  0.118781  0  0.991101  0
H  H8  1  0.30600812  0.59934692  0.56487269  1  0  0.091433  0  0.937114  0  0  0.10082  0  1.005423  0  0  0.103163  0  1.003251  0  0  0.105924  0.09903  0  1.007108  0
H  H9  1  0.69400667  0.90065592  0.06487844  1  0  0.091432  0  0.937133  0  0  0.10081  0  1.00549  0  0  0.103153  0  1.003324  0  0  0.105933  0.099031  0  1.00716  0
H  H10  1  0.69409706  0.40072621  0.43516460  1  0  0.091363  0  0.937022  0  0  0.10072  0  1.005425  0  0  0.10313  0  1.003197  0  0  0.105919  0.098941  0  1.007092  0
H  H11  1  0.30589738  0.09927439  0.93514577  1  0  0.091319  0  0.937183  0  0  0.100768  0  1.005499  0  0  0.103174  0  1.003274  0  0  0.105902  0.098981  0  1.007172  0
H  H12  1  0.63376575  0.43917474  0.61236971  1  0  0.088442  0  0.945401  0  0  0.098949  0  1.01291  0  0  0.101283  0  1.010719  0  0  0.102096  0.097161  0  1.014623  0
H  H13  1  0.36618687  0.06080321  0.11240052  1  0  0.088529  0  0.945528  0  0  0.099045  0  1.013017  0  0  0.101377  0  1.010838  0  0  0.102148  0.097252  0  1.01473  0
H  H14  1  0.36631499  0.56084312  0.38762756  1  0  0.088663  0  0.945245  0  0  0.099  0  1.012887  0  0  0.101334  0  1.010704  0  0  0.102085  0.097207  0  1.014603  0
H  H15  1  0.63373207  0.93917539  0.88760291  1  0  0.088586  0  0.945428  0  0  0.099048  0  1.012963  0  0  0.101385  0  1.01078  0  0  0.102146  0.097248  0  1.014674  0
H  H16  1  0.67686777  0.48724783  0.74426115  1  0  0.085125  0  0.970387  0  0  0.095798  0  1.038902  0  0  0.097371  0  1.038059  0  0  0.09298  0.094523  0  1.039728  0
H  H17  1  0.32313948  0.01274115  0.24428420  1  0  0.085293  0  0.970351  0  0  0.095976  0  1.03889  0  0  0.09756  0  1.038032  0  0  0.092984  0.094699  0  1.039715  0
H  H18  1  0.32325563  0.51277543  0.25573535  1  0  0.085021  0  0.970665  0  0  0.095677  0  1.039149  0  0  0.097256  0  1.038293  0  0  0.092946  0.0944  0  1.03997  0
H  H19  1  0.67673837  0.98722122  0.75571537  1  0  0.084974  0  0.970723  0  0  0.095716  0  1.03916  0  0  0.097306  0  1.038301  0  0  0.092945  0.094444  0  1.039976  0
H  H20  1  0.67895168  0.69031413  0.69433674  1  0  0.295159  0  0.856693  0  0  0.277261  0  0.917954  0  0  0.284236  0  0.912595  0  0  0.305741  0.272272  0  0.921962  0
H  H21  1  0.32110208  0.80967475  0.19432640  1  0  0.295159  0  0.856672  0  0  0.277328  0  0.917856  0  0  0.284303  0  0.912495  0  0  0.305839  0.272341  0  0.921854  0
H  H22  1  0.32123920  0.30972154  0.30565976  1  0  0.295083  0  0.85697  0  0  0.277136  0  0.918177  0  0  0.284111  0  0.912818  0  0  0.305833  0.272161  0  0.92214  0
H  H23  1  0.67873232  0.19028490  0.80565855  1  0  0.295067  0  0.856896  0  0  0.277113  0  0.91818  0  0  0.284088  0  0.912826  0  0  0.305869  0.272142  0  0.922127  0
H  H24  1  0.67832463  0.64512731  0.56936480  1  0  0.311425  0  0.905601  0  0  0.290452  0  0.9694  0  0  0.298433  0  0.963934  0  0  0.303476  0.284799  0  0.973313  0
H  H25  1  0.32172035  0.85486606  0.06936352  1  0  0.311325  0  0.905687  0  0  0.290586  0  0.969208  0  0  0.298568  0  0.96374  0  0  0.303493  0.28493  0  0.973126  0
H  H26  1  0.32180832  0.35490838  0.43063323  1  0  0.311336  0  0.905908  0  0  0.290615  0  0.969312  0  0  0.298601  0  0.963843  0  0  0.303499  0.284942  0  0.973256  0
H  H27  1  0.67814714  0.14510294  0.93062912  1  0  0.311417  0  0.905674  0  0  0.290779  0  0.969056  0  0  0.298763  0  0.963584  0  0  0.303581  0.285106  0  0.973008  0
H  H28  1  0.30261620  0.46418027  0.77136249  1  0  0.101255  0  0.961795  0  0  0.10423  0  1.028428  0  0  0.107153  0  1.027088  0  0  0.090901  0.10215  0  1.029512  0
H  H29  1  0.69740795  0.03585830  0.27137472  1  0  0.101137  0  0.961616  0  0  0.104039  0  1.028327  0  0  0.10696  0  1.026987  0  0  0.09086  0.101961  0  1.029409  0
H  H30  1  0.69750255  0.53584269  0.22864247  1  0  0.101208  0  0.961585  0  0  0.104049  0  1.028389  0  0  0.106962  0  1.027039  0  0  0.090879  0.101972  0  1.029473  0
H  H31  1  0.30249367  0.96411285  0.72862793  1  0  0.101097  0  0.961737  0  0  0.104024  0  1.028476  0  0  0.106937  0  1.027128  0  0  0.090918  0.101948  0  1.029562  0
C  C32  1  0.20844286  0.35756059  0.63394178  1  0  0.677322  0  3.84657  0  0  0.627545  0  4.141088  0  0  0.661406  0  4.135744  0  0  0.195145  0.604625  0  4.143685  0
C  C33  1  0.79151386  0.14246148  0.13396298  1  0  0.676839  0  3.846404  0  0  0.627361  0  4.14041  0  0  0.661221  0  4.135067  0  0  0.195283  0.604445  0  4.143009  0
C  C34  1  0.79168481  0.64251667  0.36602699  1  0  0.677362  0  3.845989  0  0  0.627734  0  4.140194  0  0  0.661607  0  4.134819  0  0  0.195274  0.604807  0  4.142822  0
C  C35  1  0.20831953  0.85748900  0.86602350  1  0  0.677291  0  3.845671  0  0  0.627681  0  4.139898  0  0  0.661552  0  4.134521  0  0  0.195279  0.604756  0  4.142525  0
C  C36  1  0.34570517  0.46912810  0.68988482  1  0  -0.166727  0  3.56342  0  0  -0.165051  0  3.796508  0  0  -0.172142  0  3.807762  0  0  -0.088265  -0.160255  0  3.788659  0
C  C37  1  0.65429564  0.03089358  0.18989802  1  0  -0.165999  0  3.562516  0  0  -0.164307  0  3.795621  0  0  -0.171388  0  3.806873  0  0  -0.088088  -0.159513  0  3.787759  0
C  C38  1  0.65440705  0.53092088  0.31012168  1  0  -0.166555  0  3.562681  0  0  -0.164844  0  3.795844  0  0  -0.171917  0  3.807113  0  0  -0.088281  -0.160039  0  3.787987  0
C  C39  1  0.34558947  0.96906196  0.81010694  1  0  -0.16617  0  3.562494  0  0  -0.164443  0  3.795506  0  0  -0.171517  0  3.80679  0  0  -0.088289  -0.159639  0  3.787642  0
C  C40  1  0.58599668  0.49193278  0.67472387  1  0  0.036513  0  3.423441  0  0  -0.022803  0  3.664399  0  0  -0.018382  0  3.672409  0  0  -0.054947  -0.025591  0  3.658923  0
C  C41  1  0.41400012  0.00805991  0.17474239  1  0  0.036304  0  3.423538  0  0  -0.023055  0  3.664508  0  0  -0.018636  0  3.672505  0  0  -0.054909  -0.025842  0  3.659042  0
C  C42  1  0.41411482  0.50809702  0.32527493  1  0  0.036517  0  3.423574  0  0  -0.022596  0  3.664192  0  0  -0.018182  0  3.672205  0  0  -0.054728  -0.025383  0  3.658732  0
C  C43  1  0.58588729  0.99190397  0.82525873  1  0  0.036635  0  3.423554  0  0  -0.022657  0  3.664435  0  0  -0.018263  0  3.672462  0  0  -0.054724  -0.02542  0  3.658951  0
C  C44  1  0.36686113  0.59957914  0.64325180  1  0  0.033471  0  3.404679  0  0  -0.028041  0  3.649333  0  0  -0.02366  0  3.656678  0  0  -0.052798  -0.030806  0  3.644399  0
C  C45  1  0.63317241  0.90043872  0.14325874  1  0  0.033407  0  3.404827  0  0  -0.028359  0  3.649671  0  0  -0.023992  0  3.657031  0  0  -0.052956  -0.031117  0  3.644762  0
C  C46  1  0.63327589  0.40048232  0.35677395  1  0  0.033601  0  3.40488  0  0  -0.028376  0  3.649882  0  0  -0.024081  0  3.657238  0  0  -0.052957  -0.031155  0  3.64499  0
C  C47  1  0.36670495  0.09951087  0.85675546  1  0  0.033465  0  3.405284  0  0  -0.028564  0  3.65034  0  0  -0.024263  0  3.657697  0  0  -0.052927  -0.031337  0  3.645441  0
Br  Br48  1  0.43377700  0.82306492  0.41205634  1  0  -0.551054  0  0.934875  0  0  -0.492695  0  1.228483  0  0  -0.514025  0  1.205942  0  0  -0.286573  -0.478006  0  1.244159  0
Br  Br49  1  0.56627062  0.67693704  0.91207560  1  0  -0.5511  0  0.934649  0  0  -0.492725  0  1.228198  0  0  -0.514057  0  1.205657  0  0  -0.286631  -0.478014  0  1.243889  0
Br  Br50  1  0.56626957  0.17696720  0.58792937  1  0  -0.551058  0  0.934685  0  0  -0.492684  0  1.228249  0  0  -0.514022  0  1.205717  0  0  -0.286637  -0.477972  0  1.243953  0
Br  Br51  1  0.43367063  0.32301198  0.08793399  1  0  -0.551031  0  0.934531  0  0  -0.492721  0  1.228157  0  0  -0.514059  0  1.205624  0  0  -0.286613  -0.47799  0  1.243831  0
Br  Br52  1  0.93140621  0.91266212  0.62676314  1  0  -0.483207  0  1.180299  0  0  -0.41154  0  1.50527  0  0  -0.433687  0  1.477613  0  0  -0.206913  -0.396131  0  1.524304  0
Br  Br53  1  0.06865999  0.58736479  0.12675174  1  0  -0.48317  0  1.180201  0  0  -0.411533  0  1.505215  0  0  -0.433686  0  1.477558  0  0  -0.20686  -0.396114  0  1.524254  0
Br  Br54  1  0.06860201  0.08739675  0.37324027  1  0  -0.483226  0  1.180041  0  0  -0.411569  0  1.505009  0  0  -0.433724  0  1.477366  0  0  -0.206903  -0.396161  0  1.524031  0
Br  Br55  1  0.93137935  0.41255847  0.87323091  1  0  -0.483212  0  1.17987  0  0  -0.411587  0  1.504854  0  0  -0.433743  0  1.47721  0  0  -0.206899  -0.396168  0  1.523885  0
N  N56  1  0.60483661  0.62459905  0.64120334  1  0  -0.28989  0  3.217476  0  0  -0.219196  0  3.423737  0  0  -0.23399  0  3.430954  0  0  -0.472809  -0.209123  0  3.418832  0
N  N57  1  0.39519910  0.87539785  0.14120700  1  0  -0.289994  0  3.217528  0  0  -0.219489  0  3.423667  0  0  -0.234276  0  3.430879  0  0  -0.473062  -0.209419  0  3.418771  0
N  N58  1  0.39531107  0.37544030  0.35879855  1  0  -0.289971  0  3.217721  0  0  -0.219163  0  3.423431  0  0  -0.233943  0  3.430666  0  0  -0.47306  -0.20909  0  3.418541  0
N  N59  1  0.60466815  0.12456477  0.85878642  1  0  -0.289944  0  3.217457  0  0  -0.219435  0  3.423738  0  0  -0.234208  0  3.430958  0  0  -0.473227  -0.209367  0  3.418858  0
O  O60  1  0.13194319  0.25873673  0.68576382  1  0  -0.608735  0  1.978896  0  0  -0.546391  0  2.222262  0  0  -0.575968  0  2.213554  0  0  -0.332262  -0.525751  0  2.227433  0
O  O61  1  0.86802484  0.24129081  0.18578705  1  0  -0.608584  0  1.978944  0  0  -0.546318  0  2.222074  0  0  -0.575891  0  2.213364  0  0  -0.332346  -0.52568  0  2.227246  0
O  O62  1  0.86817263  0.74131975  0.31419572  1  0  -0.608863  0  1.979293  0  0  -0.546525  0  2.222364  0  0  -0.576092  0  2.213643  0  0  -0.332359  -0.525898  0  2.227534  0
O  O63  1  0.13179688  0.75867260  0.81417711  1  0  -0.609017  0  1.978796  0  0  -0.54668  0  2.221883  0  0  -0.576255  0  2.21316  0  0  -0.332492  -0.526047  0  2.22707  0
O  O64  1  0.17322383  0.36541885  0.53773668  1  0  -0.652922  0  1.962232  0  0  -0.590163  0  2.190404  0  0  -0.617899  0  2.181255  0  0  -0.338386  -0.570672  0  2.195888  0
O  O65  1  0.82669690  0.13459254  0.03774935  1  0  -0.652909  0  1.961952  0  0  -0.590193  0  2.189939  0  0  -0.617934  0  2.180793  0  0  -0.338527  -0.57071  0  2.195429  0
O  O66  1  0.82694361  0.63468093  0.46223979  1  0  -0.652893  0  1.961687  0  0  -0.59  0  2.189767  0  0  -0.617751  0  2.180626  0  0  -0.338401  -0.57053  0  2.195261  0
O  O67  1  0.17310940  0.86533165  0.96223098  1  0  -0.652747  0  1.961908  0  0  -0.589973  0  2.190002  0  0  -0.617724  0  2.180861  0  0  -0.338248  -0.570495  0  2.195489  0
