# generated using pymatgen
data_CsH13(C4O3)3
_symmetry_space_group_name_H-M   'P 1'
_cell_length_a   8.18659823
_cell_length_b   9.68558336
_cell_length_c   9.92962002
_cell_angle_alpha   116.28873964
_cell_angle_beta   95.24825722
_cell_angle_gamma   97.38631041
_symmetry_Int_Tables_number   1
_chemical_formula_structural   CsH13(C4O3)3
_chemical_formula_sum   'Cs2 H26 C24 O18'
_cell_volume   690.22905450
_cell_formula_units_Z   2
loop_
 _symmetry_equiv_pos_site_id
 _symmetry_equiv_pos_as_xyz
  1  'x, y, z'
loop_
 _atom_site_type_symbol
 _atom_site_label
 _atom_site_symmetry_multiplicity
 _atom_site_fract_x
 _atom_site_fract_y
 _atom_site_fract_z
 _atom_site_occupancy
 _atom_site_hle17_bader_spin_density
 _atom_site_hle17_ddec_charge
 _atom_site_hle17_ddec_spin_density
 _atom_site_hle17_ddec_sum_bond_order
 _atom_site_hle17_magmom
 _atom_site_hse06_10hf_bader_spin_density
 _atom_site_hse06_10hf_ddec_charge
 _atom_site_hse06_10hf_ddec_spin_density
 _atom_site_hse06_10hf_ddec_sum_bond_order
 _atom_site_hse06_10hf_magmom
 _atom_site_hse06_bader_spin_density
 _atom_site_hse06_ddec_charge
 _atom_site_hse06_ddec_spin_density
 _atom_site_hse06_ddec_sum_bond_order
 _atom_site_hse06_magmom
 _atom_site_pbe_bader_spin_density
 _atom_site_pbe_cm5_charge
 _atom_site_pbe_ddec_charge
 _atom_site_pbe_ddec_spin_density
 _atom_site_pbe_ddec_sum_bond_order
 _atom_site_pbe_magmom
Cs  Cs0  1  0.76202361  0.45389215  0.18529941  1  0  0.96249  0  0.533219  0  0  0.912849  0  0.75574  0  0  0.928396  0  0.731854  0  0  0.853748  0.900601  0  0.774134  0
Cs  Cs1  1  0.23797692  0.54610702  0.81470088  1  0  0.962485  0  0.533233  0  0  0.912841  0  0.755762  0  0  0.928391  0  0.731874  0  0  0.853746  0.900593  0  0.774156  0
H  H2  1  0.15399188  0.63508894  0.48847631  1  0  0.410262  0  0.877788  0  0  0.379313  0  0.956194  0  0  0.392496  0  0.94134  0  0  0.304905  0.370059  0  0.96616  0
H  H3  1  0.84600864  0.36491024  0.51152298  1  0  0.410284  0  0.877732  0  0  0.379338  0  0.956132  0  0  0.392522  0  0.941293  0  0  0.304922  0.370084  0  0.966098  0
H  H4  1  0.26141709  0.16944561  0.82516428  1  0  0.409528  0  0.882006  0  0  0.379721  0  0.958088  0  0  0.39178  0  0.945073  0  0  0.301546  0.37127  0  0.966791  0
H  H5  1  0.73858050  0.83055123  0.17483480  1  0  0.409555  0  0.881954  0  0  0.37978  0  0.957988  0  0  0.391838  0  0.944987  0  0  0.301563  0.371327  0  0.966697  0
H  H6  1  0.66456585  0.41613893  0.72826865  1  0  0.397161  0  0.895607  0  0  0.362236  0  0.978795  0  0  0.376588  0  0.963614  0  0  0.301739  0.35188  0  0.989702  0
H  H7  1  0.33543614  0.58386141  0.27173124  1  0  0.397126  0  0.895687  0  0  0.362221  0  0.978836  0  0  0.376573  0  0.963654  0  0  0.301728  0.351864  0  0.989744  0
H  H8  1  0.76979721  0.67099893  0.94809030  1  0  0.444128  0  0.845458  0  0  0.411873  0  0.910797  0  0  0.422333  0  0.895314  0  0  0.307129  0.40422  0  0.922198  0
H  H9  1  0.23020207  0.32900025  0.05190790  1  0  0.44415  0  0.845416  0  0  0.411901  0  0.910742  0  0  0.422362  0  0.89526  0  0  0.307141  0.40425  0  0.92214  0
H  H10  1  0.92697909  0.69635023  0.07400088  1  0  0.425654  0  0.874999  0  0  0.395509  0  0.938448  0  0  0.40578  0  0.923279  0  0  0.299915  0.388089  0  0.949452  0
H  H11  1  0.07302046  0.30365012  0.92599986  1  0  0.425597  0  0.875076  0  0  0.39545  0  0.938527  0  0  0.405725  0  0.923351  0  0  0.299904  0.388032  0  0.949529  0
H  H12  1  0.82368389  0.81087160  0.47726845  1  0  0.075023  0  0.935178  0  0  0.082093  0  1.000936  0  0  0.084898  0  0.999286  0  0  0.101904  0.079689  0  1.002759  0
H  H13  1  0.17631688  0.18912874  0.52273136  1  0  0.075006  0  0.935215  0  0  0.082091  0  1.000958  0  0  0.084897  0  0.999307  0  0  0.101912  0.079686  0  1.002782  0
H  H14  1  0.58450362  0.69514497  0.51176404  1  0  0.09148  0  0.930461  0  0  0.09962  0  0.995626  0  0  0.102093  0  0.994639  0  0  0.109707  0.097792  0  0.996711  0
H  H15  1  0.41549690  0.30485420  0.48823524  1  0  0.091513  0  0.930435  0  0  0.099644  0  0.995592  0  0  0.102117  0  0.994605  0  0  0.109713  0.097816  0  0.996679  0
H  H16  1  0.49024109  0.80749902  0.76598304  1  0  0.065678  0  0.920237  0  0  0.076044  0  0.981534  0  0  0.077845  0  0.98059  0  0  0.104266  0.074852  0  0.982047  0
H  H17  1  0.50975794  0.19249899  0.23401362  1  0  0.065678  0  0.920215  0  0  0.076033  0  0.981541  0  0  0.077836  0  0.980593  0  0  0.104279  0.074841  0  0.982055  0
H  H18  1  0.47833670  0.91525527  0.57732831  1  0  0.095026  0  0.93993  0  0  0.100679  0  1.00564  0  0  0.10351  0  1.004372  0  0  0.104631  0.098473  0  1.006825  0
H  H19  1  0.52166405  0.08474508  0.42267049  1  0  0.095054  0  0.939895  0  0  0.100688  0  1.005637  0  0  0.103519  0  1.004369  0  0  0.104626  0.098497  0  1.006806  0
H  H20  1  0.71777373  0.03185537  0.54362599  1  0  0.098544  0  0.931405  0  0  0.104847  0  0.998905  0  0  0.107402  0  0.997459  0  0  0.108985  0.103044  0  0.999963  0
H  H21  1  0.28222508  0.96814733  0.45637572  1  0  0.098543  0  0.931378  0  0  0.10482  0  0.998904  0  0  0.107374  0  0.997458  0  0  0.108978  0.10302  0  0.999956  0
H  H22  1  0.99223304  0.05484079  0.69428124  1  0  0.069303  0  0.924479  0  0  0.084098  0  0.979148  0  0  0.085175  0  0.979138  0  0  0.104573  0.08324  0  0.979294  0
H  H23  1  0.00776750  0.94515838  0.30572006  1  0  0.069287  0  0.924516  0  0  0.084085  0  0.979183  0  0  0.085161  0  0.979174  0  0  0.104573  0.083226  0  0.979329  0
H  H24  1  0.98304876  0.08424349  0.95701690  1  0  0.093018  0  0.996671  0  0  0.102292  0  1.064055  0  0  0.105035  0  1.063103  0  0  0.101859  0.100345  0  1.065005  0
H  H25  1  0.01694833  0.91575688  0.04298267  1  0  0.093032  0  0.996658  0  0  0.102304  0  1.064046  0  0  0.105045  0  1.063093  0  0  0.101857  0.100357  0  1.064997  0
H  H26  1  0.71217319  0.95290053  0.99517168  1  0  0.098411  0  0.964904  0  0  0.109215  0  1.026818  0  0  0.111991  0  1.025799  0  0  0.103052  0.107363  0  1.027478  0
H  H27  1  0.28782488  0.04709866  0.00482744  1  0  0.098422  0  0.964891  0  0  0.109226  0  1.026794  0  0  0.112003  0  1.025773  0  0  0.103052  0.107358  0  1.027475  0
C  C28  1  0.84095277  0.81946255  0.59191852  1  0  -0.154554  0  3.564423  0  0  -0.163749  0  3.798129  0  0  -0.169475  0  3.810946  0  0  -0.080313  -0.159647  0  3.789851  0
C  C29  1  0.15904799  0.18053779  0.40808129  1  0  -0.154537  0  3.564466  0  0  -0.163753  0  3.798161  0  0  -0.169482  0  3.810977  0  0  -0.080314  -0.15965  0  3.789884  0
C  C30  1  0.67582591  0.73889816  0.61686470  1  0  -0.157586  0  3.557986  0  0  -0.164898  0  3.791231  0  0  -0.170486  0  3.804456  0  0  -0.078646  -0.161  0  3.782316  0
C  C31  1  0.32417264  0.26110338  0.38313447  1  0  -0.157616  0  3.558033  0  0  -0.16485  0  3.791177  0  0  -0.170435  0  3.804396  0  0  -0.078634  -0.160953  0  3.782264  0
C  C32  1  0.60475424  0.86339096  0.74681372  1  0  0.023981  0  3.605005  0  0  0.013013  0  3.841745  0  0  0.013976  0  3.856703  0  0  -0.074512  0.012134  0  3.831823  0
C  C33  1  0.39524555  0.13661057  0.25318653  1  0  0.023997  0  3.604946  0  0  0.013  0  3.841709  0  0  0.013961  0  3.856674  0  0  -0.074515  0.012121  0  3.831789  0
C  C34  1  0.56141259  0.98221333  0.68748750  1  0  -0.15377  0  3.533393  0  0  -0.162381  0  3.764937  0  0  -0.168212  0  3.777508  0  0  -0.076457  -0.158458  0  3.756763  0
C  C35  1  0.43858671  0.01778585  0.31251271  1  0  -0.153774  0  3.533327  0  0  -0.162376  0  3.764878  0  0  -0.168209  0  3.77745  0  0  -0.076437  -0.158455  0  3.756687  0
C  C36  1  0.72802518  0.06293823  0.66549140  1  0  -0.159617  0  3.568706  0  0  -0.166408  0  3.798683  0  0  -0.172401  0  3.812523  0  0  -0.077706  -0.162144  0  3.788934  0
C  C37  1  0.27197560  0.93706212  0.33450942  1  0  -0.15955  0  3.568711  0  0  -0.166331  0  3.798643  0  0  -0.172323  0  3.812484  0  0  -0.077689  -0.162069  0  3.788899  0
C  C38  1  0.87555253  0.99719538  0.70833869  1  0  0.018188  0  3.622022  0  0  0.007574  0  3.854389  0  0  0.008292  0  3.870315  0  0  -0.079669  0.007449  0  3.843386  0
C  C39  1  0.12444726  0.00280614  0.29166258  1  0  0.018231  0  3.62199  0  0  0.007611  0  3.854344  0  0  0.008329  0  3.870272  0  0  -0.079646  0.007485  0  3.843343  0
C  C40  1  0.99166695  0.74764919  0.60687144  1  0  0.688794  0  3.763761  0  0  0.642842  0  4.065635  0  0  0.675547  0  4.056383  0  0  0.227073  0.620233  0  4.071487  0
C  C41  1  0.00833236  0.25234999  0.39312877  1  0  0.688854  0  3.763817  0  0  0.642885  0  4.06572  0  0  0.675598  0  4.056455  0  0  0.22711  0.620276  0  4.071572  0
C  C42  1  0.69571400  0.59040536  0.63052817  1  0  0.69787  0  3.80465  0  0  0.641582  0  4.117512  0  0  0.674809  0  4.11008  0  0  0.224853  0.619251  0  4.121145  0
C  C43  1  0.30428727  0.40959733  0.36947371  1  0  0.697918  0  3.804672  0  0  0.641597  0  4.117552  0  0  0.674823  0  4.110124  0  0  0.224852  0.619266  0  4.121185  0
C  C44  1  0.46927523  0.09691068  0.79775064  1  0  0.686251  0  3.76261  0  0  0.640148  0  4.063786  0  0  0.672674  0  4.054819  0  0  0.233035  0.617885  0  4.069347  0
C  C45  1  0.53072577  0.90309084  0.20224869  1  0  0.686278  0  3.762545  0  0  0.640175  0  4.063724  0  0  0.672702  0  4.054756  0  0  0.233049  0.617912  0  4.069291  0
C  C46  1  0.75802058  0.24092251  0.74505528  1  0  0.697437  0  3.761822  0  0  0.643648  0  4.071804  0  0  0.676948  0  4.06273  0  0  0.235693  0.621208  0  4.07725  0
C  C47  1  0.24198140  0.75907783  0.25494360  1  0  0.697279  0  3.761897  0  0  0.643567  0  4.071775  0  0  0.676865  0  4.062704  0  0  0.235653  0.621126  0  4.077224  0
C  C48  1  0.87661595  0.01699214  0.86693596  1  0  -0.112092  0  3.681946  0  0  -0.133559  0  3.94101  0  0  -0.135333  0  3.959875  0  0  -0.104093  -0.132439  0  3.928609  0
C  C49  1  0.12338434  0.98300586  0.13306381  1  0  -0.112118  0  3.682108  0  0  -0.133574  0  3.941162  0  0  -0.135347  0  3.960027  0  0  -0.104096  -0.132452  0  3.92875  0
C  C50  1  0.73501823  0.94812509  0.88724670  1  0  -0.095055  0  3.663324  0  0  -0.118686  0  3.926936  0  0  -0.119584  0  3.944616  0  0  -0.100109  -0.117725  0  3.914946  0
C  C51  1  0.26498107  0.05187409  0.11275351  1  0  -0.095108  0  3.663505  0  0  -0.118742  0  3.927129  0  0  -0.11964  0  3.94481  0  0  -0.100137  -0.117768  0  3.915146  0
O  O52  1  0.06057188  0.69486917  0.48059748  1  0  -0.587329  0  2.092909  0  0  -0.539931  0  2.320855  0  0  -0.563063  0  2.306219  0  0  -0.367154  -0.523651  0  2.330449  0
O  O53  1  0.93942888  0.30513118  0.51940233  1  0  -0.587365  0  2.092967  0  0  -0.539963  0  2.320919  0  0  -0.563097  0  2.306291  0  0  -0.367167  -0.523682  0  2.330513  0
O  O54  1  0.04512572  0.74029304  0.72298701  1  0  -0.589451  0  1.943254  0  0  -0.54703  0  2.165004  0  0  -0.568233  0  2.158176  0  0  -0.381117  -0.532467  0  2.169811  0
O  O55  1  0.95487652  0.25970847  0.27701441  1  0  -0.589473  0  1.943286  0  0  -0.547048  0  2.165041  0  0  -0.568253  0  2.158211  0  0  -0.38114  -0.532486  0  2.169848  0
O  O56  1  0.73104924  0.48136636  0.51257788  1  0  -0.667665  0  1.999074  0  0  -0.618653  0  2.240922  0  0  -0.644007  0  2.231983  0  0  -0.369691  -0.600288  0  2.246057  0
O  O57  1  0.26895130  0.51863868  0.48742598  1  0  -0.667672  0  1.998956  0  0  -0.618668  0  2.240838  0  0  -0.644023  0  2.231897  0  0  -0.369703  -0.600302  0  2.245973  0
O  O58  1  0.67129863  0.57900296  0.75120658  1  0  -0.644009  0  2.014251  0  0  -0.581495  0  2.241846  0  0  -0.606906  0  2.230928  0  0  -0.31455  -0.563569  0  2.249122  0
O  O59  1  0.32870338  0.42099737  0.24879532  1  0  -0.644026  0  2.014366  0  0  -0.581509  0  2.24197  0  0  -0.606912  0  2.231035  0  0  -0.314524  -0.563583  0  2.249247  0
O  O60  1  0.53267215  0.19133086  0.93002289  1  0  -0.608186  0  1.977011  0  0  -0.56853  0  2.209084  0  0  -0.590273  0  2.202482  0  0  -0.395537  -0.55378  0  2.213845  0
O  O61  1  0.46732617  0.80866950  0.06997676  1  0  -0.608207  0  1.976966  0  0  -0.568555  0  2.209046  0  0  -0.590298  0  2.202446  0  0  -0.395553  -0.553806  0  2.213809  0
O  O62  1  0.31105791  0.08506128  0.74055455  1  0  -0.564295  0  2.047054  0  0  -0.515886  0  2.266333  0  0  -0.537939  0  2.251345  0  0  -0.336807  -0.500338  0  2.275696  0
O  O63  1  0.68894262  0.91493789  0.25944574  1  0  -0.564333  0  2.04703  0  0  -0.515936  0  2.266254  0  0  -0.537989  0  2.251277  0  0  -0.336825  -0.500387  0  2.275617  0
O  O64  1  0.88159740  0.32725862  0.84199456  1  0  -0.620636  0  1.98847  0  0  -0.577809  0  2.222882  0  0  -0.599258  0  2.213105  0  0  -0.337867  -0.562567  0  2.22958  0
O  O65  1  0.11840677  0.67274054  0.15800295  1  0  -0.62061  0  1.988477  0  0  -0.577796  0  2.222829  0  0  -0.599241  0  2.213054  0  0  -0.337872  -0.562553  0  2.229528  0
O  O66  1  0.63860088  0.29418840  0.69405600  1  0  -0.568977  0  2.110063  0  0  -0.513944  0  2.337081  0  0  -0.537518  0  2.322237  0  0  -0.325661  -0.497788  0  2.347339  0
O  O67  1  0.36139990  0.70581194  0.30594481  1  0  -0.568892  0  2.110067  0  0  -0.513919  0  2.337064  0  0  -0.537493  0  2.322218  0  0  -0.325649  -0.497762  0  2.347323  0
O  O68  1  0.80590405  0.69536824  0.05537775  1  0  -0.865025  0  1.90138  0  0  -0.816264  0  2.075385  0  0  -0.834913  0  2.044  0  0  -0.628742  -0.803249  0  2.097897  0
O  O69  1  0.19409330  0.30462743  0.94462080  1  0  -0.864985  0  1.901432  0  0  -0.816211  0  2.075459  0  0  -0.834863  0  2.044067  0  0  -0.628737  -0.803197  0  2.097969  0
