# generated using pymatgen
data_KH5C5N2O5
_symmetry_space_group_name_H-M   'P 1'
_cell_length_a   6.46703423
_cell_length_b   12.51958646
_cell_length_c   18.42625103
_cell_angle_alpha   90.00002649
_cell_angle_beta   90.00001893
_cell_angle_gamma   89.99993727
_symmetry_Int_Tables_number   1
_chemical_formula_structural   KH5C5N2O5
_chemical_formula_sum   'K8 H40 C40 N16 O40'
_cell_volume   1491.87393572
_cell_formula_units_Z   8
loop_
 _symmetry_equiv_pos_site_id
 _symmetry_equiv_pos_as_xyz
  1  'x, y, z'
loop_
 _atom_site_type_symbol
 _atom_site_label
 _atom_site_symmetry_multiplicity
 _atom_site_fract_x
 _atom_site_fract_y
 _atom_site_fract_z
 _atom_site_occupancy
 _atom_site_hle17_bader_spin_density
 _atom_site_hle17_ddec_charge
 _atom_site_hle17_ddec_spin_density
 _atom_site_hle17_ddec_sum_bond_order
 _atom_site_hle17_magmom
 _atom_site_hse06_10hf_bader_spin_density
 _atom_site_hse06_10hf_ddec_charge
 _atom_site_hse06_10hf_ddec_spin_density
 _atom_site_hse06_10hf_ddec_sum_bond_order
 _atom_site_hse06_10hf_magmom
 _atom_site_hse06_bader_spin_density
 _atom_site_hse06_ddec_charge
 _atom_site_hse06_ddec_spin_density
 _atom_site_hse06_ddec_sum_bond_order
 _atom_site_hse06_magmom
 _atom_site_pbe_bader_spin_density
 _atom_site_pbe_cm5_charge
 _atom_site_pbe_ddec_charge
 _atom_site_pbe_ddec_spin_density
 _atom_site_pbe_ddec_sum_bond_order
 _atom_site_pbe_magmom
K  K0  1  0.85794285  0.85739568  0.55191278  1  0  0.925433  0  0.452247  0  0  0.881629  0  0.632818  0  0  0.895525  0  0.609619  0  0  0.747195  0.870932  0  0.649778  0
K  K1  1  0.64205612  0.35739437  0.44808690  1  0  0.925427  0  0.45224  0  0  0.881636  0  0.632797  0  0  0.895528  0  0.609603  0  0  0.747202  0.870936  0  0.649761  0
K  K2  1  0.35794026  0.14260557  0.94808764  1  0  0.925441  0  0.452247  0  0  0.881645  0  0.632805  0  0  0.895538  0  0.609613  0  0  0.74721  0.870947  0  0.649769  0
K  K3  1  0.14205518  0.64260507  0.05191300  1  0  0.925442  0  0.452227  0  0  0.881648  0  0.632782  0  0  0.895541  0  0.609588  0  0  0.7472  0.870951  0  0.649744  0
K  K4  1  0.14205745  0.14260386  0.44808738  1  0  0.92543  0  0.452244  0  0  0.881629  0  0.632816  0  0  0.895529  0  0.609609  0  0  0.747214  0.870932  0  0.649776  0
K  K5  1  0.35794109  0.64260438  0.55191272  1  0  0.925439  0  0.452243  0  0  0.881632  0  0.632817  0  0  0.89553  0  0.609617  0  0  0.747204  0.870934  0  0.64978  0
K  K6  1  0.64205849  0.85739477  0.05191306  1  0  0.925442  0  0.452223  0  0  0.881639  0  0.632797  0  0  0.89554  0  0.60959  0  0  0.747197  0.87094  0  0.649761  0
K  K7  1  0.85794666  0.35739607  0.94808770  1  0  0.92544  0  0.45223  0  0  0.881635  0  0.632802  0  0  0.895527  0  0.60961  0  0  0.747202  0.87094  0  0.649762  0
H  H8  1  0.57113614  0.62083758  0.41322201  1  0  0.152605  0  0.95583  0  0  0.16051  0  1.017295  0  0  0.16522  0  1.015387  0  0  0.125747  0.157236  0  1.018707  0
H  H9  1  0.92885560  0.12083939  0.58677868  1  0  0.152603  0  0.955841  0  0  0.160513  0  1.017291  0  0  0.165223  0  1.015383  0  0  0.125729  0.15724  0  1.018702  0
H  H10  1  0.07114044  0.37916110  0.08677897  1  0  0.15261  0  0.955818  0  0  0.160519  0  1.017281  0  0  0.165228  0  1.015374  0  0  0.125745  0.157246  0  1.018693  0
H  H11  1  0.42885914  0.87916102  0.91322120  1  0  0.152594  0  0.955822  0  0  0.160506  0  1.0173  0  0  0.165215  0  1.015392  0  0  0.125742  0.157233  0  1.018712  0
H  H12  1  0.42885643  0.37916117  0.58677870  1  0  0.152601  0  0.955816  0  0  0.160512  0  1.017275  0  0  0.165221  0  1.015369  0  0  0.125736  0.157239  0  1.018686  0
H  H13  1  0.07113851  0.87916015  0.41322147  1  0  0.152594  0  0.955811  0  0  0.16049  0  1.017311  0  0  0.165199  0  1.015404  0  0  0.125735  0.157217  0  1.018722  0
H  H14  1  0.92885832  0.62083845  0.91322118  1  0  0.15261  0  0.955834  0  0  0.160533  0  1.017267  0  0  0.165242  0  1.01536  0  0  0.125746  0.15726  0  1.018679  0
H  H15  1  0.57114116  0.12083773  0.08677842  1  0  0.152604  0  0.955835  0  0  0.160524  0  1.017256  0  0  0.165233  0  1.015349  0  0  0.125736  0.157251  0  1.018668  0
H  H16  1  0.51441585  0.85027323  0.24584182  1  0  0.327738  0  0.900778  0  0  0.299009  0  0.978381  0  0  0.309712  0  0.968899  0  0  0.311901  0.29139  0  0.985183  0
H  H17  1  0.98558469  0.35027513  0.75415895  1  0  0.327673  0  0.900827  0  0  0.298955  0  0.978414  0  0  0.309658  0  0.968932  0  0  0.311895  0.291336  0  0.985214  0
H  H18  1  0.01441615  0.14972707  0.25416024  1  0  0.32774  0  0.900773  0  0  0.299019  0  0.978365  0  0  0.309722  0  0.968883  0  0  0.311902  0.2914  0  0.985167  0
H  H19  1  0.48558546  0.64972525  0.74584040  1  0  0.327687  0  0.900806  0  0  0.298968  0  0.978399  0  0  0.30967  0  0.968917  0  0  0.311886  0.29135  0  0.985196  0
H  H20  1  0.48558600  0.14972551  0.75415889  1  0  0.327685  0  0.900802  0  0  0.298963  0  0.978401  0  0  0.309666  0  0.968919  0  0  0.311886  0.291344  0  0.985202  0
H  H21  1  0.01441716  0.64972521  0.24584067  1  0  0.327686  0  0.90081  0  0  0.298962  0  0.978409  0  0  0.309665  0  0.968929  0  0  0.311879  0.291344  0  0.985207  0
H  H22  1  0.98558570  0.85027487  0.74584100  1  0  0.327721  0  0.900815  0  0  0.299001  0  0.978403  0  0  0.309704  0  0.96892  0  0  0.311904  0.291382  0  0.985201  0
H  H23  1  0.51441638  0.35027349  0.25415868  1  0  0.327733  0  0.900779  0  0  0.299006  0  0.978377  0  0  0.309709  0  0.968896  0  0  0.311899  0.291386  0  0.985179  0
H  H24  1  0.51572279  0.53181301  0.19297914  1  0  0.346774  0  0.904598  0  0  0.321586  0  0.973962  0  0  0.331747  0  0.964556  0  0  0.321446  0.314464  0  0.98058  0
H  H25  1  0.98427842  0.03181415  0.80702152  1  0  0.346854  0  0.904475  0  0  0.321652  0  0.973862  0  0  0.331814  0  0.964453  0  0  0.32145  0.31453  0  0.980481  0
H  H26  1  0.01572401  0.46818809  0.30702183  1  0  0.346853  0  0.904479  0  0  0.321653  0  0.97389  0  0  0.331814  0  0.964481  0  0  0.321446  0.314531  0  0.980509  0
H  H27  1  0.48427693  0.96818703  0.69297837  1  0  0.346952  0  0.904333  0  0  0.321735  0  0.973768  0  0  0.331897  0  0.964357  0  0  0.321469  0.314613  0  0.980388  0
H  H28  1  0.48427906  0.46818653  0.80702102  1  0  0.346902  0  0.904409  0  0  0.321694  0  0.973822  0  0  0.331856  0  0.964413  0  0  0.32147  0.314573  0  0.980442  0
H  H29  1  0.01572342  0.96818699  0.19297918  1  0  0.346779  0  0.904571  0  0  0.321596  0  0.973943  0  0  0.331757  0  0.964536  0  0  0.321443  0.314475  0  0.980561  0
H  H30  1  0.98427784  0.53181385  0.69297833  1  0  0.346962  0  0.904302  0  0  0.321747  0  0.973739  0  0  0.331909  0  0.964329  0  0  0.321477  0.314626  0  0.980359  0
H  H31  1  0.51572338  0.03181331  0.30702125  1  0  0.346787  0  0.904581  0  0  0.321598  0  0.973948  0  0  0.331759  0  0.964541  0  0  0.321452  0.314476  0  0.980565  0
H  H32  1  0.31712913  0.98594162  0.56383869  1  0  0.410635  0  0.895275  0  0  0.380727  0  0.95866  0  0  0.391743  0  0.94224  0  0  0.287384  0.372905  0  0.970316  0
H  H33  1  0.18287022  0.48594107  0.43616152  1  0  0.410671  0  0.895229  0  0  0.380775  0  0.958588  0  0  0.391791  0  0.942169  0  0  0.287404  0.372954  0  0.970243  0
H  H34  1  0.81713079  0.01405886  0.93616118  1  0  0.410626  0  0.895291  0  0  0.380735  0  0.95865  0  0  0.391751  0  0.94223  0  0  0.287375  0.372913  0  0.970307  0
H  H35  1  0.68286892  0.51405834  0.06383839  1  0  0.410664  0  0.895234  0  0  0.38077  0  0.958593  0  0  0.391785  0  0.942174  0  0  0.287404  0.372949  0  0.970248  0
H  H36  1  0.68286963  0.01405873  0.43616147  1  0  0.410657  0  0.895245  0  0  0.380761  0  0.958605  0  0  0.391777  0  0.942185  0  0  0.287396  0.37294  0  0.970261  0
H  H37  1  0.81712853  0.51405848  0.56383864  1  0  0.410642  0  0.895264  0  0  0.380734  0  0.958647  0  0  0.39175  0  0.942227  0  0  0.287387  0.372912  0  0.970304  0
H  H38  1  0.18286951  0.98594148  0.06383844  1  0  0.410669  0  0.895234  0  0  0.380772  0  0.958597  0  0  0.391788  0  0.942178  0  0  0.28739  0.372951  0  0.970253  0
H  H39  1  0.31712984  0.48594200  0.93616123  1  0  0.41067  0  0.895225  0  0  0.380771  0  0.958593  0  0  0.391787  0  0.942173  0  0  0.287394  0.37295  0  0.970249  0
H  H40  1  0.35433944  0.90369206  0.50132352  1  0  0.409972  0  0.900107  0  0  0.381215  0  0.962644  0  0  0.392175  0  0.946228  0  0  0.289274  0.37346  0  0.974252  0
H  H41  1  0.14565854  0.40369158  0.49867612  1  0  0.409877  0  0.900207  0  0  0.381112  0  0.962762  0  0  0.392071  0  0.946346  0  0  0.289233  0.373355  0  0.974372  0
H  H42  1  0.85433944  0.09630839  0.99867635  1  0  0.409951  0  0.900118  0  0  0.381192  0  0.962658  0  0  0.392152  0  0.946243  0  0  0.289264  0.373437  0  0.974268  0
H  H43  1  0.64565854  0.59630865  0.00132324  1  0  0.409948  0  0.900132  0  0  0.381197  0  0.962666  0  0  0.392155  0  0.946252  0  0  0.289258  0.373439  0  0.974278  0
H  H44  1  0.64565776  0.09630828  0.49867610  1  0  0.409884  0  0.900212  0  0  0.381119  0  0.962767  0  0  0.392079  0  0.946351  0  0  0.289243  0.373363  0  0.974376  0
H  H45  1  0.85433867  0.59630876  0.50132350  1  0  0.409976  0  0.900097  0  0  0.381222  0  0.962636  0  0  0.392181  0  0.94622  0  0  0.289269  0.373465  0  0.974247  0
H  H46  1  0.14565932  0.90369115  0.00132326  1  0  0.409981  0  0.900087  0  0  0.38123  0  0.962619  0  0  0.392189  0  0.946204  0  0  0.289272  0.373472  0  0.974232  0
H  H47  1  0.35434021  0.40369169  0.99867637  1  0  0.409973  0  0.900104  0  0  0.381217  0  0.962639  0  0  0.392176  0  0.946224  0  0  0.289276  0.373462  0  0.974247  0
C  C48  1  0.53837127  0.83557550  0.39061624  1  0  0.615724  0  3.962018  0  0  0.567973  0  4.261699  0  0  0.598333  0  4.256385  0  0  0.216473  0.547429  0  4.2647  0
C  C49  1  0.96162775  0.33557732  0.60938397  1  0  0.615809  0  3.961895  0  0  0.568079  0  4.261564  0  0  0.598443  0  4.256249  0  0  0.216537  0.547535  0  4.264565  0
C  C50  1  0.03837141  0.16442399  0.10938527  1  0  0.615749  0  3.961952  0  0  0.568068  0  4.261619  0  0  0.598423  0  4.256305  0  0  0.216494  0.547523  0  4.264623  0
C  C51  1  0.46162708  0.66442388  0.89061537  1  0  0.615818  0  3.961891  0  0  0.568086  0  4.261557  0  0  0.598441  0  4.25624  0  0  0.216502  0.54754  0  4.264562  0
C  C52  1  0.46162594  0.16442324  0.60938391  1  0  0.615779  0  3.961943  0  0  0.568012  0  4.26165  0  0  0.598372  0  4.256335  0  0  0.216509  0.547467  0  4.264651  0
C  C53  1  0.03837101  0.66442303  0.39061565  1  0  0.615769  0  3.961919  0  0  0.568074  0  4.261552  0  0  0.598439  0  4.25622  0  0  0.216513  0.547529  0  4.264555  0
C  C54  1  0.96162735  0.83557636  0.89061543  1  0  0.61581  0  3.961923  0  0  0.568115  0  4.261607  0  0  0.598469  0  4.256288  0  0  0.216516  0.547569  0  4.264612  0
C  C55  1  0.53837167  0.33557567  0.10938424  1  0  0.615727  0  3.961993  0  0  0.567994  0  4.261659  0  0  0.598352  0  4.256345  0  0  0.216481  0.54745  0  4.264662  0
C  C56  1  0.54371246  0.55736740  0.30329024  1  0  0.631153  0  3.825679  0  0  0.585518  0  4.115379  0  0  0.617801  0  4.111263  0  0  0.236803  0.563926  0  4.117416  0
C  C57  1  0.95628251  0.05736768  0.69670988  1  0  0.631137  0  3.825676  0  0  0.585526  0  4.11533  0  0  0.617808  0  4.111214  0  0  0.236774  0.563933  0  4.117368  0
C  C58  1  0.04371518  0.44263209  0.19671019  1  0  0.631072  0  3.825645  0  0  0.585481  0  4.115305  0  0  0.617762  0  4.111195  0  0  0.23678  0.563888  0  4.117345  0
C  C59  1  0.45628581  0.94263272  0.80329000  1  0  0.631084  0  3.825772  0  0  0.585507  0  4.115412  0  0  0.617791  0  4.111295  0  0  0.236778  0.563914  0  4.117452  0
C  C60  1  0.45628629  0.44263214  0.69670883  1  0  0.631094  0  3.825684  0  0  0.585478  0  4.115374  0  0  0.617762  0  4.111258  0  0  0.236771  0.563886  0  4.117411  0
C  C61  1  0.04371315  0.94263187  0.30329028  1  0  0.631175  0  3.825562  0  0  0.585574  0  4.115244  0  0  0.617855  0  4.11113  0  0  0.236821  0.563981  0  4.117281  0
C  C62  1  0.95628512  0.55736746  0.80328943  1  0  0.631105  0  3.825645  0  0  0.585529  0  4.115279  0  0  0.617808  0  4.111169  0  0  0.236794  0.563937  0  4.117318  0
C  C63  1  0.54371449  0.05736762  0.19671016  1  0  0.631139  0  3.825644  0  0  0.585504  0  4.115341  0  0  0.617787  0  4.111227  0  0  0.236777  0.563912  0  4.11738  0
C  C64  1  0.55066149  0.64118808  0.35648719  1  0  -0.323109  0  3.65935  0  0  -0.35542  0  3.928456  0  0  -0.369817  0  3.943477  0  0  -0.102128  -0.345946  0  3.91848  0
C  C65  1  0.94933022  0.14118832  0.64351351  1  0  -0.323152  0  3.659207  0  0  -0.355458  0  3.928333  0  0  -0.369853  0  3.943356  0  0  -0.102084  -0.345984  0  3.918358  0
C  C66  1  0.05066588  0.35881061  0.14351433  1  0  -0.323177  0  3.658975  0  0  -0.355449  0  3.928177  0  0  -0.369855  0  3.943194  0  0  -0.102105  -0.345976  0  3.918204  0
C  C67  1  0.44933529  0.85881288  0.85648583  1  0  -0.323056  0  3.659162  0  0  -0.355425  0  3.928335  0  0  -0.369828  0  3.943348  0  0  -0.102089  -0.345952  0  3.918361  0
C  C68  1  0.44933418  0.35881147  0.64351405  1  0  -0.323077  0  3.6593  0  0  -0.355409  0  3.928434  0  0  -0.369805  0  3.943456  0  0  -0.102074  -0.345935  0  3.918459  0
C  C69  1  0.05066235  0.85881122  0.35648611  1  0  -0.323156  0  3.659166  0  0  -0.355456  0  3.928303  0  0  -0.369858  0  3.943317  0  0  -0.102115  -0.345983  0  3.918328  0
C  C70  1  0.94933133  0.64118894  0.85648583  1  0  -0.323172  0  3.658975  0  0  -0.355458  0  3.928166  0  0  -0.36986  0  3.94318  0  0  -0.102106  -0.345985  0  3.918193  0
C  C71  1  0.55066656  0.14118826  0.14351324  1  0  -0.323079  0  3.659227  0  0  -0.355366  0  3.92833  0  0  -0.369768  0  3.943348  0  0  -0.102061  -0.345892  0  3.918357  0
C  C72  1  0.53377882  0.74519311  0.33527670  1  0  0.174708  0  3.741015  0  0  0.160015  0  4.002842  0  0  0.169816  0  4.019674  0  0  0.115603  0.153356  0  3.991727  0
C  C73  1  0.96622039  0.24519495  0.66472348  1  0  0.174769  0  3.740784  0  0  0.160021  0  4.002694  0  0  0.169817  0  4.019528  0  0  0.115617  0.153361  0  3.991579  0
C  C74  1  0.03378036  0.25480239  0.16472536  1  0  0.174931  0  3.740664  0  0  0.160038  0  4.00277  0  0  0.169862  0  4.019566  0  0  0.115637  0.15338  0  3.991658  0
C  C75  1  0.46621948  0.75480544  0.83527640  1  0  0.174705  0  3.740823  0  0  0.159991  0  4.002726  0  0  0.169814  0  4.019519  0  0  0.115621  0.153332  0  3.991613  0
C  C76  1  0.46621994  0.25480564  0.66472291  1  0  0.174701  0  3.740929  0  0  0.160019  0  4.002776  0  0  0.16982  0  4.019603  0  0  0.115619  0.15336  0  3.991661  0
C  C77  1  0.03377836  0.75480539  0.33527613  1  0  0.174825  0  3.740726  0  0  0.160033  0  4.002699  0  0  0.169853  0  4.019491  0  0  0.115618  0.153374  0  3.991586  0
C  C78  1  0.96621994  0.74519795  0.83527589  1  0  0.174867  0  3.740624  0  0  0.15999  0  4.00273  0  0  0.169813  0  4.019524  0  0  0.115617  0.153331  0  3.991619  0
C  C79  1  0.53378082  0.24519331  0.16472376  1  0  0.174701  0  3.741009  0  0  0.15997  0  4.00288  0  0  0.169786  0  4.019687  0  0  0.115585  0.15331  0  3.991766  0
C  C80  1  0.49375892  0.69479924  0.20941604  1  0  0.756559  0  3.821776  0  0  0.690634  0  4.119528  0  0  0.725779  0  4.114326  0  0  0.346336  0.666986  0  4.122391  0
C  C81  1  0.00624569  0.19480063  0.79058244  1  0  0.756576  0  3.821659  0  0  0.690503  0  4.119612  0  0  0.725648  0  4.114413  0  0  0.346343  0.666855  0  4.122473  0
C  C82  1  0.99375982  0.30520000  0.29058553  1  0  0.756626  0  3.821865  0  0  0.690846  0  4.119406  0  0  0.725989  0  4.114205  0  0  0.346441  0.667197  0  4.12227  0
C  C83  1  0.50624545  0.80520002  0.70941739  1  0  0.756495  0  3.821824  0  0  0.690588  0  4.119572  0  0  0.725734  0  4.114374  0  0  0.346342  0.66694  0  4.122434  0
C  C84  1  0.50624602  0.30520030  0.79058195  1  0  0.756399  0  3.821824  0  0  0.69042  0  4.119671  0  0  0.725565  0  4.114474  0  0  0.346311  0.666773  0  4.122531  0
C  C85  1  0.99376080  0.80520051  0.20941609  1  0  0.75653  0  3.821892  0  0  0.690714  0  4.119513  0  0  0.725856  0  4.114314  0  0  0.346369  0.667066  0  4.122375  0
C  C86  1  0.00624512  0.69480035  0.70941734  1  0  0.756417  0  3.82176  0  0  0.690514  0  4.119501  0  0  0.725658  0  4.114303  0  0  0.3463  0.666866  0  4.122364  0
C  C87  1  0.49375795  0.19479953  0.29058386  1  0  0.756637  0  3.821695  0  0  0.690655  0  4.119526  0  0  0.725799  0  4.114326  0  0  0.346329  0.667007  0  4.122388  0
N  N88  1  0.51103108  0.77120593  0.26347371  1  0  -0.454128  0  3.32838  0  0  -0.39396  0  3.568867  0  0  -0.418662  0  3.577222  0  0  -0.380182  -0.377275  0  3.563165  0
N  N89  1  0.98897117  0.27120781  0.73652648  1  0  -0.454  0  3.328384  0  0  -0.393774  0  3.568925  0  0  -0.418475  0  3.577288  0  0  -0.380179  -0.377088  0  3.563221  0
N  N90  1  0.01103429  0.22879358  0.23652780  1  0  -0.454316  0  3.328597  0  0  -0.394129  0  3.56912  0  0  -0.418837  0  3.577469  0  0  -0.380309  -0.377444  0  3.563419  0
N  N91  1  0.48897179  0.72879257  0.76347286  1  0  -0.454059  0  3.328469  0  0  -0.393886  0  3.568954  0  0  -0.418592  0  3.577304  0  0  -0.380229  -0.377201  0  3.563252  0
N  N92  1  0.48897231  0.22879281  0.73652645  1  0  -0.453979  0  3.328334  0  0  -0.393799  0  3.568836  0  0  -0.418499  0  3.577194  0  0  -0.380181  -0.377115  0  3.563133  0
N  N93  1  0.01103223  0.72879253  0.26347313  1  0  -0.454146  0  3.32845  0  0  -0.393974  0  3.568925  0  0  -0.418683  0  3.577279  0  0  -0.380216  -0.377288  0  3.563221  0
N  N94  1  0.98897219  0.77120756  0.76347290  1  0  -0.454158  0  3.328481  0  0  -0.393925  0  3.568999  0  0  -0.418632  0  3.57735  0  0  -0.380228  -0.37724  0  3.563298  0
N  N95  1  0.51103315  0.27120618  0.23652621  1  0  -0.454137  0  3.328411  0  0  -0.393935  0  3.568912  0  0  -0.418644  0  3.577268  0  0  -0.380173  -0.377249  0  3.563209  0
N  N96  1  0.51705102  0.59095955  0.23244404  1  0  -0.524372  0  3.231603  0  0  -0.458959  0  3.466011  0  0  -0.484131  0  3.466468  0  0  -0.381472  -0.442142  0  3.465487  0
N  N97  1  0.98295316  0.09096066  0.76755610  1  0  -0.524464  0  3.23147  0  0  -0.45899  0  3.465888  0  0  -0.484162  0  3.466348  0  0  -0.381477  -0.442174  0  3.465365  0
N  N98  1  0.01705078  0.40903996  0.26755693  1  0  -0.524363  0  3.231459  0  0  -0.459043  0  3.46586  0  0  -0.484215  0  3.466322  0  0  -0.381476  -0.442225  0  3.465336  0
N  N99  1  0.48295028  0.90904052  0.73244379  1  0  -0.524484  0  3.231512  0  0  -0.459085  0  3.465901  0  0  -0.48426  0  3.466361  0  0  -0.381472  -0.442268  0  3.465379  0
N  N100  1  0.48295237  0.40903999  0.76755612  1  0  -0.524407  0  3.23151  0  0  -0.458987  0  3.465943  0  0  -0.484158  0  3.466402  0  0  -0.381466  -0.44217  0  3.465419  0
N  N101  1  0.01705023  0.90904048  0.23244461  1  0  -0.524331  0  3.231576  0  0  -0.459  0  3.465993  0  0  -0.484174  0  3.466458  0  0  -0.381444  -0.442183  0  3.465468  0
N  N102  1  0.98295261  0.59096039  0.73244377  1  0  -0.524447  0  3.231423  0  0  -0.459071  0  3.46583  0  0  -0.484241  0  3.466289  0  0  -0.381473  -0.442254  0  3.465308  0
N  N103  1  0.51705002  0.09095982  0.26755583  1  0  -0.524433  0  3.231595  0  0  -0.458999  0  3.466009  0  0  -0.484171  0  3.466468  0  0  -0.381481  -0.442182  0  3.465488  0
O  O104  1  0.51980641  0.80888935  0.45650105  1  0  -0.67713  0  1.994702  0  0  -0.626939  0  2.224303  0  0  -0.650615  0  2.216753  0  0  -0.38512  -0.610248  0  2.2291  0
O  O105  1  0.98018958  0.30888951  0.54349862  1  0  -0.677121  0  1.99467  0  0  -0.626935  0  2.224274  0  0  -0.650611  0  2.216724  0  0  -0.385129  -0.610243  0  2.229071  0
O  O106  1  0.01980797  0.19111095  0.04349993  1  0  -0.677096  0  1.99459  0  0  -0.626912  0  2.224174  0  0  -0.650587  0  2.216628  0  0  -0.385072  -0.610219  0  2.228972  0
O  O107  1  0.48019046  0.69111088  0.95650018  1  0  -0.677132  0  1.994649  0  0  -0.626949  0  2.224254  0  0  -0.650625  0  2.216706  0  0  -0.38509  -0.610256  0  2.229053  0
O  O108  1  0.48018616  0.19111100  0.54349911  1  0  -0.677125  0  1.994661  0  0  -0.62693  0  2.22428  0  0  -0.650606  0  2.216729  0  0  -0.385134  -0.610239  0  2.229078  0
O  O109  1  0.01980763  0.69111004  0.45650100  1  0  -0.67712  0  1.994675  0  0  -0.626932  0  2.224246  0  0  -0.650612  0  2.216694  0  0  -0.385113  -0.610239  0  2.229043  0
O  O110  1  0.98019078  0.80888939  0.95650023  1  0  -0.677139  0  1.994653  0  0  -0.626958  0  2.22425  0  0  -0.650633  0  2.216702  0  0  -0.385091  -0.610264  0  2.229049  0
O  O111  1  0.51980829  0.30888946  0.04349889  1  0  -0.677112  0  1.99469  0  0  -0.626933  0  2.224298  0  0  -0.65061  0  2.21675  0  0  -0.385119  -0.610242  0  2.229096  0
O  O112  1  0.45898559  0.71744055  0.14512299  1  0  -0.649932  0  1.910435  0  0  -0.613929  0  2.146691  0  0  -0.633998  0  2.13577  0  0  -0.406674  -0.599865  0  2.15383  0
O  O113  1  0.04102671  0.21744356  0.85487713  1  0  -0.649988  0  1.910311  0  0  -0.613933  0  2.146636  0  0  -0.634  0  2.135716  0  0  -0.406699  -0.599869  0  2.153774  0
O  O114  1  0.95898814  0.28256030  0.35487804  1  0  -0.649943  0  1.910444  0  0  -0.613998  0  2.146664  0  0  -0.634065  0  2.135743  0  0  -0.406693  -0.599932  0  2.153804  0
O  O115  1  0.54102336  0.78255787  0.64512216  1  0  -0.649918  0  1.910296  0  0  -0.613911  0  2.146541  0  0  -0.633979  0  2.135619  0  0  -0.406658  -0.599846  0  2.153679  0
O  O116  1  0.54102554  0.28255740  0.85487663  1  0  -0.649903  0  1.910394  0  0  -0.613855  0  2.146634  0  0  -0.633923  0  2.135715  0  0  -0.406664  -0.599791  0  2.153771  0
O  O117  1  0.95898596  0.78255917  0.14512302  1  0  -0.649918  0  1.910464  0  0  -0.613942  0  2.146657  0  0  -0.634009  0  2.135737  0  0  -0.406684  -0.599878  0  2.153796  0
O  O118  1  0.04102298  0.71744324  0.64512266  1  0  -0.649892  0  1.910312  0  0  -0.613886  0  2.146554  0  0  -0.633955  0  2.135636  0  0  -0.406663  -0.59982  0  2.153694  0
O  O119  1  0.45898158  0.21744008  0.35487691  1  0  -0.649943  0  1.910375  0  0  -0.613917  0  2.146656  0  0  -0.633984  0  2.135734  0  0  -0.40666  -0.599852  0  2.153795  0
O  O120  1  0.56214558  0.92964489  0.36645671  1  0  -0.624366  0  2.009702  0  0  -0.566976  0  2.229929  0  0  -0.59054  0  2.220953  0  0  -0.304193  -0.55051  0  2.235697  0
O  O121  1  0.93785169  0.42964673  0.63354299  1  0  -0.624502  0  2.009671  0  0  -0.567093  0  2.229897  0  0  -0.590657  0  2.220918  0  0  -0.304237  -0.550626  0  2.235665  0
O  O122  1  0.06214594  0.07035459  0.13354427  1  0  -0.62443  0  2.009718  0  0  -0.567044  0  2.229927  0  0  -0.590602  0  2.220941  0  0  -0.304236  -0.550578  0  2.235698  0
O  O123  1  0.43785275  0.57035368  0.86645634  1  0  -0.624469  0  2.009658  0  0  -0.56707  0  2.229881  0  0  -0.590636  0  2.220911  0  0  -0.304235  -0.550601  0  2.235649  0
O  O124  1  0.43785163  0.07035306  0.63354291  1  0  -0.624469  0  2.009681  0  0  -0.567052  0  2.229919  0  0  -0.590619  0  2.22095  0  0  -0.304235  -0.550585  0  2.235687  0
O  O125  1  0.06214552  0.57035361  0.36645662  1  0  -0.624481  0  2.009707  0  0  -0.567083  0  2.229903  0  0  -0.590651  0  2.220925  0  0  -0.304229  -0.550616  0  2.23567  0
O  O126  1  0.93785281  0.92964655  0.86645643  1  0  -0.624456  0  2.009674  0  0  -0.567049  0  2.229858  0  0  -0.590621  0  2.220903  0  0  -0.304242  -0.550583  0  2.235628  0
O  O127  1  0.56214755  0.42964507  0.13354327  1  0  -0.624382  0  2.009667  0  0  -0.567003  0  2.229908  0  0  -0.590558  0  2.220911  0  0  -0.304207  -0.550536  0  2.235676  0
O  O128  1  0.55876275  0.45963814  0.31697126  1  0  -0.591  0  1.939611  0  0  -0.5479  0  2.170345  0  0  -0.568461  0  2.161027  0  0  -0.34437  -0.53348  0  2.176302  0
O  O129  1  0.94123601  0.95963790  0.68302954  1  0  -0.590994  0  1.939648  0  0  -0.547909  0  2.170371  0  0  -0.568469  0  2.161052  0  0  -0.344361  -0.533491  0  2.176327  0
O  O130  1  0.05876060  0.54036214  0.18302972  1  0  -0.590996  0  1.939638  0  0  -0.547886  0  2.170335  0  0  -0.568447  0  2.161019  0  0  -0.344389  -0.533466  0  2.176292  0
O  O131  1  0.44123660  0.04036251  0.81697034  1  0  -0.590988  0  1.939669  0  0  -0.547894  0  2.170362  0  0  -0.568454  0  2.161043  0  0  -0.344371  -0.533474  0  2.17632  0
O  O132  1  0.44123601  0.54036221  0.68302890  1  0  -0.590991  0  1.939621  0  0  -0.547888  0  2.170336  0  0  -0.56845  0  2.161018  0  0  -0.344376  -0.533469  0  2.176293  0
O  O133  1  0.05875965  0.04036245  0.31697170  1  0  -0.591037  0  1.939538  0  0  -0.547921  0  2.170243  0  0  -0.568482  0  2.160925  0  0  -0.344405  -0.533503  0  2.176201  0
O  O134  1  0.94123815  0.45963740  0.81696989  1  0  -0.590976  0  1.939641  0  0  -0.547881  0  2.170327  0  0  -0.56844  0  2.16101  0  0  -0.344364  -0.533462  0  2.176284  0
O  O135  1  0.55876215  0.95963783  0.18302982  1  0  -0.591016  0  1.939623  0  0  -0.547909  0  2.170342  0  0  -0.568471  0  2.161025  0  0  -0.344376  -0.533489  0  2.1763  0
O  O136  1  0.24631926  0.94967046  0.52309517  1  0  -0.907269  0  1.774277  0  0  -0.864751  0  1.937728  0  0  -0.881647  0  1.905137  0  0  -0.694045  -0.852639  0  1.960651  0
O  O137  1  0.25368017  0.44967070  0.47690447  1  0  -0.907201  0  1.774325  0  0  -0.864682  0  1.93777  0  0  -0.881579  0  1.905179  0  0  -0.694012  -0.852569  0  1.960693  0
O  O138  1  0.74631933  0.05032926  0.97690468  1  0  -0.907241  0  1.774315  0  0  -0.864739  0  1.937744  0  0  -0.881635  0  1.905154  0  0  -0.694019  -0.852626  0  1.960669  0
O  O139  1  0.75367875  0.55032948  0.02309544  1  0  -0.907274  0  1.774275  0  0  -0.864773  0  1.937701  0  0  -0.881669  0  1.905111  0  0  -0.694044  -0.85266  0  1.960627  0
O  O140  1  0.75367950  0.05032909  0.47690444  1  0  -0.907196  0  1.774332  0  0  -0.864678  0  1.937775  0  0  -0.881574  0  1.905182  0  0  -0.694011  -0.852565  0  1.960698  0
O  O141  1  0.74631858  0.55032965  0.52309514  1  0  -0.90727  0  1.774242  0  0  -0.864762  0  1.937673  0  0  -0.881657  0  1.905082  0  0  -0.694036  -0.852648  0  1.960598  0
O  O142  1  0.25367943  0.94967188  0.02309439  1  0  -0.907307  0  1.774234  0  0  -0.864803  0  1.937666  0  0  -0.8817  0  1.905076  0  0  -0.69404  -0.852689  0  1.960594  0
O  O143  1  0.24632000  0.44967087  0.97690472  1  0  -0.907309  0  1.774248  0  0  -0.864798  0  1.937699  0  0  -0.881693  0  1.905108  0  0  -0.694057  -0.852686  0  1.960623  0
