# generated using pymatgen
data_ZnH13C13N2O5
_symmetry_space_group_name_H-M   'P 1'
_cell_length_a   9.53085182
_cell_length_b   9.83718525
_cell_length_c   13.97840000
_cell_angle_alpha   90.00000000
_cell_angle_beta   95.38967206
_cell_angle_gamma   90.00000000
_symmetry_Int_Tables_number   1
_chemical_formula_structural   ZnH13C13N2O5
_chemical_formula_sum   'Zn4 H52 C52 N8 O20'
_cell_volume   1304.77528062
_cell_formula_units_Z   4
loop_
 _symmetry_equiv_pos_site_id
 _symmetry_equiv_pos_as_xyz
  1  'x, y, z'
loop_
 _atom_site_type_symbol
 _atom_site_label
 _atom_site_symmetry_multiplicity
 _atom_site_fract_x
 _atom_site_fract_y
 _atom_site_fract_z
 _atom_site_occupancy
 _atom_site_hle17_bader_spin_density
 _atom_site_hle17_ddec_charge
 _atom_site_hle17_ddec_spin_density
 _atom_site_hle17_ddec_sum_bond_order
 _atom_site_hle17_magmom
 _atom_site_hse06_10hf_bader_spin_density
 _atom_site_hse06_10hf_ddec_charge
 _atom_site_hse06_10hf_ddec_spin_density
 _atom_site_hse06_10hf_ddec_sum_bond_order
 _atom_site_hse06_10hf_magmom
 _atom_site_hse06_bader_spin_density
 _atom_site_hse06_ddec_charge
 _atom_site_hse06_ddec_spin_density
 _atom_site_hse06_ddec_sum_bond_order
 _atom_site_hse06_magmom
 _atom_site_pbe_bader_charge
 _atom_site_pbe_bader_spin_density
 _atom_site_pbe_cm5_charge
 _atom_site_pbe_ddec_charge
 _atom_site_pbe_ddec_spin_density
 _atom_site_pbe_ddec_sum_bond_order
 _atom_site_pbe_magmom
Zn  Zn0  1  0.94172919  0.34697832  0.79900108  1  0  1.093799  0  1.782909  0  0  0.911659  0  2.262199  0  0  0.960968  0  2.199778  0  1.288486  0  0.686271  0.877217  0  2.304891  0
Zn  Zn1  1  0.55826948  0.84697805  0.70099905  1  0  1.093844  0  1.782863  0  0  0.911705  0  2.262149  0  0  0.961002  0  2.199728  0  1.288519  0  0.686284  0.877256  0  2.304839  0
Zn  Zn2  1  0.05827027  0.65302216  0.20099903  1  0  1.09382  0  1.782889  0  0  0.911667  0  2.26218  0  0  0.960973  0  2.199761  0  1.288456  0  0.686278  0.877224  0  2.304871  0
Zn  Zn3  1  0.44172893  0.15302141  0.29900099  1  0  1.09381  0  1.782903  0  0  0.911677  0  2.2622  0  0  0.960971  0  2.199777  0  1.288484  0  0.686276  0.877228  0  2.304885  0
H  H4  1  0.07970626  0.36387340  0.97183403  1  0  0.440948  0  0.860666  0  0  0.406059  0  0.92955  0  0  0.417764  0  0.91268  0  0.660417  0  0.289857  0.397956  0  0.941168  0
H  H5  1  0.42029505  0.86387313  0.52816541  1  0  0.440982  0  0.860619  0  0  0.406095  0  0.929498  0  0  0.4178  0  0.912628  0  0.660488  0  0.289882  0.397992  0  0.941116  0
H  H6  1  0.92029531  0.63612607  0.02816550  1  0  0.440987  0  0.860605  0  0  0.406098  0  0.929487  0  0  0.417803  0  0.912615  0  0.660493  0  0.289883  0.397995  0  0.941104  0
H  H7  1  0.57970547  0.13612634  0.47183405  1  0  0.440971  0  0.860642  0  0  0.406083  0  0.929522  0  0  0.417788  0  0.912651  0  0.660414  0  0.289856  0.397979  0  0.94114  0
H  H8  1  0.08552264  0.20232820  0.94065714  1  0  0.380217  0  0.934609  0  0  0.338428  0  1.025498  0  0  0.349795  0  1.011724  0  0.638214  0  0.28255  0.330548  0  1.032927  0
H  H9  1  0.41447656  0.70232793  0.55934288  1  0  0.380191  0  0.93466  0  0  0.338419  0  1.025507  0  0  0.349785  0  1.011736  0  0.638213  0  0.28254  0.330537  0  1.032936  0
H  H10  1  0.91447787  0.79767126  0.05934304  1  0  0.380211  0  0.934626  0  0  0.338421  0  1.025522  0  0  0.349787  0  1.01174  0  0.638216  0  0.282553  0.33054  0  1.03295  0
H  H11  1  0.58552290  0.29767153  0.44065723  1  0  0.38019  0  0.934666  0  0  0.338417  0  1.025515  0  0  0.349783  0  1.011742  0  0.638215  0  0.282541  0.330535  0  1.032944  0
H  H12  1  0.21453168  0.11326614  0.57577716  1  0  0.110064  0  0.938619  0  0  0.119313  0  1.000236  0  0  0.123613  0  0.997443  0  0.102099  0  0.107298  0.116005  0  1.002958  0
H  H13  1  0.28546752  0.61326587  0.92422286  1  0  0.110055  0  0.93863  0  0  0.119303  0  1.000248  0  0  0.123604  0  0.997454  0  0.10209  0  0.107292  0.115997  0  1.002968  0
H  H14  1  0.78546673  0.88673333  0.42422288  1  0  0.110048  0  0.93866  0  0  0.119297  0  1.00028  0  0  0.123597  0  0.997485  0  0.10207  0  0.107291  0.115991  0  1.002999  0
H  H15  1  0.71453299  0.38673461  0.07577732  1  0  0.11006  0  0.938632  0  0  0.119308  0  1.000259  0  0  0.123606  0  0.997464  0  0.102092  0  0.107293  0.116002  0  1.002978  0
H  H16  1  0.95030675  0.64616349  0.81401130  1  0  0.089381  0  0.969724  0  0  0.096873  0  1.033142  0  0  0.1  0  1.030365  0  0.146319  0  0.118133  0.094401  0  1.035402  0
H  H17  1  0.54969297  0.14616376  0.68598818  1  0  0.089392  0  0.969691  0  0  0.096881  0  1.033113  0  0  0.100007  0  1.030336  0  0.146314  0  0.118132  0.094406  0  1.035378  0
H  H18  1  0.04969271  0.35383597  0.18598810  1  0  0.089393  0  0.969694  0  0  0.09688  0  1.033116  0  0  0.100006  0  1.030341  0  0.146314  0  0.118131  0.094406  0  1.035382  0
H  H19  1  0.45030860  0.85383570  0.31401134  1  0  0.089387  0  0.969735  0  0  0.096891  0  1.033139  0  0  0.100016  0  1.030364  0  0.146327  0  0.118143  0.094416  0  1.035405  0
H  H20  1  0.02807229  0.84312431  0.71672659  1  0  0.107671  0  0.958788  0  0  0.116675  0  1.019472  0  0  0.119089  0  1.019679  0  0.115318  0  0.109375  0.115066  0  1.019404  0
H  H21  1  0.47192797  0.34312356  0.78327350  1  0  0.107723  0  0.958774  0  0  0.116708  0  1.019477  0  0  0.119104  0  1.019706  0  0.115312  0  0.109386  0.1151  0  1.019409  0
H  H22  1  0.97192717  0.15687516  0.28327352  1  0  0.107726  0  0.958764  0  0  0.116708  0  1.019472  0  0  0.119104  0  1.019701  0  0.115309  0  0.109383  0.1151  0  1.019403  0
H  H23  1  0.52807361  0.65687591  0.21672674  1  0  0.107705  0  0.958743  0  0  0.116679  0  1.01946  0  0  0.119083  0  1.019679  0  0.115316  0  0.109372  0.115072  0  1.01939  0
H  H24  1  0.15202585  0.79499164  0.57066452  1  0  0.096568  0  0.963589  0  0  0.107692  0  1.02477  0  0  0.10892  0  1.025279  0  0.108903  0  0.107436  0.1064  0  1.025007  0
H  H25  1  0.34797441  0.29499190  0.92933557  1  0  0.096579  0  0.963559  0  0  0.107689  0  1.024763  0  0  0.108919  0  1.025265  0  0.108903  0  0.107439  0.106409  0  1.024988  0
H  H26  1  0.84797361  0.20500885  0.42933488  1  0  0.096613  0  0.963611  0  0  0.107752  0  1.024768  0  0  0.108986  0  1.025264  0  0.108901  0  0.107454  0.106443  0  1.025024  0
H  H27  1  0.65202717  0.70500858  0.07066396  1  0  0.096573  0  0.963564  0  0  0.10771  0  1.024727  0  0  0.108937  0  1.02524  0  0.108887  0  0.107439  0.106411  0  1.024973  0
H  H28  1  0.10984944  0.36811343  0.63006350  1  0  0.077635  0  0.954978  0  0  0.086965  0  1.021109  0  0  0.088448  0  1.020539  0  0.070845  0  0.116062  0.085808  0  1.021818  0
H  H29  1  0.39015082  0.86811418  0.86993730  1  0  0.077649  0  0.954963  0  0  0.086984  0  1.021093  0  0  0.088468  0  1.020524  0  0.070854  0  0.116068  0.085825  0  1.021804  0
H  H30  1  0.89015108  0.63188604  0.36993668  1  0  0.07765  0  0.954948  0  0  0.086985  0  1.021077  0  0  0.088468  0  1.020508  0  0.070866  0  0.116066  0.085828  0  1.021787  0
H  H31  1  0.60984970  0.13188529  0.13006359  1  0  0.077676  0  0.954977  0  0  0.08701  0  1.021096  0  0  0.088492  0  1.020527  0  0.070858  0  0.116081  0.085855  0  1.021801  0
H  H32  1  0.17421326  0.44153484  0.47121413  1  0  0.059925  0  0.928529  0  0  0.071923  0  0.99863  0  0  0.072424  0  0.999305  0  0.06572  0  0.098069  0.071678  0  0.997659  0
H  H33  1  0.32578805  0.94153660  0.02878746  1  0  0.05992  0  0.928541  0  0  0.071911  0  0.998637  0  0  0.072411  0  0.999309  0  0.065701  0  0.098069  0.071668  0  0.997664  0
H  H34  1  0.82578620  0.55846564  0.52878598  1  0  0.059923  0  0.928492  0  0  0.071934  0  0.998593  0  0  0.072435  0  0.999266  0  0.065719  0  0.098068  0.071689  0  0.997623  0
H  H35  1  0.67421457  0.05846489  0.97121428  1  0  0.059903  0  0.928496  0  0  0.071914  0  0.998597  0  0  0.072416  0  0.999271  0  0.065683  0  0.098053  0.071668  0  0.997627  0
H  H36  1  0.17062479  0.61758926  0.44124199  1  0  0.085503  0  0.938391  0  0  0.097853  0  1.006627  0  0  0.098462  0  1.006763  0  0.096879  0  0.110286  0.097147  0  1.006632  0
H  H37  1  0.32937547  0.11759055  0.05875738  1  0  0.085496  0  0.938388  0  0  0.097836  0  1.006621  0  0  0.098441  0  1.006758  0  0.096884  0  0.110264  0.097131  0  1.006625  0
H  H38  1  0.82937468  0.38241122  0.55875740  1  0  0.085491  0  0.938388  0  0  0.097843  0  1.006635  0  0  0.098449  0  1.006773  0  0.096884  0  0.110284  0.097138  0  1.00664  0
H  H39  1  0.67062610  0.88241095  0.94124286  1  0  0.085491  0  0.938398  0  0  0.097844  0  1.006638  0  0  0.09845  0  1.006775  0  0.09688  0  0.110281  0.097137  0  1.006644  0
H  H40  1  0.38907481  0.34350680  0.54372663  1  0  0.057188  0  0.923222  0  0  0.073399  0  0.989548  0  0  0.074314  0  0.988524  0  0.050522  0  0.097103  0.072424  0  0.99057  0
H  H41  1  0.11092650  0.84350755  0.95627353  1  0  0.057212  0  0.923185  0  0  0.073407  0  0.989529  0  0  0.074327  0  0.988509  0  0.05053  0  0.097116  0.072431  0  0.990552  0
H  H42  1  0.61092466  0.65649369  0.45627276  1  0  0.057206  0  0.923211  0  0  0.07342  0  0.989532  0  0  0.074338  0  0.988511  0  0.050522  0  0.097108  0.072443  0  0.990554  0
H  H43  1  0.88907507  0.15649294  0.04372743  1  0  0.057182  0  0.923223  0  0  0.073396  0  0.989545  0  0  0.074314  0  0.988523  0  0.050522  0  0.097115  0.072418  0  0.990567  0
H  H44  1  0.38312142  0.45621993  0.64426964  1  0  0.077215  0  0.951713  0  0  0.092684  0  1.016762  0  0  0.092756  0  1.018124  0  0.067763  0  0.106951  0.092597  0  1.015721  0
H  H45  1  0.11687884  0.95622068  0.85573045  1  0  0.077186  0  0.951736  0  0  0.092649  0  1.016792  0  0  0.092727  0  1.018157  0  0.06775  0  0.106952  0.092562  0  1.015752  0
H  H46  1  0.61687804  0.54377953  0.35572975  1  0  0.07721  0  0.951725  0  0  0.09268  0  1.016775  0  0  0.092755  0  1.018138  0  0.067752  0  0.106946  0.092594  0  1.015732  0
H  H47  1  0.88312273  0.04377980  0.14426979  1  0  0.07722  0  0.951805  0  0  0.092685  0  1.016849  0  0  0.092761  0  1.018212  0  0.067753  0  0.106981  0.092598  0  1.015806  0
H  H48  1  0.37311796  0.63193483  0.37203996  1  0  0.086228  0  0.913784  0  0  0.106025  0  0.969832  0  0  0.106439  0  0.970041  0  0.075205  0  0.114198  0.105776  0  0.969524  0
H  H49  1  0.12688230  0.13193510  0.12796013  1  0  0.086231  0  0.913752  0  0  0.106038  0  0.969816  0  0  0.106453  0  0.970025  0  0.075208  0  0.1142  0.105788  0  0.969509  0
H  H50  1  0.62688151  0.36806464  0.62795943  1  0  0.086228  0  0.9138  0  0  0.106042  0  0.969825  0  0  0.106455  0  0.970036  0  0.075201  0  0.114205  0.105793  0  0.969517  0
H  H51  1  0.87311927  0.86806538  0.87204012  1  0  0.08624  0  0.913792  0  0  0.106054  0  0.969823  0  0  0.10647  0  0.970029  0  0.075227  0  0.11421  0.105805  0  0.969515  0
H  H52  1  0.38355246  0.45184165  0.37792913  1  0  0.064699  0  0.917335  0  0  0.08207  0  0.981493  0  0  0.083029  0  0.980526  0  0.058148  0  0.101833  0.08141  0  0.981921  0
H  H53  1  0.11644675  0.95184138  0.12207160  1  0  0.064686  0  0.917339  0  0  0.082064  0  0.981517  0  0  0.083024  0  0.980551  0  0.058158  0  0.101833  0.081403  0  0.981945  0
H  H54  1  0.61644595  0.54815883  0.62207091  1  0  0.064709  0  0.917324  0  0  0.082071  0  0.981494  0  0  0.08303  0  0.980526  0  0.058155  0  0.101836  0.08141  0  0.981923  0
H  H55  1  0.88355483  0.04815910  0.87792936  1  0  0.0647  0  0.917342  0  0  0.082065  0  0.981513  0  0  0.083022  0  0.980547  0  0.05815  0  0.101834  0.081404  0  0.981942  0
C  C56  1  0.00308682  0.14276848  0.68172705  1  0  0.615956  0  3.96437  0  0  0.569232  0  4.259847  0  0  0.602083  0  4.252612  0  1.564741  0  0.191186  0.54723  0  4.263945  0
C  C57  1  0.49691343  0.64276821  0.81827304  1  0  0.615923  0  3.964393  0  0  0.569198  0  4.259873  0  0  0.602051  0  4.252637  0  1.564738  0  0.19118  0.547197  0  4.26397  0
C  C58  1  0.99691159  0.85723200  0.31827228  1  0  0.615946  0  3.964419  0  0  0.569172  0  4.259925  0  0  0.602024  0  4.252693  0  1.564724  0  0.191152  0.54717  0  4.264022  0
C  C59  1  0.50308814  0.35723125  0.18172721  1  0  0.615994  0  3.964374  0  0  0.569245  0  4.259865  0  0  0.602098  0  4.252627  0  1.564719  0  0.191179  0.547244  0  4.263958  0
C  C60  1  0.99815411  0.06417486  0.58957388  1  0  -0.061364  0  3.738899  0  0  -0.049675  0  3.978235  0  0  -0.05344  0  3.996593  0  -0.052666  0  -0.011515  -0.047101  0  3.965837  0
C  C61  1  0.50184561  0.56417561  0.91042632  1  0  -0.061365  0  3.738901  0  0  -0.049671  0  3.978237  0  0  -0.053447  0  3.996583  0  -0.052656  0  -0.011494  -0.047098  0  3.96584  0
C  C62  1  0.00184430  0.93582460  0.41042616  1  0  -0.061355  0  3.738913  0  0  -0.049573  0  3.978143  0  0  -0.053352  0  3.996489  0  -0.05263  0  -0.011471  -0.046999  0  3.965743  0
C  C63  1  0.49815596  0.43582487  0.08957393  1  0  -0.061408  0  3.738918  0  0  -0.049656  0  3.978181  0  0  -0.053426  0  3.996536  0  -0.052518  0  -0.011493  -0.047083  0  3.965782  0
C  C64  1  0.87601745  0.99953592  0.54768071  1  0  -0.053479  0  3.727712  0  0  -0.040954  0  3.967952  0  0  -0.043038  0  3.984549  0  -0.043654  0  -0.006992  -0.039933  0  3.956992  0
C  C65  1  0.62398227  0.49953619  0.95231948  1  0  -0.053382  0  3.727684  0  0  -0.040858  0  3.967917  0  0  -0.042907  0  3.984468  0  -0.043648  0  -0.006972  -0.039839  0  3.956959  0
C  C66  1  0.12398096  0.00046355  0.45231933  1  0  -0.053462  0  3.727766  0  0  -0.040959  0  3.967973  0  0  -0.043001  0  3.984516  0  -0.043642  0  -0.007009  -0.03994  0  3.957017  0
C  C67  1  0.37601825  0.50046430  0.04768141  1  0  -0.053441  0  3.727733  0  0  -0.040943  0  3.967938  0  0  -0.043019  0  3.984527  0  -0.043757  0  -0.007002  -0.039924  0  3.956983  0
C  C68  1  0.12070022  0.06309833  0.54170531  1  0  -0.099349  0  3.715932  0  0  -0.130782  0  3.96714  0  0  -0.131029  0  3.983651  0  -0.001215  0  -0.081393  -0.130921  0  3.956996  0
C  C69  1  0.37929899  0.56309908  0.95829543  1  0  -0.099336  0  3.715932  0  0  -0.130766  0  3.967143  0  0  -0.131004  0  3.983664  0  -0.001211  0  -0.081384  -0.130907  0  3.956998  0
C  C70  1  0.87929819  0.93690012  0.45829545  1  0  -0.099345  0  3.715951  0  0  -0.130809  0  3.967143  0  0  -0.131042  0  3.983665  0  -0.001179  0  -0.081404  -0.130946  0  3.956992  0
C  C71  1  0.62070153  0.43690140  0.04170546  1  0  -0.09936  0  3.715942  0  0  -0.130813  0  3.967144  0  0  -0.131055  0  3.983653  0  -0.001199  0  -0.081407  -0.130951  0  3.956995  0
C  C72  1  0.74332825  0.98645697  0.59708363  1  0  0.672656  0  3.898629  0  0  0.615464  0  4.201759  0  0  0.649713  0  4.193191  0  1.608239  0  0.213246  0.592458  0  4.206522  0
C  C73  1  0.75667042  0.48645724  0.90291578  1  0  0.672535  0  3.898727  0  0  0.615341  0  4.201869  0  0  0.649582  0  4.193298  0  1.608235  0  0.213222  0.592337  0  4.20663  0
C  C74  1  0.25667016  0.01354249  0.40291641  1  0  0.67257  0  3.898768  0  0  0.615375  0  4.201915  0  0  0.649613  0  4.193347  0  1.608239  0  0.213222  0.59237  0  4.206676  0
C  C75  1  0.24332905  0.51354324  0.09708432  1  0  0.67258  0  3.898736  0  0  0.615422  0  4.201831  0  0  0.649668  0  4.193265  0  1.608238  0  0.213253  0.592417  0  4.206592  0
C  C76  1  0.00597236  0.63146823  0.75017145  1  0  0.1339  0  3.668215  0  0  0.100844  0  3.915704  0  0  0.108282  0  3.932469  0  0.469324  0  0.052553  0.095996  0  3.904328  0
C  C77  1  0.49402685  0.13146850  0.74982857  1  0  0.133918  0  3.668277  0  0  0.100848  0  3.91575  0  0  0.108284  0  3.932511  0  0.469323  0  0.052559  0.095997  0  3.904376  0
C  C78  1  0.99402711  0.36853123  0.24982866  1  0  0.133898  0  3.668301  0  0  0.100829  0  3.915772  0  0  0.108264  0  3.932534  0  0.469308  0  0.05255  0.09598  0  3.904394  0
C  C79  1  0.50597367  0.86853096  0.25017160  1  0  0.13388  0  3.668277  0  0  0.100814  0  3.915753  0  0  0.108249  0  3.932517  0  0.469315  0  0.052545  0.095965  0  3.904376  0
C  C80  1  0.04985396  0.73925618  0.69608327  1  0  -0.091662  0  3.714824  0  0  -0.104155  0  3.966948  0  0  -0.111059  0  3.988329  0  0.020495  0  -0.074411  -0.099918  0  3.952507  0
C  C81  1  0.45014630  0.23925746  0.80391610  1  0  -0.091701  0  3.714844  0  0  -0.104179  0  3.966968  0  0  -0.111064  0  3.988348  0  0.02048  0  -0.074421  -0.099942  0  3.952532  0
C  C82  1  0.95014551  0.26074329  0.30391541  1  0  -0.091678  0  3.714729  0  0  -0.104153  0  3.966855  0  0  -0.111042  0  3.988246  0  0.02045  0  -0.074409  -0.099914  0  3.952407  0
C  C83  1  0.54985527  0.76074302  0.19608342  1  0  -0.091682  0  3.714812  0  0  -0.104144  0  3.966938  0  0  -0.111037  0  3.98832  0  0.020445  0  -0.074419  -0.099905  0  3.952491  0
C  C84  1  0.11712229  0.71198720  0.61422627  1  0  -0.018296  0  3.650049  0  0  -0.045264  0  3.894768  0  0  -0.041605  0  3.913274  0  -0.079563  0  -0.054594  -0.047253  0  3.882299  0
C  C85  1  0.38287797  0.21198747  0.88577382  1  0  -0.018348  0  3.650062  0  0  -0.045309  0  3.894791  0  0  -0.041648  0  3.913295  0  -0.079558  0  -0.054616  -0.047309  0  3.882318  0
C  C86  1  0.88287823  0.28801226  0.38577462  1  0  -0.01839  0  3.650035  0  0  -0.045368  0  3.894731  0  0  -0.04171  0  3.913233  0  -0.079516  0  -0.054625  -0.047345  0  3.882271  0
C  C87  1  0.61712254  0.78801200  0.11422564  1  0  -0.018349  0  3.649983  0  0  -0.045295  0  3.894738  0  0  -0.041638  0  3.913243  0  -0.079534  0  -0.054607  -0.047279  0  3.882273  0
C  C88  1  0.13893662  0.57712952  0.58763014  1  0  0.030543  0  3.734118  0  0  0.05247  0  3.975154  0  0  0.047712  0  3.998578  0  0.00152  0  -0.00182  0.055728  0  3.95816  0
C  C89  1  0.36106259  0.07713080  0.91236917  1  0  0.030565  0  3.734115  0  0  0.052478  0  3.97515  0  0  0.047715  0  3.998576  0  0.001517  0  -0.001828  0.055736  0  3.958159  0
C  C90  1  0.86106284  0.42286995  0.41236854  1  0  0.030516  0  3.734136  0  0  0.052452  0  3.975182  0  0  0.047691  0  3.998609  0  0.001531  0  -0.001837  0.055713  0  3.95818  0
C  C91  1  0.63893793  0.92286968  0.08763029  1  0  0.030628  0  3.733899  0  0  0.052433  0  3.975127  0  0  0.047673  0  3.998554  0  0.001531  0  -0.001828  0.055693  0  3.958128  0
C  C92  1  0.09424669  0.47507899  0.64677443  1  0  0.081495  0  3.683023  0  0  0.044685  0  3.928919  0  0  0.051012  0  3.948078  0  0.479165  0  0.049433  0.040189  0  3.916501  0
C  C93  1  0.40575251  0.97507974  0.85322559  1  0  0.081504  0  3.682966  0  0  0.044673  0  3.928855  0  0  0.050999  0  3.948018  0  0.479183  0  0.049434  0.040181  0  3.916432  0
C  C94  1  0.90575172  0.52492048  0.35322489  1  0  0.081496  0  3.68299  0  0  0.044654  0  3.928887  0  0  0.05098  0  3.948049  0  0.479142  0  0.049418  0.040159  0  3.916466  0
C  C95  1  0.59424800  0.02492075  0.14677459  1  0  0.081416  0  3.68296  0  0  0.044637  0  3.928905  0  0  0.050965  0  3.948065  0  0.479176  0  0.049418  0.040136  0  3.916496  0
C  C96  1  0.20672346  0.54410585  0.49756434  1  0  -0.054193  0  3.697037  0  0  -0.116585  0  3.951833  0  0  -0.113085  0  3.964962  0  0.268038  0  -0.063091  -0.118573  0  3.942183  0
C  C97  1  0.29327680  0.04410713  0.00243646  1  0  -0.054215  0  3.696964  0  0  -0.116566  0  3.95172  0  0  -0.113054  0  3.964835  0  0.268056  0  -0.063084  -0.118552  0  3.942066  0
C  C98  1  0.79327601  0.45589362  0.50243577  1  0  -0.054138  0  3.696906  0  0  -0.11657  0  3.951745  0  0  -0.113064  0  3.964867  0  0.268062  0  -0.063081  -0.118554  0  3.942086  0
C  C99  1  0.70672372  0.95589335  0.99756371  1  0  -0.054207  0  3.696898  0  0  -0.116594  0  3.951754  0  0  -0.113089  0  3.964877  0  0.268081  0  -0.063094  -0.118579  0  3.9421  0
C  C100  1  0.42249872  0.44415957  0.57345191  1  0  -0.030419  0  3.654154  0  0  -0.090177  0  3.914331  0  0  -0.087406  0  3.927404  0  0.239984  0  -0.070602  -0.09167  0  3.90507  0
C  C101  1  0.07750259  0.94416032  0.92654753  1  0  -0.030382  0  3.654148  0  0  -0.090123  0  3.914323  0  0  -0.087374  0  3.927422  0  0.239981  0  -0.070624  -0.091617  0  3.905067  0
C  C102  1  0.57750074  0.55583989  0.42654749  1  0  -0.03041  0  3.654145  0  0  -0.090167  0  3.91431  0  0  -0.087403  0  3.927391  0  0.239996  0  -0.070571  -0.091664  0  3.905061  0
C  C103  1  0.92249793  0.05584016  0.07345264  1  0  -0.030429  0  3.65416  0  0  -0.090163  0  3.914334  0  0  -0.087401  0  3.927421  0  0.239933  0  -0.07064  -0.091659  0  3.905084  0
C  C104  1  0.41774255  0.54676819  0.41581313  1  0  -0.016849  0  3.627305  0  0  -0.074539  0  3.885477  0  0  -0.071097  0  3.897301  0  0.268254  0  -0.064618  -0.076605  0  3.876816  0
C  C105  1  0.08225666  0.04676643  0.08418474  1  0  -0.016811  0  3.627219  0  0  -0.074568  0  3.885487  0  0  -0.07113  0  3.897321  0  0.268282  0  -0.064602  -0.076633  0  3.876826  0
C  C106  1  0.58225692  0.45323229  0.58418554  1  0  -0.01684  0  3.627282  0  0  -0.074531  0  3.885445  0  0  -0.071091  0  3.897261  0  0.268245  0  -0.064588  -0.076596  0  3.876786  0
C  C107  1  0.91774386  0.95323304  0.91581401  1  0  -0.016879  0  3.627302  0  0  -0.074593  0  3.885504  0  0  -0.071148  0  3.89733  0  0.26827  0  -0.064603  -0.076658  0  3.876845  0
N  N108  1  0.02858870  0.50109456  0.72608118  1  0  -0.342575  0  3.324891  0  0  -0.255909  0  3.603771  0  0  -0.275959  0  3.618086  0  -1.255702  0  -0.329687  -0.242324  0  3.594143  0
N  N109  1  0.47141156  0.00109483  0.77391819  1  0  -0.342616  0  3.324915  0  0  -0.255899  0  3.603752  0  0  -0.275948  0  3.618065  0  -1.255707  0  -0.329672  -0.242313  0  3.594121  0
N  N110  1  0.97141182  0.49890491  0.27391828  1  0  -0.342599  0  3.324938  0  0  -0.25588  0  3.603777  0  0  -0.275931  0  3.618095  0  -1.255689  0  -0.329667  -0.242294  0  3.594146  0
N  N111  1  0.52858896  0.99890464  0.22608199  1  0  -0.342538  0  3.324914  0  0  -0.255866  0  3.603784  0  0  -0.275912  0  3.618097  0  -1.255693  0  -0.32966  -0.242276  0  3.594147  0
N  N112  1  0.36157583  0.55329547  0.51052915  1  0  -0.213847  0  3.226741  0  0  -0.117931  0  3.448851  0  0  -0.134617  0  3.469723  0  -1.048559  0  -0.326736  -0.107184  0  3.434377  0
N  N113  1  0.13842338  0.05329675  0.98947087  1  0  -0.21386  0  3.226697  0  0  -0.117926  0  3.44881  0  0  -0.134604  0  3.46968  0  -1.048593  0  -0.326719  -0.10718  0  3.434337  0
N  N114  1  0.63842258  0.44670400  0.48947018  1  0  -0.213853  0  3.22666  0  0  -0.117935  0  3.448802  0  0  -0.134617  0  3.469668  0  -1.048581  0  -0.326742  -0.107189  0  3.434326  0
N  N115  1  0.86157819  0.94670475  0.01053009  1  0  -0.213793  0  3.226589  0  0  -0.117847  0  3.448675  0  0  -0.134528  0  3.469548  0  -1.048567  0  -0.326714  -0.107101  0  3.434198  0
O  O116  1  0.88930692  0.20982933  0.69638636  1  0  -0.653338  0  2.004644  0  0  -0.584794  0  2.2743  0  0  -0.613111  0  2.25906  0  -1.161341  0  -0.333248  -0.565282  0  2.283881  0
O  O117  1  0.61069386  0.70982906  0.80361390  1  0  -0.653338  0  2.00463  0  0  -0.584802  0  2.274289  0  0  -0.613116  0  2.259044  0  -1.161347  0  -0.333255  -0.565286  0  2.283868  0
O  O118  1  0.11069254  0.79017115  0.30361375  1  0  -0.653305  0  2.004678  0  0  -0.584752  0  2.274336  0  0  -0.613067  0  2.259098  0  -1.161316  0  -0.333217  -0.565236  0  2.283917  0
O  O119  1  0.38930772  0.29017040  0.19638634  1  0  -0.653368  0  2.004674  0  0  -0.584821  0  2.274328  0  0  -0.613135  0  2.259084  0  -1.161323  0  -0.333247  -0.565305  0  2.283905  0
O  O120  1  0.11532331  0.14757067  0.73563712  1  0  -0.603966  0  1.922769  0  0  -0.559597  0  2.147844  0  0  -0.582073  0  2.14166  0  -1.172694  0  -0.320137  -0.54395  0  2.151484  0
O  O121  1  0.38467695  0.64757040  0.76436297  1  0  -0.603942  0  1.922769  0  0  -0.559572  0  2.147849  0  0  -0.582049  0  2.141664  0  -1.172662  0  -0.320128  -0.54393  0  2.151495  0
O  O122  1  0.88467510  0.85242880  0.26436292  1  0  -0.603987  0  1.922764  0  0  -0.559598  0  2.147828  0  0  -0.582073  0  2.14164  0  -1.17271  0  -0.320141  -0.543961  0  2.151489  0
O  O123  1  0.61532357  0.35242906  0.23563721  1  0  -0.60398  0  1.922774  0  0  -0.559605  0  2.147839  0  0  -0.582078  0  2.141645  0  -1.172717  0  -0.320144  -0.54397  0  2.151505  0
O  O124  1  0.75096575  0.90624602  0.66995944  1  0  -0.640574  0  2.005121  0  0  -0.573043  0  2.273481  0  0  -0.601969  0  2.259485  0  -1.168571  0  -0.322278  -0.552045  0  2.281356  0
O  O125  1  0.74903292  0.40624629  0.83004069  1  0  -0.64053  0  2.005169  0  0  -0.572998  0  2.273534  0  0  -0.601931  0  2.259543  0  -1.168525  0  -0.322289  -0.552  0  2.2814  0
O  O126  1  0.24903266  0.09375446  0.33004060  1  0  -0.640549  0  2.005161  0  0  -0.573017  0  2.273529  0  0  -0.601943  0  2.259536  0  -1.168516  0  -0.322293  -0.552016  0  2.281397  0
O  O127  1  0.25096654  0.59375521  0.16995942  1  0  -0.64056  0  2.005139  0  0  -0.573045  0  2.27349  0  0  -0.601971  0  2.259495  0  -1.168537  0  -0.322303  -0.552051  0  2.28137  0
O  O128  1  0.63167035  0.04422810  0.56334167  1  0  -0.613651  0  1.998382  0  0  -0.552301  0  2.221109  0  0  -0.577718  0  2.210866  0  -1.182005  0  -0.301291  -0.534836  0  2.227701  0
O  O129  1  0.86832937  0.54422783  0.93665710  1  0  -0.613603  0  1.998399  0  0  -0.552255  0  2.221137  0  0  -0.577673  0  2.210898  0  -1.181993  0  -0.301277  -0.534793  0  2.227729  0
O  O130  1  0.36832806  0.95577137  0.43665766  1  0  -0.613592  0  1.99843  0  0  -0.552263  0  2.221186  0  0  -0.577678  0  2.21095  0  -1.181952  0  -0.301267  -0.534799  0  2.227778  0
O  O131  1  0.13167220  0.45577265  0.06334243  1  0  -0.613616  0  1.998422  0  0  -0.552278  0  2.221132  0  0  -0.577694  0  2.210893  0  -1.181946  0  -0.301307  -0.534815  0  2.227724  0
O  O132  1  0.04523479  0.29581328  0.92132470  1  0  -0.868062  0  2.014564  0  0  -0.794644  0  2.286201  0  0  -0.817664  0  2.245092  0  -1.298712  0  -0.589442  -0.778465  0  2.312346  0
O  O133  1  0.45476653  0.79581301  0.57867474  1  0  -0.868086  0  2.014512  0  0  -0.794679  0  2.286139  0  0  -0.817697  0  2.245035  0  -1.298785  0  -0.589465  -0.778498  0  2.312289  0
O  O134  1  0.95476573  0.70418721  0.07867548  1  0  -0.868104  0  2.014524  0  0  -0.794682  0  2.286164  0  0  -0.817706  0  2.245059  0  -1.298788  0  -0.589473  -0.778503  0  2.312314  0
O  O135  1  0.54523399  0.20418646  0.42132472  1  0  -0.868076  0  2.014569  0  0  -0.79466  0  2.286185  0  0  -0.81768  0  2.245077  0  -1.298714  0  -0.589442  -0.778487  0  2.312353  0
