# generated using pymatgen
data_AlH10C15(NO3)2
_symmetry_space_group_name_H-M   'P 1'
_cell_length_a   6.70559604
_cell_length_b   16.87987929
_cell_length_c   17.68296285
_cell_angle_alpha   86.69460472
_cell_angle_beta   80.33352941
_cell_angle_gamma   83.56928535
_symmetry_Int_Tables_number   1
_chemical_formula_structural   AlH10C15(NO3)2
_chemical_formula_sum   'Al2 H20 C30 N4 O12'
_cell_volume   1959.15307461
_cell_formula_units_Z   2
loop_
 _symmetry_equiv_pos_site_id
 _symmetry_equiv_pos_as_xyz
  1  'x, y, z'
loop_
 _atom_site_type_symbol
 _atom_site_label
 _atom_site_symmetry_multiplicity
 _atom_site_fract_x
 _atom_site_fract_y
 _atom_site_fract_z
 _atom_site_occupancy
 _atom_site_pbe_bader_charge
 _atom_site_pbe_bader_spin_density
 _atom_site_pbe_cm5_charge
 _atom_site_pbe_ddec_charge
 _atom_site_pbe_ddec_spin_density
 _atom_site_pbe_ddec_sum_bond_order
 _atom_site_pbe_magmom
Al  Al0  1  0.50127339  0.49946143  0.49753793  1  2.507223  0  0.396769  1.645465  0  2.591755  0
Al  Al1  1  0.00322226  0.49815802  0.49530765  1  2.502362  0  0.40136  1.642269  0  2.571031  0
H  H2  1  0.76526752  0.57261961  0.42025565  1  0.620275  0  0.355885  0.432916  0  0.847927  0
H  H3  1  0.22118307  0.45246625  0.58734904  1  0.617214  0  0.349082  0.421129  0  0.868676  0
H  H4  1  0.13457409  0.26525757  0.45374488  1  0.085058  0  0.107093  0.109176  0  1.008516  0
H  H5  1  0.20295527  0.11556918  0.45524073  1  0.114135  0  0.099849  0.107625  0  1.032574  0
H  H6  1  0.56406421  0.09873272  0.52930710  1  0.062372  0  0.106787  0.119727  0  1.004902  0
H  H7  1  0.39097282  0.89930038  0.53808872  1  0.082642  0  0.107841  0.120999  0  1.004345  0
H  H8  1  0.82443467  0.88401397  0.45901107  1  0.074461  0  0.100516  0.109093  0  1.030846  0
H  H9  1  0.89737449  0.73473431  0.46057250  1  0.092557  0  0.104262  0.105873  0  1.013986  0
H  H10  1  0.68646883  0.48813030  0.27444388  1  0.1092  0  0.108181  0.115074  0  1.008371  0
H  H11  1  0.77852368  0.49139163  0.13168335  1  0.127338  0  0.099482  0.110258  0  1.05151  0
H  H12  1  0.05448462  0.48713258  0.25647506  1  0.132263  0  0.115363  0.13705  0  0.99674  0
H  H13  1  0.95913572  0.50969844  0.73652658  1  0.104421  0  0.113408  0.132448  0  1.000718  0
H  H14  1  0.32354716  0.51446423  0.72163421  1  0.091411  0  0.105715  0.109154  0  1.015935  0
H  H15  1  0.23593061  0.51260606  0.86407155  1  0.150171  0  0.100213  0.111684  0  1.050772  0
H  H16  1  0.41865363  0.31320254  0.52369749  1  0.512613  0  0.307765  0.319097  0  0.97789  0
H  H17  1  0.33718770  0.21830408  0.54417073  1  0.455859  0  0.306617  0.302752  0  0.956741  0
H  H18  1  0.53838734  0.68504229  0.54210907  1  0.483996  0  0.309358  0.319533  0  0.973994  0
H  H19  1  0.60381346  0.77957738  0.55876282  1  0.463919  0  0.30943  0.306912  0  0.950797  0
H  H20  1  0.17762202  0.49281176  0.05138531  1  0.606443  0  0.317898  0.346138  0  0.921355  0
H  H21  1  0.84128126  0.50680289  0.94155289  1  0.603406  0  0.318466  0.347086  0  0.9201  0
C  C22  1  0.31445914  0.49146307  0.35852849  1  1.588812  0  0.271351  0.644126  0  4.083681  0
C  C23  1  0.21109780  0.64427099  0.49924487  1  1.480714  0  0.257841  0.64944  0  4.094761  0
C  C24  1  0.69305114  0.50643309  0.63564024  1  1.551928  0  0.269983  0.644944  0  4.079144  0
C  C25  1  0.79050509  0.35445351  0.49351170  1  1.487469  0  0.260921  0.653889  0  4.090487  0
C  C26  1  0.81447274  0.26668469  0.49251279  1  0.111654  0  -0.032856  -0.180783  0  3.933525  0
C  C27  1  0.01188636  0.22764313  0.47176658  1  -0.132443  0  -0.088221  -0.068066  0  4.046798  0
C  C28  1  0.05108760  0.14557803  0.47261569  1  -0.013927  0  -0.114613  -0.211847  0  4.022275  0
C  C29  1  0.88530302  0.09980722  0.49520279  1  0.456636  0  0.08678  0.198968  0  4.080696  0
C  C30  1  0.68781920  0.13646007  0.51362035  1  -0.079775  0  -0.092335  -0.26356  0  3.883863  0
C  C31  1  0.64602005  0.22052476  0.51311629  1  0.459784  0  0.115473  0.322495  0  4.069273  0
C  C32  1  0.28293763  0.86194515  0.52221974  1  0.007904  0  -0.09387  -0.264954  0  3.885616  0
C  C33  1  0.10400132  0.89899352  0.50059493  1  0.329017  0  0.087113  0.199213  0  4.079619  0
C  C34  1  0.96023803  0.85364050  0.47816534  1  -0.05268  0  -0.115374  -0.213627  0  4.024525  0
C  C35  1  0.00210529  0.77169394  0.47898649  1  -0.031626  0  -0.090254  -0.06867  0  4.048735  0
C  C36  1  0.18063851  0.73197123  0.50175992  1  0.061155  0  -0.035286  -0.182608  0  3.926318  0
C  C37  1  0.32588437  0.77792132  0.52441441  1  0.461536  0  0.116187  0.322653  0  4.067449  0
C  C38  1  0.36584139  0.48873292  0.27327267  1  -0.01631  0  -0.009162  -0.019999  0  3.996122  0
C  C39  1  0.56999191  0.48899092  0.23821708  1  -0.036821  0  -0.089582  -0.114766  0  4.000315  0
C  C40  1  0.62055581  0.49078456  0.15894819  1  -0.005032  0  -0.084864  -0.101838  0  3.971979  0
C  C41  1  0.46725187  0.49263560  0.11311402  1  0.099388  0  -0.016983  0.0102  0  4.13717  0
C  C42  1  0.26183107  0.49032089  0.14908512  1  0.519432  0  0.090846  0.274866  0  4.037376  0
C  C43  1  0.21199014  0.48829047  0.22877077  1  -0.064128  0  -0.090317  -0.208621  0  3.935312  0
C  C44  1  0.50564917  0.49796182  0.03217770  1  -0.396985  0  -0.040351  -0.108864  0  4.153124  0
C  C45  1  0.51240658  0.50402232  0.96227601  1  -0.136631  0  -0.040699  -0.110574  0  4.154877  0
C  C46  1  0.54901802  0.50887156  0.88133697  1  0.13613  0  -0.016772  0.012108  0  4.137444  0
C  C47  1  0.75405137  0.50939025  0.84441707  1  0.518857  0  0.092229  0.276871  0  4.036983  0
C  C48  1  0.80162107  0.51025506  0.76465819  1  0.022208  0  -0.089521  -0.205499  0  3.934665  0
C  C49  1  0.64574713  0.51066643  0.72093173  1  0.014709  0  -0.011955  -0.0239  0  3.994511  0
C  C50  1  0.44201531  0.51270983  0.75705125  1  -0.094041  0  -0.091535  -0.113201  0  4.007204  0
C  C51  1  0.39372101  0.51185943  0.83632486  1  -0.011929  0  -0.084789  -0.102831  0  3.970987  0
N  N52  1  0.90387213  0.01541224  0.49882390  1  -0.536435  0  -0.146932  -0.13146  0  3.266179  0
N  N53  1  0.08311725  0.98332618  0.50066542  1  -0.504678  0  -0.146832  -0.130573  0  3.266289  0
N  N54  1  0.45158083  0.25376636  0.53437466  1  -1.290496  0  -0.584589  -0.603942  0  3.344873  0
N  N55  1  0.49900526  0.74438029  0.54895655  1  -1.252293  0  -0.584412  -0.602726  0  3.344218  0
O  O56  1  0.46102128  0.49968850  0.39393198  1  -1.264329  0  -0.234289  -0.597001  0  2.36694  0
O  O57  1  0.06084320  0.60774136  0.48939170  1  -1.276686  0  -0.248487  -0.616316  0  2.358482  0
O  O58  1  0.87729873  0.50777360  0.60284742  1  -1.257875  0  -0.239119  -0.594794  0  2.316618  0
O  O59  1  0.61193859  0.39055941  0.49226248  1  -1.27066  0  -0.239624  -0.604346  0  2.375157  0
O  O60  1  0.54203669  0.50037112  0.60181123  1  -1.26619  0  -0.237457  -0.601833  0  2.366503  0
O  O61  1  0.94759147  0.38961694  0.49704415  1  -1.266802  0  -0.241383  -0.600537  0  2.347608  0
O  O62  1  0.13041448  0.48694627  0.38985102  1  -1.259682  0  -0.233853  -0.585011  0  2.324542  0
O  O63  1  0.38827028  0.60917408  0.50597143  1  -1.272859  0  -0.243141  -0.612597  0  2.37422  0
O  O64  1  0.75648317  0.53465371  0.46352301  1  -1.424927  0  -0.449531  -0.995427  0  2.205154  0
O  O65  1  0.24573727  0.46369595  0.53234518  1  -1.421543  0  -0.448422  -0.981907  0  2.182493  0
O  O66  1  0.11202826  0.49088791  0.10538422  1  -1.137788  0  -0.340772  -0.428296  0  2.304238  0
O  O67  1  0.90560658  0.50804897  0.88737053  1  -1.131094  0  -0.341883  -0.43026  0  2.307566  0
