# generated using pymatgen
data_CdH14C12(NO2)3
_symmetry_space_group_name_H-M   'P 1'
_cell_length_a   8.83535730
_cell_length_b   10.19963989
_cell_length_c   9.94603472
_cell_angle_alpha   99.67941314
_cell_angle_beta   114.87917965
_cell_angle_gamma   107.45500766
_symmetry_Int_Tables_number   1
_chemical_formula_structural   CdH14C12(NO2)3
_chemical_formula_sum   'Cd2 H28 C24 N6 O12'
_cell_volume   729.44970197
_cell_formula_units_Z   2
loop_
 _symmetry_equiv_pos_site_id
 _symmetry_equiv_pos_as_xyz
  1  'x, y, z'
loop_
 _atom_site_type_symbol
 _atom_site_label
 _atom_site_symmetry_multiplicity
 _atom_site_fract_x
 _atom_site_fract_y
 _atom_site_fract_z
 _atom_site_occupancy
 _atom_site_hle17_bader_spin_density
 _atom_site_hle17_ddec_charge
 _atom_site_hle17_ddec_spin_density
 _atom_site_hle17_ddec_sum_bond_order
 _atom_site_hle17_magmom
 _atom_site_hse06_10hf_bader_spin_density
 _atom_site_hse06_10hf_ddec_charge
 _atom_site_hse06_10hf_ddec_spin_density
 _atom_site_hse06_10hf_ddec_sum_bond_order
 _atom_site_hse06_10hf_magmom
 _atom_site_hse06_bader_spin_density
 _atom_site_hse06_ddec_charge
 _atom_site_hse06_ddec_spin_density
 _atom_site_hse06_ddec_sum_bond_order
 _atom_site_hse06_magmom
 _atom_site_pbe_bader_spin_density
 _atom_site_pbe_cm5_charge
 _atom_site_pbe_ddec_charge
 _atom_site_pbe_ddec_spin_density
 _atom_site_pbe_ddec_sum_bond_order
 _atom_site_pbe_magmom
Cd  Cd0  1  0.68228168  0.90977746  0.25258593  1  0  1.183292  0  1.579947  0  0  1.001183  0  2.010881  0  0  1.060219  0  1.955644  0  0  0.770336  0.956086  0  2.051076  0
Cd  Cd1  1  0.31771800  0.09022588  0.74741106  1  0  1.183253  0  1.579924  0  0  1.001123  0  2.010892  0  0  1.060163  0  1.955652  0  0  0.770306  0.956029  0  2.05109  0
H  H2  1  0.46849010  0.79967956  0.90470657  1  0  0.425825  0  0.882434  0  0  0.389904  0  0.955137  0  0  0.401839  0  0.937915  0  0  0.282151  0.381345  0  0.967448  0
H  H3  1  0.53150581  0.20032373  0.09529000  1  0  0.425743  0  0.882552  0  0  0.389846  0  0.955215  0  0  0.40178  0  0.937996  0  0  0.282149  0.381287  0  0.967525  0
H  H4  1  0.53083092  0.68565021  0.98007678  1  0  0.43005  0  0.822237  0  0  0.406735  0  0.887603  0  0  0.415762  0  0.876995  0  0  0.311398  0.400164  0  0.895316  0
H  H5  1  0.46917400  0.31435868  0.01992812  1  0  0.429986  0  0.822234  0  0  0.406679  0  0.887594  0  0  0.415707  0  0.876986  0  0  0.311367  0.400111  0  0.895305  0
H  H6  1  0.84356197  0.88282156  0.54721282  1  0  0.430603  0  0.859883  0  0  0.401716  0  0.924561  0  0  0.412341  0  0.909149  0  0  0.296731  0.394059  0  0.935699  0
H  H7  1  0.15643097  0.11717085  0.45278186  1  0  0.430602  0  0.859909  0  0  0.40171  0  0.924584  0  0  0.412335  0  0.909171  0  0  0.296742  0.394051  0  0.935725  0
H  H8  1  0.88812267  0.04606261  0.58497564  1  0  0.423894  0  0.886428  0  0  0.388636  0  0.958152  0  0  0.400671  0  0.940832  0  0  0.285062  0.380025  0  0.970605  0
H  H9  1  0.11186666  0.95392758  0.41501732  1  0  0.423857  0  0.886509  0  0  0.388563  0  0.958289  0  0  0.400599  0  0.940968  0  0  0.28503  0.37995  0  0.970744  0
H  H10  1  0.39520272  0.07959712  0.24034371  1  0  0.119286  0  0.923186  0  0  0.131727  0  0.980118  0  0  0.134136  0  0.977257  0  0  0.149331  0.129931  0  0.982125  0
H  H11  1  0.60481028  0.92041299  0.75966747  1  0  0.119236  0  0.923202  0  0  0.131701  0  0.980106  0  0  0.134111  0  0.977243  0  0  0.149297  0.129906  0  0.982116  0
H  H12  1  0.94978598  0.66544633  0.96978748  1  0  0.115725  0  0.903036  0  0  0.130474  0  0.953276  0  0  0.132484  0  0.95172  0  0  0.149933  0.128954  0  0.95457  0
H  H13  1  0.05022328  0.33456362  0.03021119  1  0  0.115695  0  0.90313  0  0  0.13045  0  0.953361  0  0  0.132461  0  0.951803  0  0  0.149926  0.128929  0  0.954655  0
H  H14  1  0.04864639  0.05052616  0.17419646  1  0  0.098183  0  0.938388  0  0  0.110269  0  1.001819  0  0  0.111734  0  1.001208  0  0  0.115678  0.109054  0  1.002629  0
H  H15  1  0.95136153  0.94947622  0.82580450  1  0  0.098101  0  0.938385  0  0  0.110197  0  1.001838  0  0  0.111661  0  1.001229  0  0  0.115636  0.108983  0  1.002648  0
H  H16  1  0.86829989  0.88436717  0.02912427  1  0  0.10428  0  0.94585  0  0  0.116169  0  1.01066  0  0  0.117894  0  1.00926  0  0  0.115402  0.114757  0  1.011896  0
H  H17  1  0.13170951  0.11564070  0.97088316  1  0  0.104235  0  0.945833  0  0  0.116112  0  1.010694  0  0  0.117841  0  1.009294  0  0  0.115355  0.1147  0  1.011926  0
H  H18  1  0.19069323  0.77823400  0.37498827  1  0  0.09761  0  0.958913  0  0  0.110692  0  1.019213  0  0  0.113591  0  1.017626  0  0  0.103999  0.108646  0  1.020367  0
H  H19  1  0.80930733  0.22176606  0.62500450  1  0  0.097638  0  0.958898  0  0  0.110674  0  1.019237  0  0  0.113578  0  1.017648  0  0  0.103985  0.108627  0  1.020391  0
H  H20  1  0.21412805  0.36671686  0.39478982  1  0  0.0965  0  0.960321  0  0  0.107682  0  1.024089  0  0  0.11088  0  1.021998  0  0  0.101748  0.105294  0  1.025591  0
H  H21  1  0.78586924  0.63328440  0.60521900  1  0  0.096471  0  0.960167  0  0  0.107583  0  1.024044  0  0  0.11081  0  1.02191  0  0  0.101694  0.10519  0  1.025558  0
H  H22  1  0.70598966  0.41148459  0.25556417  1  0  0.09141  0  0.979315  0  0  0.100863  0  1.046208  0  0  0.104724  0  1.042433  0  0  0.104247  0.098075  0  1.049124  0
H  H23  1  0.29400585  0.58851550  0.74443776  1  0  0.091304  0  0.979368  0  0  0.100792  0  1.046237  0  0  0.104655  0  1.042458  0  0  0.104224  0.098003  0  1.049154  0
H  H24  1  0.50525577  0.63883962  0.56764942  1  0  0.101821  0  0.946257  0  0  0.124905  0  1.006366  0  0  0.125879  0  1.006187  0  0  0.087927  0.124198  0  1.006498  0
H  H25  1  0.49474311  0.36115726  0.43235227  1  0  0.101813  0  0.946199  0  0  0.124883  0  1.006325  0  0  0.125857  0  1.006145  0  0  0.087927  0.12418  0  1.006453  0
H  H26  1  0.47763316  0.76729879  0.46834609  1  0  0.113773  0  0.963262  0  0  0.13225  0  1.029733  0  0  0.134021  0  1.029109  0  0  0.087726  0.131073  0  1.030089  0
H  H27  1  0.52236628  0.23269916  0.53165497  1  0  0.113744  0  0.96328  0  0  0.132227  0  1.029734  0  0  0.134002  0  1.029107  0  0  0.087721  0.13105  0  1.03009  0
H  H28  1  0.46704976  0.60003468  0.37232612  1  0  0.125077  0  0.945069  0  0  0.147729  0  1.003243  0  0  0.149339  0  1.002668  0  0  0.093835  0.146548  0  1.003694  0
H  H29  1  0.53294786  0.39996219  0.62767709  1  0  0.125052  0  0.945075  0  0  0.147685  0  1.003277  0  0  0.149295  0  1.002702  0  0  0.093846  0.146503  0  1.003729  0
C  C30  1  0.31594676  0.96279056  0.18091983  1  0  0.177585  0  3.621238  0  0  0.112012  0  3.884501  0  0  0.126224  0  3.897203  0  0  0.164555  0.102958  0  3.87511  0
C  C31  1  0.68406640  0.03721737  0.81909005  1  0  0.177701  0  3.621329  0  0  0.112116  0  3.884578  0  0  0.126328  0  3.897281  0  0  0.164594  0.103061  0  3.87519  0
C  C32  1  0.08865793  0.74964821  0.04121344  1  0  0.147065  0  3.646396  0  0  0.087509  0  3.92755  0  0  0.09782  0  3.940226  0  0  0.157067  0.080222  0  3.919864  0
C  C33  1  0.91135454  0.25036078  0.95879433  1  0  0.147223  0  3.646458  0  0  0.087684  0  3.927567  0  0  0.097994  0  3.940241  0  0  0.157153  0.080393  0  3.919885  0
C  C34  1  0.00364037  0.96653678  0.06420274  1  0  -0.032417  0  3.601452  0  0  -0.09677  0  3.861875  0  0  -0.09349  0  3.872215  0  0  -0.053805  -0.098804  0  3.854777  0
C  C35  1  0.99636849  0.03346996  0.93580029  1  0  -0.032242  0  3.601391  0  0  -0.096668  0  3.861887  0  0  -0.093402  0  3.872244  0  0  -0.053743  -0.098706  0  3.85479  0
C  C36  1  0.82394552  0.69006308  0.27299828  1  0  0.639624  0  3.919179  0  0  0.589335  0  4.206206  0  0  0.623433  0  4.200935  0  0  0.196618  0.56606  0  4.208931  0
C  C37  1  0.17605065  0.30992826  0.72699444  1  0  0.639515  0  3.919622  0  0  0.589194  0  4.20669  0  0  0.623289  0  4.201426  0  0  0.196546  0.565919  0  4.209411  0
C  C38  1  0.93507481  0.60210936  0.30700538  1  0  -0.067838  0  3.780982  0  0  -0.042439  0  4.020776  0  0  -0.051624  0  4.043979  0  0  -0.024108  -0.036464  0  4.005438  0
C  C39  1  0.06492424  0.39788531  0.69299299  1  0  -0.067796  0  3.781152  0  0  -0.042379  0  4.02094  0  0  -0.051562  0  4.044146  0  0  -0.024102  -0.036404  0  4.005604  0
C  C40  1  0.12297127  0.66362675  0.35880668  1  0  -0.105516  0  3.671812  0  0  -0.143047  0  3.917801  0  0  -0.14189  0  3.93752  0  0  -0.080293  -0.143007  0  3.904349  0
C  C41  1  0.87702801  0.33637337  0.64119467  1  0  -0.105567  0  3.67192  0  0  -0.143043  0  3.917851  0  0  -0.141892  0  3.93757  0  0  -0.080285  -0.143005  0  3.904406  0
C  C42  1  0.22690348  0.58135242  0.39233339  1  0  0.141849  0  3.745639  0  0  0.172909  0  3.984354  0  0  0.171084  0  4.009623  0  0  -0.007921  0.173734  0  3.967164  0
C  C43  1  0.77309681  0.41864233  0.60767150  1  0  0.141839  0  3.745711  0  0  0.172913  0  3.984375  0  0  0.171083  0  4.009657  0  0  -0.007891  0.17374  0  3.967183  0
C  C44  1  0.13715968  0.43384785  0.36941869  1  0  -0.115636  0  3.677376  0  0  -0.150406  0  3.923465  0  0  -0.149655  0  3.942993  0  0  -0.080666  -0.149696  0  3.909713  0
C  C45  1  0.86283992  0.56614796  0.63058409  1  0  -0.115532  0  3.677147  0  0  -0.150283  0  3.923176  0  0  -0.149545  0  3.942697  0  0  -0.08063  -0.149571  0  3.909421  0
C  C46  1  0.94901453  0.37033368  0.31675830  1  0  -0.080455  0  3.809955  0  0  -0.055122  0  4.050252  0  0  -0.064908  0  4.075353  0  0  -0.025373  -0.049387  0  4.034626  0
C  C47  1  0.05098347  0.62966649  0.68324861  1  0  -0.08058  0  3.810039  0  0  -0.055132  0  4.050204  0  0  -0.064923  0  4.075316  0  0  -0.025339  -0.049395  0  4.034576  0
C  C48  1  0.84972487  0.45595645  0.28856984  1  0  -0.065423  0  3.727404  0  0  -0.106392  0  3.977555  0  0  -0.104044  0  3.997609  0  0  -0.077997  -0.107787  0  3.96496  0
C  C49  1  0.15027290  0.54403832  0.71143912  1  0  -0.065263  0  3.727449  0  0  -0.106324  0  3.977604  0  0  -0.103978  0  3.99766  0  0  -0.078033  -0.107719  0  3.96501  0
C  C50  1  0.85459583  0.21283127  0.29091240  1  0  0.65159  0  3.910939  0  0  0.598096  0  4.203067  0  0  0.632464  0  4.197438  0  0  0.202235  0.574355  0  4.206915  0
C  C51  1  0.14539536  0.78716765  0.70908468  1  0  0.651482  0  3.911107  0  0  0.597986  0  4.203186  0  0  0.632353  0  4.197558  0  0  0.202261  0.574243  0  4.207029  0
C  C52  1  0.42957661  0.65066309  0.45320947  1  0  -0.343696  0  3.718557  0  0  -0.427009  0  3.953784  0  0  -0.429265  0  3.964298  0  0  -0.244279  -0.425218  0  3.946527  0
C  C53  1  0.57042354  0.34933380  0.54679269  1  0  -0.343605  0  3.718561  0  0  -0.426898  0  3.953775  0  0  -0.42915  0  3.964273  0  0  -0.244282  -0.425111  0  3.946509  0
N  N54  1  0.38299040  0.86314484  0.17772342  1  0  -0.293549  0  3.206071  0  0  -0.223586  0  3.502378  0  0  -0.243567  0  3.520095  0  0  -0.245841  -0.209346  0  3.489271  0
N  N55  1  0.61701956  0.13686410  0.82228139  1  0  -0.293619  0  3.206049  0  0  -0.223663  0  3.502383  0  0  -0.243644  0  3.520099  0  0  -0.245851  -0.209421  0  3.489277  0
N  N56  1  0.23935646  0.72724647  0.08912115  1  0  -0.213882  0  2.917063  0  0  -0.201931  0  3.200247  0  0  -0.208486  0  3.216249  0  0  -0.226852  -0.19759  0  3.189707  0
N  N57  1  0.76065687  0.27275925  0.91088341  1  0  -0.213924  0  2.917212  0  0  -0.201986  0  3.200402  0  0  -0.208541  0  3.216403  0  0  -0.226912  -0.197645  0  3.189861  0
N  N58  1  0.12991538  0.89575994  0.09553288  1  0  -0.076229  0  3.527611  0  0  0.018184  0  3.754994  0  0  0.002313  0  3.778618  0  0  -0.229496  0.028829  0  3.738816  0
N  N59  1  0.87009723  0.10424691  0.90447762  1  0  -0.076327  0  3.527887  0  0  0.01811  0  3.755257  0  0  0.002239  0  3.778883  0  0  -0.229476  0.028756  0  3.739079  0
O  O60  1  0.65571776  0.63414138  0.22980119  1  0  -0.63017  0  1.873036  0  0  -0.576178  0  2.08843  0  0  -0.600927  0  2.078771  0  0  -0.332122  -0.558242  0  2.09416  0
O  O61  1  0.34426940  0.36583653  0.77015679  1  0  -0.630177  0  1.873329  0  0  -0.576125  0  2.088667  0  0  -0.600876  0  2.079015  0  0  -0.332058  -0.558189  0  2.094393  0
O  O62  1  0.90757418  0.82470446  0.28873974  1  0  -0.68742  0  2.09461  0  0  -0.607972  0  2.337709  0  0  -0.639963  0  2.329318  0  0  -0.333433  -0.584645  0  2.344153  0
O  O63  1  0.09242401  0.17529345  0.71125782  1  0  -0.687347  0  2.094746  0  0  -0.607934  0  2.337888  0  0  -0.639923  0  2.329501  0  0  -0.333427  -0.58461  0  2.344331  0
O  O64  1  0.67904181  0.15105505  0.22034009  1  0  -0.664664  0  1.998033  0  0  -0.594307  0  2.229824  0  0  -0.624138  0  2.221217  0  0  -0.321983  -0.572677  0  2.234963  0
O  O65  1  0.32095228  0.84894720  0.77966265  1  0  -0.664622  0  1.998076  0  0  -0.594271  0  2.22987  0  0  -0.624104  0  2.221264  0  0  -0.321986  -0.572637  0  2.235008  0
O  O66  1  0.94883227  0.13988499  0.33793444  1  0  -0.662991  0  2.032439  0  0  -0.593573  0  2.271565  0  0  -0.621993  0  2.26173  0  0  -0.320815  -0.572788  0  2.279222  0
O  O67  1  0.05115100  0.86011054  0.66205709  1  0  -0.662954  0  2.032409  0  0  -0.593531  0  2.271487  0  0  -0.621958  0  2.261672  0  0  -0.320842  -0.572766  0  2.279199  0
O  O68  1  0.57672150  0.78607849  0.98141801  1  0  -0.834214  0  1.855039  0  0  -0.777651  0  2.053591  0  0  -0.799017  0  2.02252  0  0  -0.577652  -0.762373  0  2.075551  0
O  O69  1  0.42327731  0.21392807  0.01857716  1  0  -0.834074  0  1.855141  0  0  -0.777513  0  2.053662  0  0  -0.798883  0  2.022594  0  0  -0.57761  -0.76224  0  2.075617  0
O  O70  1  0.78099524  0.94808430  0.51980817  1  0  -0.840934  0  1.84307  0  0  -0.782571  0  2.047468  0  0  -0.805853  0  2.012982  0  0  -0.593326  -0.766298  0  2.071957  0
O  O71  1  0.21898978  0.05190473  0.48018196  1  0  -0.840869  0  1.843097  0  0  -0.782504  0  2.047519  0  0  -0.805789  0  2.013034  0  0  -0.593312  -0.766236  0  2.072024  0
