# generated using pymatgen
data_Cu2H7C10SBrN2
_symmetry_space_group_name_H-M   'P 1'
_cell_length_a   8.09744153
_cell_length_b   9.34834457
_cell_length_c   14.65004324
_cell_angle_alpha   89.31717034
_cell_angle_beta   77.58611961
_cell_angle_gamma   86.96990021
_symmetry_Int_Tables_number   1
_chemical_formula_structural   Cu2H7C10SBrN2
_chemical_formula_sum   'Cu8 H28 C40 S4 Br4 N8'
_cell_volume   1081.53224820
_cell_formula_units_Z   4
loop_
 _symmetry_equiv_pos_site_id
 _symmetry_equiv_pos_as_xyz
  1  'x, y, z'
loop_
 _atom_site_type_symbol
 _atom_site_label
 _atom_site_symmetry_multiplicity
 _atom_site_fract_x
 _atom_site_fract_y
 _atom_site_fract_z
 _atom_site_occupancy
 _atom_site_pbe_bader_spin_density
 _atom_site_pbe_cm5_charge
 _atom_site_pbe_ddec_charge
 _atom_site_pbe_ddec_spin_density
 _atom_site_pbe_ddec_sum_bond_order
 _atom_site_pbe_magmom
Cu  Cu0  1  0.96376284  0.58579149  0.44185755  1  0  0.372022  0.221488  0  2.678878  0
Cu  Cu1  1  0.03623796  0.41421112  0.55814513  1  0  0.371987  0.221426  0  2.678848  0
Cu  Cu2  1  0.29096041  0.30174489  0.43441276  1  0  0.338555  0.288215  0  2.534024  0
Cu  Cu3  1  0.70903619  0.69826195  0.56558630  1  0  0.338555  0.288226  0  2.53404  0
Cu  Cu4  1  0.99262803  0.18215762  0.40175764  1  0  0.364278  0.289375  0  2.621738  0
Cu  Cu5  1  0.00737382  0.81784604  0.59824011  1  0  0.364254  0.289374  0  2.621804  0
Cu  Cu6  1  0.68037278  0.09035287  0.48329313  1  0  0.354323  0.286812  0  2.572881  0
Cu  Cu7  1  0.31962258  0.90965179  0.51670202  1  0  0.354355  0.286875  0  2.572792  0
H  H8  1  0.58375694  0.85619243  0.34482314  1  0  0.098013  0.086413  0  1.07035  0
H  H9  1  0.41624754  0.14381126  0.65517769  1  0  0.098014  0.086378  0  1.070313  0
H  H10  1  0.57569550  0.39767033  0.30647839  1  0  0.104075  0.093488  0  1.041988  0
H  H11  1  0.42430503  0.60233439  0.69352019  1  0  0.104044  0.093438  0  1.041996  0
H  H12  1  0.68247345  0.85992720  0.19911343  1  0  0.094684  0.094538  0  1.041027  0
H  H13  1  0.31753110  0.14007433  0.80088469  1  0  0.094684  0.094504  0  1.041019  0
H  H14  1  0.91554634  0.87632778  0.06005821  1  0  0.096581  0.090655  0  1.023986  0
H  H15  1  0.08445839  0.12367053  0.93993854  1  0  0.096609  0.09068  0  1.023889  0
H  H16  1  0.11047743  0.66428172  0.00766052  1  0  0.099188  0.098315  0  1.018454  0
H  H17  1  0.88952256  0.33571228  0.99233757  1  0  0.0992  0.098353  0  1.018368  0
H  H18  1  0.07163068  0.43588187  0.09731999  1  0  0.09534  0.096254  0  1.01931  0
H  H19  1  0.92836781  0.56411642  0.90268029  1  0  0.09533  0.096256  0  1.019316  0
H  H20  1  0.84034219  0.41808116  0.23590890  1  0  0.092472  0.103427  0  1.030409  0
H  H21  1  0.15965861  0.58192145  0.76409377  1  0  0.092465  0.10343  0  1.030421  0
H  H22  1  0.81226845  0.38566354  0.75058919  1  0  0.106185  0.089618  0  1.048091  0
H  H23  1  0.18771976  0.61433683  0.24941169  1  0  0.106128  0.089469  0  1.048311  0
H  H24  1  0.82724176  0.92349660  0.78387941  1  0  0.107062  0.09131  0  1.038338  0
H  H25  1  0.17276567  0.07650068  0.21612043  1  0  0.107071  0.091336  0  1.03835  0
H  H26  1  0.55694212  0.36491626  0.84925064  1  0  0.096825  0.096523  0  1.029354  0
H  H27  1  0.44305537  0.63507991  0.15075389  1  0  0.09686  0.096558  0  1.029323  0
H  H28  1  0.39335296  0.39947674  0.01088185  1  0  0.09958  0.100656  0  1.006259  0
H  H29  1  0.60664707  0.60051944  0.98912303  1  0  0.099594  0.10073  0  1.006246  0
H  H30  1  0.44622304  0.23486958  0.13783487  1  0  0.082261  0.092082  0  1.062397  0
H  H31  1  0.55378097  0.76512341  0.86216818  1  0  0.082269  0.092109  0  1.062363  0
H  H32  1  0.65468984  0.02776394  0.09932306  1  0  0.095919  0.094078  0  1.030205  0
H  H33  1  0.34532018  0.97223337  0.90067850  1  0  0.095945  0.094098  0  1.030201  0
H  H34  1  0.81374297  0.98801969  0.93631948  1  0  0.098168  0.091405  0  1.023242  0
H  H35  1  0.18626074  0.01197650  0.06368085  1  0  0.098161  0.091396  0  1.023286  0
C  C36  1  0.33542733  0.61705319  0.45808864  1  0  0.213211  0.35237  0  3.968819  0
C  C37  1  0.66457326  0.38295045  0.54190927  1  0  0.213181  0.352333  0  3.968778  0
C  C38  1  0.53467377  0.75033310  0.36093273  1  0  0.051674  0.082681  0  3.885205  0
C  C39  1  0.46533067  0.24967058  0.63906673  1  0  0.051663  0.082709  0  3.885262  0
C  C40  1  0.60393412  0.62855292  0.30936356  1  0  -0.011992  -0.026962  0  4.014227  0
C  C41  1  0.39606772  0.37145182  0.69063623  1  0  -0.012037  -0.027146  0  4.014281  0
C  C42  1  0.53112855  0.49960982  0.34091796  1  0  0.051469  0.090212  0  3.864723  0
C  C43  1  0.46887332  0.50039383  0.65908047  1  0  0.051552  0.090425  0  3.864634  0
C  C44  1  0.74307784  0.63730935  0.22701181  1  0  -0.016316  0.064577  0  4.025476  0
C  C45  1  0.25692801  0.36269220  0.77298750  1  0  -0.016317  0.064593  0  4.025405  0
C  C46  1  0.76774723  0.76663762  0.17697250  1  0  -0.094761  -0.132824  0  3.974852  0
C  C47  1  0.23225741  0.23336284  0.82302630  1  0  -0.09469  -0.132681  0  3.974785  0
C  C48  1  0.89784082  0.77549038  0.09818503  1  0  -0.096507  -0.085502  0  4.032399  0
C  C49  1  0.10216378  0.22451008  0.90181240  1  0  -0.096573  -0.085569  0  4.032345  0
C  C50  1  0.00691423  0.65646639  0.06842462  1  0  -0.09124  -0.083152  0  4.009211  0
C  C51  1  0.99308932  0.34353193  0.93157502  1  0  -0.091272  -0.083255  0  4.009096  0
C  C52  1  0.98463896  0.52836258  0.11830906  1  0  -0.093501  -0.076712  0  4.01706  0
C  C53  1  0.01536196  0.47163679  0.88169022  1  0  -0.093518  -0.07672  0  4.017077  0
C  C54  1  0.85309184  0.51809861  0.19658481  1  0  -0.092868  -0.124396  0  3.94974  0
C  C55  1  0.14691016  0.48190399  0.80341566  1  0  -0.092841  -0.1244  0  3.949719  0
C  C56  1  0.02603317  0.12863552  0.61751329  1  0  0.216388  0.356756  0  3.959076  0
C  C57  1  0.97396116  0.87136810  0.38248746  1  0  0.216298  0.356622  0  3.959008  0
C  C58  1  0.85486402  0.27577776  0.72983194  1  0  0.06101  0.096945  0  3.84693  0
C  C59  1  0.14512670  0.72422261  0.27016794  1  0  0.06111  0.097172  0  3.846928  0
C  C60  1  0.80400347  0.15741422  0.78640897  1  0  -0.005731  -0.019997  0  3.991682  0
C  C61  1  0.19599378  0.84258406  0.21359215  1  0  -0.005717  -0.020016  0  3.991685  0
C  C62  1  0.86663628  0.02344111  0.74850406  1  0  0.060975  0.094713  0  3.843097  0
C  C63  1  0.13336453  0.97656041  0.25149658  1  0  0.060955  0.094649  0  3.84318  0
C  C64  1  0.69771988  0.17409761  0.88102806  1  0  -0.012377  0.06008  0  4.031712  0
C  C65  1  0.30227980  0.82590175  0.11897206  1  0  -0.012389  0.060104  0  4.031817  0
C  C66  1  0.57906400  0.29026802  0.90362982  1  0  -0.090858  -0.131628  0  3.974227  0
C  C67  1  0.42093071  0.70973242  0.09637639  1  0  -0.090905  -0.131672  0  3.974121  0
C  C68  1  0.48759696  0.31048210  0.99510014  1  0  -0.091123  -0.075738  0  4.006845  0
C  C69  1  0.51240185  0.68951300  0.00490355  1  0  -0.091147  -0.075841  0  4.006852  0
C  C70  1  0.51626308  0.21758805  0.06609709  1  0  -0.09499  -0.083758  0  3.991524  0
C  C71  1  0.48373967  0.78240493  0.93390613  1  0  -0.094994  -0.083861  0  3.991553  0
C  C72  1  0.63352189  0.10135617  0.04423412  1  0  -0.092593  -0.075113  0  4.012382  0
C  C73  1  0.36648571  0.89863897  0.95576640  1  0  -0.092556  -0.074936  0  4.01203  0
C  C74  1  0.72162561  0.07850412  0.95253425  1  0  -0.088708  -0.130829  0  3.986703  0
C  C75  1  0.27837420  0.92149310  0.04746519  1  0  -0.088728  -0.130917  0  3.986698  0
S  S76  1  0.16311223  0.61589651  0.55190037  1  0  -0.243037  -0.345537  0  3.632156  0
S  S77  1  0.83688834  0.38410713  0.44809686  1  0  -0.243055  -0.345511  0  3.631981  0
S  S78  1  0.17198315  0.11247745  0.51159433  1  0  -0.261634  -0.386901  0  3.771695  0
S  S79  1  0.82801109  0.88752724  0.48840574  1  0  -0.261618  -0.386877  0  3.771694  0
Br  Br80  1  0.18278485  0.33544915  0.27886335  1  0  -0.24951  -0.414529  0  1.549482  0
Br  Br81  1  0.81722326  0.66455562  0.72113427  1  0  -0.249519  -0.414547  0  1.549486  0
Br  Br82  1  0.54607926  0.12610060  0.35011890  1  0  -0.257657  -0.39827  0  1.615972  0
Br  Br83  1  0.45390748  0.87388367  0.64988030  1  0  -0.257672  -0.398258  0  1.615913  0
N  N84  1  0.40210335  0.74555339  0.43362915  1  0  -0.374789  -0.263272  0  3.64862  0
N  N85  1  0.59789599  0.25445025  0.56636960  1  0  -0.374721  -0.263158  0  3.648677  0
N  N86  1  0.39890278  0.49272786  0.41425791  1  0  -0.35942  -0.256362  0  3.577491  0
N  N87  1  0.60110035  0.50727580  0.58574036  1  0  -0.359469  -0.256543  0  3.577614  0
N  N88  1  0.96467960  0.26151476  0.64720973  1  0  -0.374031  -0.240178  0  3.625759  0
N  N89  1  0.03531101  0.73848777  0.35279151  1  0  -0.37405  -0.240251  0  3.625783  0
N  N90  1  0.97406623  0.00806000  0.66499594  1  0  -0.356581  -0.251259  0  3.581503  0
N  N91  1  0.02593317  0.99194366  0.33500485  1  0  -0.35653  -0.251149  0  3.581336  0
