# generated using pymatgen
data_Sr2H18C8O15
_symmetry_space_group_name_H-M   'P 1'
_cell_length_a   6.43736087
_cell_length_b   7.81477455
_cell_length_c   8.92157273
_cell_angle_alpha   72.88200034
_cell_angle_beta   75.16644635
_cell_angle_gamma   86.23966006
_symmetry_Int_Tables_number   1
_chemical_formula_structural   Sr2H18C8O15
_chemical_formula_sum   'Sr2 H18 C8 O15'
_cell_volume   414.61323611
_cell_formula_units_Z   1
loop_
 _symmetry_equiv_pos_site_id
 _symmetry_equiv_pos_as_xyz
  1  'x, y, z'
loop_
 _atom_site_type_symbol
 _atom_site_label
 _atom_site_symmetry_multiplicity
 _atom_site_fract_x
 _atom_site_fract_y
 _atom_site_fract_z
 _atom_site_occupancy
 _atom_site_hle17_bader_spin_density
 _atom_site_hle17_ddec_charge
 _atom_site_hle17_ddec_spin_density
 _atom_site_hle17_ddec_sum_bond_order
 _atom_site_hle17_magmom
 _atom_site_hse06_10hf_bader_spin_density
 _atom_site_hse06_10hf_ddec_charge
 _atom_site_hse06_10hf_ddec_spin_density
 _atom_site_hse06_10hf_ddec_sum_bond_order
 _atom_site_hse06_10hf_magmom
 _atom_site_hse06_bader_spin_density
 _atom_site_hse06_ddec_charge
 _atom_site_hse06_ddec_spin_density
 _atom_site_hse06_ddec_sum_bond_order
 _atom_site_hse06_magmom
 _atom_site_pbe_bader_spin_density
 _atom_site_pbe_cm5_charge
 _atom_site_pbe_ddec_charge
 _atom_site_pbe_ddec_spin_density
 _atom_site_pbe_ddec_sum_bond_order
 _atom_site_pbe_magmom
Sr  Sr0  1  0.20568186  0.11837316  0.58861887  1  0  1.601814  0  1.088539  0  0  1.449336  0  1.460733  0  0  1.488382  0  1.415407  0  0  0.941272  1.420482  0  1.493929  0
Sr  Sr1  1  0.16518030  0.46117110  0.10484233  1  0  1.609403  0  1.077255  0  0  1.457596  0  1.449971  0  0  1.495218  0  1.405514  0  0  0.91472  1.428966  0  1.482227  0
H  H2  1  0.79209856  0.65044589  0.73743050  1  0  0.054071  0  0.93079  0  0  0.063829  0  0.995453  0  0  0.065832  0  0.99364  0  0  0.115969  0.062433  0  0.996628  0
H  H3  1  0.97451294  0.76747289  0.36809612  1  0  0.122069  0  0.915868  0  0  0.135883  0  0.974101  0  0  0.138846  0  0.972018  0  0  0.111812  0.133645  0  0.975516  0
H  H4  1  0.73563045  0.63793376  0.47376531  1  0  0.124941  0  0.917405  0  0  0.140261  0  0.975024  0  0  0.143168  0  0.97318  0  0  0.11389  0.138227  0  0.976264  0
H  H5  1  0.42270013  0.81430251  0.30390166  1  0  0.13059  0  0.91253  0  0  0.144584  0  0.971626  0  0  0.147549  0  0.969723  0  0  0.115074  0.142465  0  0.972764  0
H  H6  1  0.66938371  0.92767763  0.19655977  1  0  0.120622  0  0.923207  0  0  0.136806  0  0.980204  0  0  0.139486  0  0.978642  0  0  0.112149  0.134984  0  0.98118  0
H  H7  1  0.58522499  0.93133960  0.93346640  1  0  0.044678  0  0.933686  0  0  0.054901  0  0.997723  0  0  0.056626  0  0.995991  0  0  0.1137  0.053758  0  0.998692  0
H  H8  1  0.60928525  0.22055633  0.66863666  1  0  0.422855  0  0.871877  0  0  0.389456  0  0.942045  0  0  0.400066  0  0.926425  0  0  0.30539  0.381702  0  0.953545  0
H  H9  1  0.43919287  0.20829971  0.83578621  1  0  0.436777  0  0.865268  0  0  0.403641  0  0.932691  0  0  0.415027  0  0.916063  0  0  0.303876  0.395594  0  0.944405  0
H  H10  1  0.97700418  0.10905271  0.94842505  1  0  0.4352  0  0.860586  0  0  0.404611  0  0.923114  0  0  0.415471  0  0.907265  0  0  0.301048  0.396818  0  0.934523  0
H  H11  1  0.94731834  0.90030140  0.95445621  1  0  0.415252  0  0.898038  0  0  0.381479  0  0.967289  0  0  0.392809  0  0.950913  0  0  0.29577  0.373291  0  0.97911  0
H  H12  1  0.14909364  0.69344178  0.68953706  1  0  0.387346  0  0.90454  0  0  0.362724  0  0.973606  0  0  0.373818  0  0.961084  0  0  0.307218  0.354787  0  0.982619  0
H  H13  1  0.22743144  0.89317982  0.99346443  1  0  0.383545  0  0.908013  0  0  0.357914  0  0.980399  0  0  0.369123  0  0.967414  0  0  0.305186  0.349846  0  0.989792  0
H  H14  1  0.67100445  0.34999507  0.26565060  1  0  0.424086  0  0.865965  0  0  0.396632  0  0.926419  0  0  0.406275  0  0.912206  0  0  0.31165  0.389707  0  0.936703  0
H  H15  1  0.78053739  0.22948710  0.40405953  1  0  0.419272  0  0.88806  0  0  0.389658  0  0.94937  0  0  0.400168  0  0.933961  0  0  0.302209  0.382108  0  0.960545  0
H  H16  1  0.93140753  0.36777976  0.84452345  1  0  0.427799  0  0.880255  0  0  0.396378  0  0.945283  0  0  0.407401  0  0.929167  0  0  0.298127  0.388176  0  0.95732  0
H  H17  1  0.77495048  0.37217928  0.01140991  1  0  0.410742  0  0.899101  0  0  0.378076  0  0.966993  0  0  0.38899  0  0.950959  0  0  0.296726  0.370269  0  0.978491  0
H  H18  1  0.39243773  0.47161991  0.73530455  1  0  0.426555  0  0.869974  0  0  0.398159  0  0.928899  0  0  0.40881  0  0.91333  0  0  0.301562  0.390541  0  0.940088  0
H  H19  1  0.42801420  0.67741148  0.72589550  1  0  0.415165  0  0.892994  0  0  0.38251  0  0.96053  0  0  0.393532  0  0.944528  0  0  0.299111  0.374596  0  0.972053  0
C  C20  1  0.72578134  0.91545703  0.60692599  1  0  0.652977  0  3.842173  0  0  0.59859  0  4.149252  0  0  0.630969  0  4.141884  0  0  0.229819  0.576788  0  4.152761  0
C  C21  1  0.87030444  0.75134084  0.62433806  1  0  0.140896  0  3.665032  0  0  0.113169  0  3.92572  0  0  0.116141  0  3.932606  0  0  0.001359  0.110875  0  3.920779  0
C  C22  1  0.89455518  0.67139905  0.48305412  1  0  -0.324591  0  3.640564  0  0  -0.369408  0  3.894562  0  0  -0.374809  0  3.899041  0  0  -0.15892  -0.365471  0  3.891215  0
C  C23  1  0.02198812  0.49844059  0.51014665  1  0  0.730964  0  3.854308  0  0  0.683649  0  4.153406  0  0  0.717006  0  4.145328  0  0  0.21516  0.660677  0  4.158795  0
C  C24  1  0.39368206  0.08832035  0.16990931  1  0  0.744337  0  3.836579  0  0  0.696144  0  4.135759  0  0  0.729771  0  4.126751  0  0  0.223057  0.673195  0  4.141122  0
C  C25  1  0.50516326  0.90825541  0.18825780  1  0  -0.329751  0  3.653077  0  0  -0.374917  0  3.904814  0  0  -0.380386  0  3.90947  0  0  -0.15976  -0.371068  0  3.901353  0
C  C26  1  0.51142311  0.83077724  0.04832450  1  0  0.144842  0  3.677143  0  0  0.120026  0  3.932614  0  0  0.123231  0  3.939721  0  0  0.001679  0.117452  0  3.927747  0
C  C27  1  0.65522178  0.66609338  0.05773361  1  0  0.65299  0  3.831378  0  0  0.599182  0  4.134784  0  0  0.631201  0  4.128446  0  0  0.230147  0.577546  0  4.137854  0
O  O28  1  0.46256620  0.25647557  0.71512331  1  0  -0.875234  0  1.827765  0  0  -0.813533  0  2.005759  0  0  -0.834275  0  1.972649  0  0  -0.60219  -0.799161  0  2.029755  0
O  O29  1  0.04153627  0.01033953  0.90197079  1  0  -0.879878  0  1.87168  0  0  -0.818129  0  2.058009  0  0  -0.839575  0  2.025592  0  0  -0.610042  -0.803025  0  2.081423  0
O  O30  1  0.81184532  0.06891340  0.57553090  1  0  -0.691782  0  2.046227  0  0  -0.619471  0  2.275645  0  0  -0.645617  0  2.264628  0  0  -0.337276  -0.601108  0  2.282774  0
O  O31  1  0.52741867  0.88968647  0.62464933  1  0  -0.670549  0  1.996017  0  0  -0.609584  0  2.23524  0  0  -0.636161  0  2.225753  0  0  -0.33606  -0.590928  0  2.2403  0
O  O32  1  0.07436847  0.80052860  0.63321168  1  0  -0.624643  0  2.135481  0  0  -0.566613  0  2.374263  0  0  -0.584116  0  2.361963  0  0  -0.444973  -0.55388  0  2.382655  0
O  O33  1  0.32996093  0.14401970  0.29436513  1  0  -0.758407  0  1.959676  0  0  -0.696206  0  2.210478  0  0  -0.722605  0  2.198343  0  0  -0.399956  -0.676902  0  2.218161  0
O  O34  1  0.36762928  0.17984754  0.03216414  1  0  -0.699009  0  1.991876  0  0  -0.628372  0  2.219267  0  0  -0.655152  0  2.208797  0  0  -0.347917  -0.609183  0  2.225878  0
O  O35  1  0.85404452  0.69283598  0.04036277  1  0  -0.672743  0  1.998919  0  0  -0.608793  0  2.234476  0  0  -0.63597  0  2.226182  0  0  -0.340343  -0.589578  0  2.238589  0
O  O36  1  0.57115687  0.51472366  0.08083923  1  0  -0.675527  0  2.034362  0  0  -0.607923  0  2.266344  0  0  -0.633321  0  2.255861  0  0  -0.335206  -0.590154  0  2.273189  0
O  O37  1  0.30197270  0.78516809  0.04750086  1  0  -0.620726  0  2.138876  0  0  -0.566174  0  2.378085  0  0  -0.583162  0  2.365505  0  0  -0.438575  -0.553734  0  2.386713  0
O  O38  1  0.16358641  0.46684755  0.39380127  1  0  -0.724008  0  1.945944  0  0  -0.663302  0  2.186797  0  0  -0.68964  0  2.177114  0  0  -0.377603  -0.644725  0  2.193839  0
O  O39  1  0.97864192  0.38711367  0.65173784  1  0  -0.717087  0  1.997143  0  0  -0.648407  0  2.22908  0  0  -0.675253  0  2.218378  0  0  -0.368468  -0.629424  0  2.23676  0
O  O40  1  0.80029379  0.33368584  0.30659656  1  0  -0.883156  0  1.816322  0  0  -0.827299  0  1.987489  0  0  -0.846706  0  1.957524  0  0  -0.618715  -0.81346  0  2.008991  0
O  O41  1  0.91442182  0.32280581  0.96423425  1  0  -0.877582  0  1.85437  0  0  -0.819392  0  2.031481  0  0  -0.840043  0  1.9994  0  0  -0.601706  -0.804214  0  2.054766  0
O  O42  1  0.32860548  0.57177100  0.77928435  1  0  -0.855116  0  1.875499  0  0  -0.797671  0  2.053439  0  0  -0.818123  0  2.021846  0  0  -0.58997  -0.782914  0  2.075926  0
