# generated using pymatgen
data_CoH14C17O6
_symmetry_space_group_name_H-M   'P 1'
_cell_length_a   10.04032358
_cell_length_b   13.69327579
_cell_length_c   14.13746832
_cell_angle_alpha   61.03367161
_cell_angle_beta   83.38963583
_cell_angle_gamma   76.24874912
_symmetry_Int_Tables_number   1
_chemical_formula_structural   CoH14C17O6
_chemical_formula_sum   'Co4 H56 C68 O24'
_cell_volume   1651.79909216
_cell_formula_units_Z   4
loop_
 _symmetry_equiv_pos_site_id
 _symmetry_equiv_pos_as_xyz
  1  'x, y, z'
loop_
 _atom_site_type_symbol
 _atom_site_label
 _atom_site_symmetry_multiplicity
 _atom_site_fract_x
 _atom_site_fract_y
 _atom_site_fract_z
 _atom_site_occupancy
 _atom_site_pbe_bader_charge
 _atom_site_pbe_bader_spin_density
 _atom_site_pbe_cm5_charge
 _atom_site_pbe_ddec_charge
 _atom_site_pbe_ddec_spin_density
 _atom_site_pbe_ddec_sum_bond_order
 _atom_site_pbe_magmom
Co  Co0  1  0.74999000  0.42466201  0.15067393  1  1.24781  2.577681  0.656719  0.926313  2.754344  2.535712  2.526
Co  Co1  1  0.25000982  0.57533556  0.84932543  1  1.247934  2.577685  0.656804  0.926484  2.754351  2.535679  2.526
Co  Co2  1  0.50000118  0.49999893  0.00000108  1  1.333094  2.61844  0.650557  1.028517  2.836569  2.318994  2.602
Co  Co3  1  0.99999966  0.49999997  0.00000000  1  1.335088  2.61825  0.650458  1.0284  2.836508  2.318888  2.602
H  H4  1  0.70935858  0.31200258  0.84460948  1  0.072264  0.000192  0.10771  0.106996  4e-05  1.000431  0.0
H  H5  1  0.79062927  0.84338251  0.84461812  1  0.076053  0.000194  0.107674  0.106987  3.9e-05  1.000391  0.0
H  H6  1  0.29064323  0.68799340  0.15539148  1  0.072184  0.000192  0.107725  0.107093  4e-05  1.000394  0.0
H  H7  1  0.20936580  0.15661714  0.15537828  1  0.076062  0.000194  0.107677  0.10699  3.9e-05  1.00038  0.0
H  H8  1  0.83252807  0.17581924  0.77996113  1  0.03241  0.000116  0.100095  0.107104  4.3e-05  1.032359  0.0
H  H9  1  0.66745458  0.04421400  0.77996858  1  0.068212  0.000112  0.100012  0.106939  4.3e-05  1.032352  0.0
H  H10  1  0.16747266  0.82417116  0.22004537  1  0.03248  0.000116  0.100107  0.107136  4.3e-05  1.032338  0.0
H  H11  1  0.33254513  0.95578512  0.22003350  1  0.068163  0.000112  0.100024  0.106932  4.3e-05  1.032414  0.0
H  H12  1  0.27496557  0.27684385  0.23299393  1  0.11104  0.000211  0.105347  0.112991  -3.3e-05  1.017395  0.0
H  H13  1  0.22507469  0.49015103  0.23299903  1  0.108007  0.000211  0.105411  0.113192  -3.3e-05  1.017133  0.0
H  H14  1  0.72503228  0.72315602  0.76700313  1  0.111082  0.000211  0.105346  0.112979  -3.3e-05  1.01747  0.0
H  H15  1  0.77492987  0.50985309  0.76699896  1  0.107875  0.000211  0.105429  0.113226  -3.3e-05  1.017111  0.0
H  H16  1  0.60481363  0.18883208  0.44701159  1  0.064091  0.000379  0.105681  0.110479  8.8e-05  0.986412  0.0
H  H17  1  0.89519715  0.36416736  0.44698546  1  0.071623  0.000378  0.105636  0.110356  8.8e-05  0.986682  0.0
H  H18  1  0.39518619  0.81116549  0.55298777  1  0.064318  0.000379  0.105665  0.11046  8.9e-05  0.986441  0.0
H  H19  1  0.10479986  0.63583863  0.55300892  1  0.071633  0.000378  0.105666  0.110437  8.8e-05  0.986651  0.0
H  H20  1  0.18877475  0.10921689  0.96323565  1  0.104338  0.000135  0.104378  0.117134  5.4e-05  1.032346  0.0
H  H21  1  0.31121771  0.92753744  0.96324025  1  0.105284  0.000135  0.104323  0.117056  5.4e-05  1.032444  0.0
H  H22  1  0.81123067  0.89078394  0.03676221  1  0.104307  0.000135  0.104294  0.116972  5.4e-05  1.032485  0.0
H  H23  1  0.68878350  0.07246153  0.03677137  1  0.105341  0.000135  0.104304  0.117033  5.4e-05  1.032452  0.0
H  H24  1  0.06209796  0.24639927  0.02785110  1  0.140224  0.000183  0.103913  0.109014  -0.000184  1.061102  0.0
H  H25  1  0.43789561  0.72574011  0.02785476  1  0.147277  0.000184  0.103844  0.108883  -0.000184  1.061127  0.0
H  H26  1  0.93790951  0.75360563  0.97214272  1  0.140135  0.000183  0.103895  0.108947  -0.000184  1.06114  0.0
H  H27  1  0.56210620  0.27425991  0.97214985  1  0.14717  0.000184  0.103839  0.108908  -0.000184  1.061115  0.0
H  H28  1  0.14380995  0.15246040  0.38889771  1  0.077154  0.000147  0.106249  0.121865  4e-05  0.98502  0.0
H  H29  1  0.35621184  0.45861952  0.38891730  1  0.078174  0.000146  0.106213  0.121807  4e-05  0.985098  0.0
H  H30  1  0.85618412  0.84754339  0.61110225  1  0.077002  0.000147  0.106206  0.121794  4e-05  0.985008  0.0
H  H31  1  0.64379030  0.54137778  0.61108490  1  0.078229  0.000146  0.106225  0.121826  4e-05  0.985049  0.0
H  H32  1  0.47493691  0.06685411  0.60315045  1  0.075409  0.000134  0.099834  0.109433  5.5e-05  1.033058  0.0
H  H33  1  0.02505284  0.33000261  0.60313498  1  0.068208  0.000135  0.099879  0.109542  5.5e-05  1.033079  0.0
H  H34  1  0.52506125  0.93314566  0.39684927  1  0.075623  0.000134  0.099822  0.109406  5.5e-05  1.033071  0.0
H  H35  1  0.97494215  0.67000143  0.39686133  1  0.068173  0.000135  0.099862  0.109517  5.5e-05  1.033071  0.0
H  H36  1  0.10516298  0.88925154  0.72825694  1  0.05332  -3e-05  0.10695  0.117318  -6.6e-05  0.955839  0.0
H  H37  1  0.39481050  0.38248852  0.72827681  1  0.0469  -2.9e-05  0.106973  0.117374  -6.6e-05  0.955783  0.0
H  H38  1  0.89484165  0.11074749  0.27174186  1  0.053332  -3e-05  0.106951  0.11732  -6.6e-05  0.955839  0.0
H  H39  1  0.60518734  0.61751135  0.27172025  1  0.046871  -2.9e-05  0.106969  0.117363  -6.6e-05  0.955801  0.0
H  H40  1  0.18736456  0.86469070  0.84414531  1  0.084674  1.1e-05  0.100481  0.108483  -0.000101  0.999358  0.0
H  H41  1  0.31260882  0.29114936  0.84416050  1  0.04449  1e-05  0.100451  0.108421  -0.000101  0.999398  0.0
H  H42  1  0.81264128  0.13530777  0.15585319  1  0.084872  1.1e-05  0.10047  0.108486  -0.000101  0.99936  0.0
H  H43  1  0.68739050  0.70885495  0.15583813  1  0.0445  1e-05  0.100442  0.108429  -0.000101  0.999426  0.0
H  H44  1  0.00520526  0.09534135  0.69748136  1  0.081788  0.0001  0.101972  0.069723  4.4e-05  0.979604  0.0
H  H45  1  0.49478227  0.20718262  0.69748948  1  0.056937  0.000101  0.101959  0.069693  4.4e-05  0.979629  0.0
H  H46  1  0.99479945  0.90465734  0.30252118  1  0.081708  0.0001  0.101982  0.069708  4.4e-05  0.979547  0.0
H  H47  1  0.50521363  0.79281495  0.30251326  1  0.056884  0.000101  0.101957  0.069702  4.4e-05  0.979713  0.0
H  H48  1  0.94576980  0.98522690  0.81789674  1  0.045477  4.4e-05  0.098391  0.063749  1.4e-05  1.00613  0.0
H  H49  1  0.55420918  0.19687001  0.81791343  1  0.04746  4.4e-05  0.09842  0.063838  1.4e-05  1.006129  0.0
H  H50  1  0.05423247  0.01476956  0.18210204  1  0.045311  4.4e-05  0.098408  0.063784  1.4e-05  1.006117  0.0
H  H51  1  0.44579013  0.80313359  0.18208590  1  0.047463  4.4e-05  0.098427  0.063853  1.4e-05  1.006127  0.0
H  H52  1  0.29534196  0.03975519  0.71564943  1  0.046053  0.0001  0.098693  0.062972  4.5e-05  1.014792  0.0
H  H53  1  0.20464240  0.24459004  0.71565310  1  0.046732  0.0001  0.098771  0.063199  4.5e-05  1.014774  0.0
H  H54  1  0.70465723  0.96024591  0.28434898  1  0.046021  9.9e-05  0.098709  0.063002  4.5e-05  1.014794  0.0
H  H55  1  0.79535878  0.75541018  0.28434619  1  0.046696  0.0001  0.098739  0.063147  4.5e-05  1.014815  0.0
H  H56  1  0.35647443  0.91314615  0.70247037  1  0.065397  0.000102  0.099299  0.068802  -1.6e-05  1.012452  0.0
H  H57  1  0.14350539  0.38438021  0.70247352  1  0.062097  0.000102  0.099369  0.069028  -1.6e-05  1.012417  0.0
H  H58  1  0.64352604  0.08685935  0.29752280  1  0.065364  0.000102  0.099311  0.068812  -1.6e-05  1.012539  0.0
H  H59  1  0.85649365  0.61561697  0.29752536  1  0.062176  0.000101  0.099363  0.069045  -1.6e-05  1.012408  0.0
C  C60  1  0.87599385  0.28503250  0.94368769  1  -0.00852  0.008201  -0.030194  -0.074703  0.004151  3.994367  0.006
C  C61  1  0.62398832  0.77127763  0.94369434  1  0.012566  0.008176  -0.030205  -0.074822  0.004149  3.994252  0.006
C  C62  1  0.12401157  0.71496833  0.05631018  1  -0.008742  0.008201  -0.03013  -0.074705  0.004151  3.994232  0.006
C  C63  1  0.37600804  0.22872043  0.05630623  1  0.012566  0.008177  -0.030252  -0.074868  0.004149  3.994315  0.006
C  C64  1  0.01784744  0.13128202  0.87050314  1  0.454577  0.000624  0.092903  0.272641  0.000286  4.061825  0.0
C  C65  1  0.48213686  0.99820904  0.87050772  1  0.469061  0.000623  0.0929  0.27278  0.000287  4.061828  0.0
C  C66  1  0.98215459  0.86871421  0.12949672  1  0.454512  0.000623  0.092875  0.272545  0.000286  4.061971  0.0
C  C67  1  0.51786229  0.00179256  0.12949785  1  0.469189  0.000623  0.09294  0.27277  0.000287  4.061913  0.0
C  C68  1  0.52243741  0.31693296  0.23747689  1  1.521514  -0.001261  0.216534  0.588571  -0.001837  4.169742  -0.002
C  C69  1  0.97758660  0.44559049  0.23747156  1  1.502887  -0.001195  0.216466  0.588382  -0.001835  4.170154  -0.002
C  C70  1  0.47756186  0.68306447  0.76252090  1  1.52152  -0.001259  0.216487  0.588559  -0.001833  4.169879  -0.002
C  C71  1  0.02241162  0.55441353  0.76252393  1  1.502875  -0.001194  0.216541  0.588461  -0.001833  4.16998  -0.002
C  C72  1  0.81365036  0.26594344  0.87202150  1  -0.002443  0.001174  -0.077817  -0.055825  0.000451  3.989196  0.001
C  C73  1  0.68633685  0.86202801  0.87202713  1  -0.059107  0.001185  -0.077704  -0.055634  0.000451  3.988988  0.001
C  C74  1  0.18635354  0.73405274  0.12798268  1  -0.002235  0.001173  -0.077883  -0.055969  0.00045  3.989188  0.001
C  C75  1  0.31366293  0.13796673  0.12797505  1  -0.059305  0.001186  -0.077717  -0.055722  0.000451  3.989116  0.001
C  C76  1  0.88297816  0.18962695  0.83532934  1  -0.048678  0.001089  -0.114056  -0.239101  0.000522  4.016232  0.001
C  C77  1  0.61700196  0.97503939  0.83533548  1  -0.047462  0.001094  -0.114089  -0.239112  0.000522  4.016372  0.001
C  C78  1  0.11702097  0.81037061  0.16467258  1  -0.048996  0.001089  -0.114033  -0.239091  0.000522  4.016307  0.001
C  C79  1  0.38299652  0.02495958  0.16466760  1  -0.047469  0.001093  -0.114074  -0.238981  0.000522  4.016482  0.001
C  C80  1  0.29994736  0.10344841  0.50498411  1  0.4992  0.000341  0.090929  0.275299  9.6e-05  4.061523  0.0
C  C81  1  0.20005439  0.39156914  0.50498188  1  0.405205  0.000355  0.091012  0.275567  9.6e-05  4.061217  0.0
C  C82  1  0.70005016  0.89655419  0.49501536  1  0.499397  0.000342  0.090874  0.275191  9.6e-05  4.061614  0.0
C  C83  1  0.79994638  0.60843485  0.49501537  1  0.405139  0.000355  0.09094  0.275472  9.6e-05  4.061238  0.0
C  C84  1  0.44893255  0.23952410  0.32997446  1  -0.011913  0.010539  -0.036462  -0.088669  0.00547  4.023808  0.008
C  C85  1  0.05108885  0.43050306  0.32996610  1  -0.049598  0.010532  -0.036345  -0.088502  0.005469  4.023748  0.008
C  C86  1  0.55107085  0.76047548  0.67002462  1  -0.011923  0.010539  -0.036464  -0.088677  0.00547  4.023906  0.008
C  C87  1  0.94890971  0.56950228  0.67003063  1  -0.049563  0.010531  -0.036413  -0.088578  0.005469  4.023699  0.008
C  C88  1  0.31882955  0.22846526  0.31382703  1  -0.070393  0.000587  -0.082201  -0.060865  -2.7e-05  3.996975  0.0
C  C89  1  0.18119120  0.45770055  0.31382707  1  -0.00819  0.000584  -0.082278  -0.061087  -2.6e-05  3.997284  0.0
C  C90  1  0.68116975  0.77153763  0.68617300  1  -0.069483  0.000588  -0.082187  -0.060854  -2.7e-05  3.997015  0.0
C  C91  1  0.81880432  0.54230292  0.68617150  1  -0.007999  0.000584  -0.082224  -0.061043  -2.6e-05  3.997148  0.0
C  C92  1  0.79868342  0.35744821  0.99067312  1  1.479992  0.003363  0.225283  0.605947  0.00197  4.116628  0.003
C  C93  1  0.70129347  0.65187367  0.99067478  1  1.48337  0.003312  0.225409  0.606279  0.001974  4.116263  0.003
C  C94  1  0.20131675  0.64255209  0.00932608  1  1.480037  0.003361  0.225298  0.605981  0.001969  4.116647  0.003
C  C95  1  0.29870469  0.34812539  0.00932565  1  1.483493  0.00331  0.225463  0.606405  0.001973  4.116273  0.003
C  C96  1  0.50354854  0.18066857  0.43485290  1  -0.019341  0.00091  -0.082139  -0.059829  0.000226  3.988379  0.0
C  C97  1  0.99645835  0.38448619  0.43483982  1  0.018002  0.000865  -0.08208  -0.059699  0.000226  3.988413  0.0
C  C98  1  0.49644857  0.81932774  0.56515025  1  -0.019631  0.000911  -0.082109  -0.059846  0.000226  3.988543  0.0
C  C99  1  0.00354098  0.61551953  0.56515740  1  0.017837  0.000865  -0.082088  -0.0598  0.000226  3.988455  0.0
C  C100  1  0.08285564  0.15279640  0.93943682  1  -0.033689  0.000321  -0.104302  -0.204292  0.000159  3.978102  0.0
C  C101  1  0.41713158  0.90776102  0.93943950  1  -0.045248  0.000321  -0.104204  -0.204396  0.000159  3.978334  0.0
C  C102  1  0.91714677  0.84720397  0.06056147  1  -0.033031  0.000321  -0.10421  -0.204034  0.000159  3.978037  0.0
C  C103  1  0.58287174  0.09223552  0.06057028  1  -0.044798  0.000321  -0.104241  -0.204357  0.000159  3.978333  0.0
C  C104  1  0.01238455  0.22858469  0.97520829  1  -0.028674  0.001595  -0.082265  -0.060333  0.000639  3.964789  0.001
C  C105  1  0.48759323  0.79620549  0.97520847  1  -0.048213  0.001604  -0.082177  -0.060046  0.00064  3.964654  0.001
C  C106  1  0.98761788  0.77141710  0.02478859  1  -0.028938  0.001595  -0.082297  -0.060321  0.000639  3.964659  0.001
C  C107  1  0.51240436  0.20379535  0.02479615  1  -0.048506  0.001604  -0.082155  -0.060114  0.00064  3.964669  0.001
C  C108  1  0.24560038  0.16056911  0.39993060  1  -0.038939  0.001042  -0.104483  -0.20627  0.000485  3.997719  0.001
C  C109  1  0.25441197  0.43949518  0.39993313  1  -0.012617  0.001035  -0.104583  -0.206361  0.000485  3.997976  0.001
C  C110  1  0.75439517  0.83943578  0.60006657  1  -0.03984  0.001042  -0.104453  -0.206164  0.000485  3.997732  0.001
C  C111  1  0.74558703  0.56050993  0.60006214  1  -0.012615  0.001035  -0.104607  -0.206387  0.000485  3.998061  0.001
C  C112  1  0.43011977  0.11309544  0.52252166  1  -0.025766  0.001197  -0.11216  -0.22894  0.000577  4.008691  0.001
C  C113  1  0.06987667  0.36439018  0.52251322  1  -0.004689  0.001195  -0.112204  -0.229086  0.000577  4.008636  0.001
C  C114  1  0.56987558  0.88690129  0.47748022  1  -0.025981  0.001197  -0.112137  -0.228842  0.000577  4.008682  0.001
C  C115  1  0.93012220  0.63561506  0.47748618  1  -0.004604  0.001194  -0.112194  -0.229019  0.000577  4.008635  0.001
C  C116  1  0.14818590  0.93096053  0.76372521  1  -0.016468  -4.7e-05  -0.165635  -0.213645  -0.000143  3.948245  0.0
C  C117  1  0.35179570  0.30530434  0.76373953  1  0.027748  -4.6e-05  -0.165661  -0.213485  -0.000143  3.948144  0.0
C  C118  1  0.85181527  0.06903899  0.23627479  1  -0.016659  -4.6e-05  -0.165607  -0.213595  -0.000143  3.948191  0.0
C  C119  1  0.64820568  0.69469400  0.23626079  1  0.027678  -4.6e-05  -0.165644  -0.213473  -0.000143  3.948136  0.0
C  C120  1  0.03635916  0.02031880  0.77653194  1  0.362599  -5e-06  -0.064839  0.03039  -1e-06  3.881748  0.0
C  C121  1  0.46362350  0.20313831  0.77654461  1  0.384653  -5e-06  -0.064792  0.030327  -1e-06  3.881813  0.0
C  C122  1  0.96364242  0.97967765  0.22346940  1  0.362838  -5e-06  -0.064896  0.03029  -1e-06  3.881641  0.0
C  C123  1  0.53637374  0.79686050  0.22345947  1  0.384796  -5e-06  -0.064833  0.030245  -1e-06  3.881728  0.0
C  C124  1  0.26607038  0.98053325  0.69394081  1  0.40964  5.6e-05  -0.06886  0.034125  1.5e-05  3.873767  0.0
C  C125  1  0.23391033  0.32552199  0.69394802  1  0.411118  5.5e-05  -0.068987  0.033464  1.4e-05  3.87437  0.0
C  C126  1  0.73392958  0.01946824  0.30605807  1  0.409713  5.6e-05  -0.068875  0.034048  1.5e-05  3.873935  0.0
C  C127  1  0.76608837  0.67447721  0.30605397  1  0.411119  5.6e-05  -0.068981  0.033461  1.5e-05  3.874457  0.0
O  O128  1  0.45943464  0.37943420  0.14752991  1  -1.164087  0.066572  -0.308092  -0.564534  0.034454  2.429697  0.056
O  O129  1  0.04059846  0.47302420  0.14752523  1  -1.160812  0.066602  -0.307909  -0.564326  0.034455  2.429553  0.056
O  O130  1  0.54056541  0.62056027  0.85246400  1  -1.164027  0.066568  -0.308022  -0.564527  0.03445  2.429756  0.056
O  O131  1  0.95940256  0.52698216  0.85246881  1  -1.160763  0.066598  -0.307999  -0.564367  0.034452  2.429593  0.056
O  O132  1  0.86502826  0.37254146  0.05574189  1  -1.151099  0.119929  -0.321552  -0.6091  0.062851  2.528208  0.096
O  O133  1  0.63494697  0.57170922  0.05574108  1  -1.154229  0.119937  -0.321695  -0.609242  0.062863  2.528041  0.096
O  O134  1  0.13497596  0.62746133  0.94425485  1  -1.151201  0.119929  -0.321584  -0.609086  0.06285  2.528217  0.096
O  O135  1  0.36505230  0.42828821  0.94425672  1  -1.154138  0.119938  -0.32172  -0.609352  0.062865  2.528042  0.096
O  O136  1  0.67151229  0.39531112  0.97329634  1  -1.153784  0.077907  -0.287789  -0.54748  0.040699  2.406862  0.067
O  O137  1  0.82846819  0.63138439  0.97331584  1  -1.154899  0.077859  -0.287832  -0.547709  0.040697  2.407221  0.067
O  O138  1  0.32848932  0.60468745  0.02670288  1  -1.153776  0.077909  -0.287816  -0.547551  0.040701  2.406879  0.067
O  O139  1  0.17152963  0.36861335  0.02668334  1  -1.155058  0.07786  -0.287831  -0.547718  0.040696  2.407185  0.067
O  O140  1  0.64580467  0.31738301  0.25397600  1  -1.137753  0.104239  -0.320575  -0.546784  0.052599  2.37499  0.081
O  O141  1  0.85422249  0.42864691  0.25396172  1  -1.139456  0.104265  -0.320733  -0.546862  0.052577  2.375314  0.081
O  O142  1  0.35420032  0.68260941  0.74602766  1  -1.137822  0.104236  -0.320589  -0.546786  0.052598  2.375164  0.081
O  O143  1  0.14577876  0.57135156  0.74604272  1  -1.139467  0.10428  -0.320735  -0.546904  0.052586  2.375158  0.081
O  O144  1  0.09481052  0.05353401  0.84227621  1  -1.078751  0.000817  -0.172537  -0.199065  0.000405  2.589957  0.001
O  O145  1  0.40517145  0.10418002  0.84228012  1  -1.072571  0.000817  -0.172534  -0.199048  0.000405  2.589954  0.001
O  O146  1  0.90519080  0.94645937  0.15772904  1  -1.078679  0.000817  -0.172509  -0.198965  0.000405  2.589963  0.001
O  O147  1  0.59482721  0.89581898  0.15772975  1  -1.072739  0.000818  -0.172508  -0.19901  0.000405  2.589811  0.001
O  O148  1  0.21820246  0.04121556  0.58386711  1  -1.081571  0.00098  -0.18228  -0.211  0.00049  2.54569  0.001
O  O149  1  0.28178782  0.37491357  0.58387605  1  -1.076158  0.000981  -0.182332  -0.211072  0.000491  2.545811  0.001
O  O150  1  0.78179617  0.95878803  0.41613479  1  -1.081589  0.00098  -0.182282  -0.210971  0.00049  2.545684  0.001
O  O151  1  0.71820307  0.62508373  0.41612694  1  -1.076142  0.000981  -0.182252  -0.210999  0.000491  2.545601  0.001
