# generated using pymatgen
data_ZnH25C29(N3O2)2
_symmetry_space_group_name_H-M   'P 1'
_cell_length_a   10.09587690
_cell_length_b   11.90539284
_cell_length_c   11.96121170
_cell_angle_alpha   84.61874246
_cell_angle_beta   67.32491062
_cell_angle_gamma   83.21438827
_symmetry_Int_Tables_number   1
_chemical_formula_structural   ZnH25C29(N3O2)2
_chemical_formula_sum   'Zn2 H50 C58 N12 O8'
_cell_volume   1315.43909631
_cell_formula_units_Z   2
loop_
 _symmetry_equiv_pos_site_id
 _symmetry_equiv_pos_as_xyz
  1  'x, y, z'
loop_
 _atom_site_type_symbol
 _atom_site_label
 _atom_site_symmetry_multiplicity
 _atom_site_fract_x
 _atom_site_fract_y
 _atom_site_fract_z
 _atom_site_occupancy
 _atom_site_hle17_bader_spin_density
 _atom_site_hle17_ddec_charge
 _atom_site_hle17_ddec_spin_density
 _atom_site_hle17_ddec_sum_bond_order
 _atom_site_hle17_magmom
 _atom_site_hse06_10hf_bader_spin_density
 _atom_site_hse06_10hf_ddec_charge
 _atom_site_hse06_10hf_ddec_spin_density
 _atom_site_hse06_10hf_ddec_sum_bond_order
 _atom_site_hse06_10hf_magmom
 _atom_site_hse06_bader_spin_density
 _atom_site_hse06_ddec_charge
 _atom_site_hse06_ddec_spin_density
 _atom_site_hse06_ddec_sum_bond_order
 _atom_site_hse06_magmom
 _atom_site_pbe_bader_spin_density
 _atom_site_pbe_cm5_charge
 _atom_site_pbe_ddec_charge
 _atom_site_pbe_ddec_spin_density
 _atom_site_pbe_ddec_sum_bond_order
 _atom_site_pbe_magmom
Zn  Zn0  1  0.56090573  0.31065981  0.37990740  1  0  0.980429  0  1.857841  0  0  0.784848  0  2.329631  0  0  0.833524  0  2.275844  0  0  0.690807  0.750926  0  2.366423  0
Zn  Zn1  1  0.43909381  0.68934052  0.62009303  1  0  0.980463  0  1.857803  0  0  0.784874  0  2.329588  0  0  0.833542  0  2.275794  0  0  0.690816  0.75096  0  2.36638  0
H  H2  1  0.36000674  0.18137617  0.33088584  1  0  0.088133  0  0.975876  0  0  0.095898  0  1.039974  0  0  0.098361  0  1.037917  0  0  0.118082  0.093969  0  1.04162  0
H  H3  1  0.63999280  0.81862416  0.66911542  1  0  0.088082  0  0.975923  0  0  0.09585  0  1.040025  0  0  0.098312  0  1.037972  0  0  0.118069  0.093924  0  1.041667  0
H  H4  1  0.34661937  0.98176368  0.28601047  1  0  0.101825  0  0.954292  0  0  0.112705  0  1.012642  0  0  0.115225  0  1.013018  0  0  0.10856  0.110798  0  1.012604  0
H  H5  1  0.65338027  0.01823581  0.71399084  1  0  0.101812  0  0.954313  0  0  0.11268  0  1.012682  0  0  0.115187  0  1.013072  0  0  0.10855  0.110778  0  1.012636  0
H  H6  1  0.55865179  0.84078981  0.25740860  1  0  0.098193  0  0.959548  0  0  0.10616  0  1.027467  0  0  0.108533  0  1.026214  0  0  0.107565  0.103949  0  1.029345  0
H  H7  1  0.44134990  0.15921053  0.74259113  1  0  0.098171  0  0.95956  0  0  0.106127  0  1.02749  0  0  0.108498  0  1.02624  0  0  0.107557  0.103917  0  1.029372  0
H  H8  1  0.77487990  0.10510931  0.32097192  1  0  0.090831  0  0.972319  0  0  0.092506  0  1.049192  0  0  0.096023  0  1.044663  0  0  0.121153  0.089859  0  1.052547  0
H  H9  1  0.22512051  0.89489272  0.67902639  1  0  0.090753  0  0.9724  0  0  0.092495  0  1.049213  0  0  0.096013  0  1.044677  0  0  0.121134  0.08985  0  1.05257  0
H  H10  1  0.94202248  0.73450880  0.20245892  1  0  0.134723  0  0.940033  0  0  0.152091  0  1.002133  0  0  0.154511  0  1.001493  0  0  0.10226  0.150504  0  1.002504  0
H  H11  1  0.05797813  0.26549154  0.79754116  1  0  0.134728  0  0.940029  0  0  0.152098  0  1.002126  0  0  0.154517  0  1.001487  0  0  0.102277  0.150528  0  1.002493  0
H  H12  1  0.79780070  0.77725784  0.15095995  1  0  0.123351  0  0.943436  0  0  0.147356  0  0.999234  0  0  0.147804  0  1.000445  0  0  0.097988  0.147124  0  0.998013  0
H  H13  1  0.20219894  0.22274164  0.84903969  1  0  0.123301  0  0.943406  0  0  0.147312  0  0.999208  0  0  0.147762  0  1.000419  0  0  0.09798  0.147101  0  0.997978  0
H  H14  1  0.76258913  0.70767331  0.29689094  1  0  0.131159  0  0.946401  0  0  0.151362  0  1.010958  0  0  0.152785  0  1.010509  0  0  0.100012  0.149895  0  1.012205  0
H  H15  1  0.23741041  0.29232703  0.70310949  1  0  0.131153  0  0.946443  0  0  0.15135  0  1.011007  0  0  0.152774  0  1.010558  0  0  0.100014  0.149897  0  1.01225  0
H  H16  1  0.85846362  0.91125575  0.53399297  1  0  0.118508  0  0.974568  0  0  0.132728  0  1.04473  0  0  0.135182  0  1.043953  0  0  0.094929  0.131013  0  1.045219  0
H  H17  1  0.14153505  0.08874288  0.46600706  1  0  0.118521  0  0.974563  0  0  0.132744  0  1.044722  0  0  0.135199  0  1.043945  0  0  0.094946  0.131031  0  1.045208  0
H  H18  1  0.00891397  0.90525758  0.57887861  1  0  0.125008  0  0.950295  0  0  0.145196  0  1.013058  0  0  0.146678  0  1.012758  0  0  0.098568  0.144091  0  1.013315  0
H  H19  1  0.99108567  0.09474190  0.42112103  1  0  0.125046  0  0.950291  0  0  0.145219  0  1.013069  0  0  0.146702  0  1.012766  0  0  0.098569  0.144118  0  1.013314  0
H  H20  1  0.91572583  0.78344082  0.60039551  1  0  0.134736  0  0.934602  0  0  0.15887  0  0.98876  0  0  0.159737  0  0.989392  0  0  0.10316  0.158137  0  0.988368  0
H  H21  1  0.08427381  0.21655867  0.39960497  1  0  0.134738  0  0.93457  0  0  0.158872  0  0.988729  0  0  0.159739  0  0.989361  0  0  0.103161  0.158142  0  0.988327  0
H  H22  1  0.18073450  0.78522038  0.57547574  1  0  0.086285  0  1.000966  0  0  0.09549  0  1.065842  0  0  0.098324  0  1.062915  0  0  0.117633  0.093301  0  1.06811  0
H  H23  1  0.81926524  0.21477826  0.42452395  1  0  0.086272  0  1.000978  0  0  0.095486  0  1.065846  0  0  0.09832  0  1.06292  0  0  0.117624  0.093303  0  1.068102  0
H  H24  1  0.54806271  0.59049200  0.37462570  1  0  0.096271  0  0.946052  0  0  0.101949  0  1.013795  0  0  0.105396  0  1.010001  0  0  0.120002  0.099099  0  1.017444  0
H  H25  1  0.45193693  0.40950748  0.62537393  1  0  0.096254  0  0.946093  0  0  0.101932  0  1.013833  0  0  0.105379  0  1.010038  0  0  0.119986  0.099085  0  1.017482  0
H  H26  1  0.23291342  0.70375598  0.21620969  1  0  0.100961  0  0.956496  0  0  0.107192  0  1.023892  0  0  0.109812  0  1.022712  0  0  0.110502  0.105188  0  1.024859  0
H  H27  1  0.76708622  0.29624350  0.78379079  1  0  0.100976  0  0.95648  0  0  0.107205  0  1.023878  0  0  0.109825  0  1.022698  0  0  0.110509  0.105207  0  1.024852  0
H  H28  1  0.15122640  0.46892716  0.62416694  1  0  0.099317  0  0.954994  0  0  0.108891  0  1.017546  0  0  0.111879  0  1.016125  0  0  0.101299  0.106699  0  1.018727  0
H  H29  1  0.84877324  0.53107233  0.37583354  1  0  0.099313  0  0.954962  0  0  0.108887  0  1.017518  0  0  0.111875  0  1.016099  0  0  0.101302  0.106694  0  1.018689  0
H  H30  1  0.89905618  0.56289065  0.71159336  1  0  0.098491  0  0.955368  0  0  0.106229  0  1.019711  0  0  0.10991  0  1.017267  0  0  0.101113  0.103462  0  1.021662  0
H  H31  1  0.10094336  0.43710968  0.28840707  1  0  0.098425  0  0.955348  0  0  0.106166  0  1.0197  0  0  0.109848  0  1.017257  0  0  0.101085  0.103405  0  1.021628  0
H  H32  1  0.46550979  0.59137319  0.20262986  1  0  0.111751  0  0.93916  0  0  0.122172  0  0.996749  0  0  0.12513  0  0.996272  0  0  0.112534  0.119999  0  0.997252  0
H  H33  1  0.53449093  0.40862629  0.79736943  1  0  0.111741  0  0.939183  0  0  0.122165  0  0.996772  0  0  0.125123  0  0.996296  0  0  0.112544  0.119996  0  0.997275  0
H  H34  1  0.73876632  0.56397769  0.08950597  1  0  0.093652  0  0.959236  0  0  0.101982  0  1.025021  0  0  0.105582  0  1.022532  0  0  0.101875  0.099478  0  1.026721  0
H  H35  1  0.26123118  0.43602179  0.91049521  1  0  0.093661  0  0.959248  0  0  0.101999  0  1.025025  0  0  0.105599  0  1.022534  0  0  0.101878  0.099494  0  1.026728  0
H  H36  1  0.90530091  0.66942898  0.90619437  1  0  0.103642  0  0.951533  0  0  0.114251  0  1.010953  0  0  0.117809  0  1.008697  0  0  0.107002  0.111594  0  1.012884  0
H  H37  1  0.09469872  0.33057050  0.09380611  1  0  0.103629  0  0.951551  0  0  0.114235  0  1.010974  0  0  0.117793  0  1.008717  0  0  0.10699  0.111578  0  1.012901  0
H  H38  1  0.39804683  0.32807624  0.04043206  1  0  0.069707  0  0.927665  0  0  0.081559  0  0.985583  0  0  0.08414  0  0.98316  0  0  0.110136  0.079478  0  0.987667  0
H  H39  1  0.60195368  0.67192494  0.95956881  1  0  0.069676  0  0.927611  0  0  0.081508  0  0.985554  0  0  0.084088  0  0.983133  0  0  0.110131  0.079435  0  0.987644  0
H  H40  1  0.60287382  0.37646842  0.08860833  1  0  0.108429  0  0.962673  0  0  0.117281  0  1.023094  0  0  0.12041  0  1.022294  0  0  0.104228  0.114974  0  1.023873  0
H  H41  1  0.39712669  0.62353276  0.91139171  1  0  0.108424  0  0.962683  0  0  0.117281  0  1.023098  0  0  0.120408  0  1.022299  0  0  0.104233  0.114976  0  1.023877  0
H  H42  1  0.82136662  0.23492539  0.04761456  1  0  0.099976  0  0.97003  0  0  0.104885  0  1.0414  0  0  0.107816  0  1.039131  0  0  0.106638  0.102735  0  1.042814  0
H  H43  1  0.17863399  0.76507495  0.95238468  1  0  0.099958  0  0.970068  0  0  0.104901  0  1.041404  0  0  0.107833  0  1.039134  0  0  0.10664  0.102751  0  1.04281  0
H  H44  1  0.60907504  0.01857052  0.91474932  1  0  0.062762  0  0.987104  0  0  0.069622  0  1.058281  0  0  0.071716  0  1.057297  0  0  0.105644  0.068616  0  1.058219  0
H  H45  1  0.39092429  0.98143151  0.08525102  1  0  0.06273  0  0.987092  0  0  0.069641  0  1.058201  0  0  0.071757  0  1.057192  0  0  0.105654  0.068637  0  1.058134  0
H  H46  1  0.95599960  0.86826963  0.88092421  1  0  0.138233  0  0.974248  0  0  0.147793  0  1.048867  0  0  0.151586  0  1.045382  0  0  0.095171  0.14507  0  1.051179  0
H  H47  1  0.04400112  0.13172985  0.11907424  1  0  0.13823  0  0.974243  0  0  0.147789  0  1.048862  0  0  0.15158  0  1.04538  0  0  0.095158  0.145064  0  1.051173  0
H  H48  1  0.84993886  0.94902922  0.80668921  1  0  0.115106  0  0.948198  0  0  0.137507  0  1.007916  0  0  0.139159  0  1.007303  0  0  0.090803  0.136151  0  1.008467  0
H  H49  1  0.15006185  0.05097027  0.19331008  1  0  0.115093  0  0.94826  0  0  0.137499  0  1.007972  0  0  0.139153  0  1.007359  0  0  0.090782  0.136142  0  1.008512  0
H  H50  1  0.76209914  0.87608874  0.94720020  1  0  0.120722  0  0.967685  0  0  0.136198  0  1.038898  0  0  0.138025  0  1.037885  0  0  0.091563  0.134453  0  1.040479  0
H  H51  1  0.23790158  0.12391075  0.05279909  1  0  0.120719  0  0.967679  0  0  0.136191  0  1.038901  0  0  0.138016  0  1.037891  0  0  0.09156  0.13444  0  1.040489  0
C  C52  1  0.44764384  0.11567451  0.32138470  1  0  0.126025  0  3.679402  0  0  0.090345  0  3.927287  0  0  0.098697  0  3.944873  0  0  0.045467  0.085187  0  3.915246  0
C  C53  1  0.55235774  0.88432668  0.67861499  1  0  0.126101  0  3.67942  0  0  0.090408  0  3.927312  0  0  0.09876  0  3.944894  0  0  0.045502  0.085254  0  3.915259  0
C  C54  1  0.44271128  0.00561720  0.29499504  1  0  -0.112609  0  3.73804  0  0  -0.123025  0  3.991159  0  0  -0.131028  0  4.012909  0  0  -0.082246  -0.11769  0  3.976039  0
C  C55  1  0.55728933  0.99438313  0.70500504  1  0  -0.112589  0  3.738101  0  0  -0.122997  0  3.99123  0  0  -0.130989  0  4.012985  0  0  -0.082233  -0.117657  0  3.976098  0
C  C56  1  0.56124969  0.92681208  0.27987837  1  0  -0.020314  0  3.660108  0  0  -0.049977  0  3.907806  0  0  -0.04515  0  3.92546  0  0  -0.05901  -0.053009  0  3.896064  0
C  C57  1  0.43874985  0.07318825  0.72012290  1  0  -0.020276  0  3.660108  0  0  -0.04993  0  3.907777  0  0  -0.045102  0  3.925428  0  0  -0.058984  -0.052962  0  3.896038  0
C  C58  1  0.68268972  0.96023052  0.29317701  1  0  -0.037758  0  3.745867  0  0  -0.016099  0  3.979443  0  0  -0.023142  0  4.001592  0  0  0.001724  -0.011788  0  3.964478  0
C  C59  1  0.31731197  0.03976981  0.70682105  1  0  -0.037804  0  3.745814  0  0  -0.016086  0  3.979342  0  0  -0.023129  0  4.001491  0  0  0.001711  -0.011773  0  3.964385  0
C  C60  1  0.68003070  0.07376154  0.31713389  1  0  0.121059  0  3.646386  0  0  0.074893  0  3.900595  0  0  0.084078  0  3.916129  0  0  0.062365  0.06948  0  3.889623  0
C  C61  1  0.31996982  0.92623964  0.68286447  1  0  0.121149  0  3.646362  0  0  0.074886  0  3.900586  0  0  0.084072  0  3.916118  0  0  0.062389  0.069476  0  3.889615  0
C  C62  1  0.80946338  0.88065122  0.28426963  1  0  0.275732  0  3.680404  0  0  0.270045  0  3.941373  0  0  0.28182  0  3.956445  0  0  0.147579  0.261737  0  3.931166  0
C  C63  1  0.19053713  0.11934996  0.71572957  1  0  0.275822  0  3.68038  0  0  0.270121  0  3.941345  0  0  0.281898  0  3.95642  0  0  0.147605  0.261815  0  3.931153  0
C  C64  1  0.82903131  0.76885419  0.22984234  1  0  -0.380027  0  3.69455  0  0  -0.461323  0  3.928351  0  0  -0.465127  0  3.935802  0  0  -0.237325  -0.458022  0  3.923363  0
C  C65  1  0.17096931  0.23114615  0.77015690  1  0  -0.379997  0  3.694533  0  0  -0.461295  0  3.928352  0  0  -0.4651  0  3.935804  0  0  -0.237296  -0.458006  0  3.92336  0
C  C66  1  0.04937229  0.82292623  0.41387249  1  0  0.255197  0  3.693845  0  0  0.251268  0  3.954861  0  0  0.261629  0  3.971792  0  0  0.143153  0.244139  0  3.943605  0
C  C67  1  0.95062735  0.17707325  0.58612715  1  0  0.25516  0  3.693864  0  0  0.251223  0  3.954886  0  0  0.261581  0  3.971819  0  0  0.143133  0.244096  0  3.943636  0
C  C68  1  0.95239761  0.85795319  0.53882040  1  0  -0.3797  0  3.684816  0  0  -0.458199  0  3.914377  0  0  -0.46177  0  3.921314  0  0  -0.238725  -0.455222  0  3.909412  0
C  C69  1  0.04760105  0.14204545  0.46117963  1  0  -0.379746  0  3.684787  0  0  -0.458235  0  3.914338  0  0  -0.461805  0  3.921272  0  0  -0.238739  -0.455257  0  3.909352  0
C  C70  1  0.18907735  0.75792876  0.39560355  1  0  -0.042998  0  3.765923  0  0  -0.020712  0  3.999435  0  0  -0.027637  0  4.022995  0  0  -0.002242  -0.016456  0  3.983657  0
C  C71  1  0.81092346  0.24206988  0.60439578  1  0  -0.042955  0  3.765987  0  0  -0.020649  0  3.99948  0  0  -0.027565  0  4.023024  0  0  -0.002209  -0.016382  0  3.983694  0
C  C72  1  0.24218981  0.74909698  0.48832586  1  0  0.09036  0  3.677701  0  0  0.047743  0  3.924196  0  0  0.054637  0  3.942386  0  0  0.047366  0.043302  0  3.911211  0
C  C73  1  0.75780983  0.25090250  0.51167462  1  0  0.090331  0  3.67776  0  0  0.047685  0  3.924277  0  0  0.054578  0  3.942469  0  0  0.047334  0.043245  0  3.91127  0
C  C74  1  0.44764307  0.63760485  0.37726373  1  0  0.132927  0  3.659682  0  0  0.097477  0  3.913099  0  0  0.105857  0  3.929562  0  0  0.05137  0.091663  0  3.903317  0
C  C75  1  0.55235657  0.36239464  0.62273674  1  0  0.132954  0  3.659652  0  0  0.097512  0  3.913061  0  0  0.105892  0  3.929526  0  0  0.051388  0.091699  0  3.903276  0
C  C76  1  0.27189702  0.70094062  0.28964516  1  0  -0.01399  0  3.662805  0  0  -0.04544  0  3.915008  0  0  -0.039986  0  3.932154  0  0  -0.05274  -0.048435  0  3.903282  0
C  C77  1  0.72810369  0.29905886  0.71035497  1  0  -0.013947  0  3.662729  0  0  -0.045396  0  3.914921  0  0  -0.039943  0  3.932069  0  0  -0.052691  -0.048397  0  3.903207  0
C  C78  1  0.28979242  0.39146825  0.39747495  1  0  0.618051  0  3.950665  0  0  0.571717  0  4.241169  0  0  0.605169  0  4.234422  0  0  0.192621  0.549103  0  4.244724  0
C  C79  1  0.71020615  0.60853123  0.60252587  1  0  0.61803  0  3.950628  0  0  0.571693  0  4.241136  0  0  0.605145  0  4.234387  0  0  0.192598  0.54908  0  4.244693  0
C  C80  1  0.13984007  0.44708851  0.45162253  1  0  -0.060296  0  3.764565  0  0  -0.037753  0  3.994979  0  0  -0.044502  0  4.018273  0  0  -0.020434  -0.03328  0  3.979084  0
C  C81  1  0.86015840  0.55291182  0.54837824  1  0  -0.06034  0  3.764583  0  0  -0.037819  0  3.995033  0  0  -0.044569  0  4.018327  0  0  -0.020442  -0.033347  0  3.979137  0
C  C82  1  0.08384532  0.48252054  0.57083326  1  0  -0.070954  0  3.725447  0  0  -0.094748  0  3.97575  0  0  -0.095479  0  3.996825  0  0  -0.087404  -0.094267  0  3.961368  0
C  C83  1  0.91615421  0.51747979  0.42916800  1  0  -0.070922  0  3.725401  0  0  -0.094708  0  3.975709  0  0  -0.095439  0  3.996784  0  0  -0.087399  -0.094219  0  3.9613  0
C  C84  1  0.94470162  0.53504874  0.61900953  1  0  -0.078564  0  3.742035  0  0  -0.098321  0  3.989061  0  0  -0.099785  0  4.009517  0  0  -0.085997  -0.097073  0  3.975201  0
C  C85  1  0.05529899  0.46495160  0.38099055  1  0  -0.078507  0  3.741967  0  0  -0.098275  0  3.988994  0  0  -0.099739  0  4.00945  0  0  -0.085991  -0.097027  0  3.975102  0
C  C86  1  0.40120050  0.63975085  0.28143393  1  0  -0.106008  0  3.719476  0  0  -0.117964  0  3.975217  0  0  -0.126269  0  3.99691  0  0  -0.076586  -0.112837  0  3.960951  0
C  C87  1  0.59879914  0.36024864  0.71856654  1  0  -0.106017  0  3.719392  0  0  -0.117984  0  3.975147  0  0  -0.12629  0  3.99684  0  0  -0.076609  -0.112854  0  3.960886  0
C  C88  1  0.90777241  0.44171126  0.10191041  1  0  -0.054723  0  3.756974  0  0  -0.031248  0  3.98457  0  0  -0.038076  0  4.007805  0  0  -0.015456  -0.026752  0  3.968907  0
C  C89  1  0.09222841  0.55828738  0.89808976  1  0  -0.054609  0  3.756933  0  0  -0.031272  0  3.984721  0  0  -0.0381  0  4.007958  0  0  -0.01544  -0.026781  0  3.969072  0
C  C90  1  0.80974874  0.37571311  0.20805311  1  0  0.622908  0  3.934749  0  0  0.574515  0  4.227298  0  0  0.608011  0  4.220734  0  0  0.20067  0.551763  0  4.230993  0
C  C91  1  0.19024983  0.62428637  0.79194687  1  0  0.622868  0  3.934697  0  0  0.574508  0  4.22727  0  0  0.608003  0  4.220707  0  0  0.200671  0.551761  0  4.23097  0
C  C92  1  0.85340131  0.53684258  0.04933008  1  0  -0.0759  0  3.747875  0  0  -0.097265  0  3.994185  0  0  -0.098124  0  4.014585  0  0  -0.085186  -0.096508  0  3.980221  0
C  C93  1  0.14659823  0.46315775  0.95067035  1  0  -0.075931  0  3.747982  0  0  -0.097273  0  3.994336  0  0  -0.098131  0  4.014738  0  0  -0.085204  -0.096518  0  3.980378  0
C  C94  1  0.94505360  0.59483354  0.94800928  1  0  -0.076591  0  3.738206  0  0  -0.097305  0  3.981886  0  0  -0.098311  0  4.002019  0  0  -0.081907  -0.096564  0  3.968235  0
C  C95  1  0.05494721  0.40516511  0.05199090  1  0  -0.076606  0  3.738266  0  0  -0.097349  0  3.981894  0  0  -0.098356  0  4.002026  0  0  -0.081928  -0.096606  0  3.968233  0
C  C96  1  0.49530546  0.26958473  0.02061560  1  0  0.12203  0  3.739975  0  0  0.096712  0  3.998299  0  0  0.102459  0  4.015688  0  0  0.041795  0.093847  0  3.98623  0
C  C97  1  0.50469515  0.73041560  0.97938615  1  0  0.122026  0  3.739823  0  0  0.096719  0  3.998142  0  0  0.102465  0  4.015533  0  0  0.04176  0.093847  0  3.98609  0
C  C98  1  0.61030832  0.29699448  0.04749857  1  0  -0.122986  0  3.74619  0  0  -0.131953  0  3.992758  0  0  -0.139014  0  4.015156  0  0  -0.088626  -0.127554  0  3.976821  0
C  C99  1  0.38969230  0.70300586  0.95250151  1  0  -0.122972  0  3.746123  0  0  -0.131941  0  3.992703  0  0  -0.139  0  4.015097  0  0  -0.088607  -0.127545  0  3.976774  0
C  C100  1  0.72999322  0.21896702  0.02627554  1  0  -0.042066  0  3.698443  0  0  -0.070118  0  3.949717  0  0  -0.067212  0  3.968132  0  0  -0.068121  -0.070078  0  3.935755  0
C  C101  1  0.27000739  0.78103332  0.97372538  1  0  -0.042067  0  3.698462  0  0  -0.070156  0  3.949749  0  0  -0.067249  0  3.968165  0  0  -0.068128  -0.07011  0  3.93578  0
C  C102  1  0.73234889  0.11480272  0.97869715  1  0  -0.050974  0  3.76462  0  0  -0.032799  0  3.999056  0  0  -0.039118  0  4.02424  0  0  -0.008703  -0.029216  0  3.982809  0
C  C103  1  0.26765075  0.88519676  0.02130332  1  0  -0.050998  0  3.764609  0  0  -0.032835  0  3.999074  0  0  -0.039158  0  4.024266  0  0  -0.008714  -0.029244  0  3.982807  0
C  C104  1  0.61287351  0.09784390  0.95160090  1  0  0.075867  0  3.719888  0  0  0.045886  0  3.976804  0  0  0.050745  0  3.994422  0  0  0.036162  0.04142  0  3.965359  0
C  C105  1  0.38712603  0.90215643  0.04839953  1  0  0.075911  0  3.719774  0  0  0.045917  0  3.976645  0  0  0.050765  0  3.994252  0  0  0.036178  0.041452  0  3.965195  0
C  C106  1  0.85241854  0.02559220  0.96067289  1  0  0.279634  0  3.669973  0  0  0.278354  0  3.930352  0  0  0.288396  0  3.946402  0  0  0.146221  0.271347  0  3.919633  0
C  C107  1  0.14758100  0.97440813  0.03932587  1  0  0.279617  0  3.669853  0  0  0.278351  0  3.930214  0  0  0.288396  0  3.946268  0  0  0.146219  0.271343  0  3.919492  0
C  C108  1  0.85675753  0.92318487  0.89513491  1  0  -0.392741  0  3.704241  0  0  -0.471267  0  3.940795  0  0  -0.47409  0  3.944655  0  0  -0.248775  -0.468618  0  3.938378  0
C  C109  1  0.14324201  0.07681546  0.10486468  1  0  -0.392742  0  3.704248  0  0  -0.471278  0  3.9408  0  0  -0.474109  0  3.944667  0  0  -0.248769  -0.46863  0  3.938379  0
N  N110  1  0.36898461  0.69250451  0.47882847  1  0  -0.327518  0  3.320212  0  0  -0.240278  0  3.597414  0  0  -0.26027  0  3.612957  0  0  -0.332162  -0.226519  0  3.586636  0
N  N111  1  0.63101503  0.30749498  0.52117117  1  0  -0.327532  0  3.320196  0  0  -0.240286  0  3.597399  0  0  -0.26028  0  3.612944  0  0  -0.33215  -0.226518  0  3.586607  0
N  N112  1  0.56568356  0.14908837  0.33187890  1  0  -0.328599  0  3.325952  0  0  -0.236678  0  3.601996  0  0  -0.257494  0  3.616618  0  0  -0.326917  -0.22305  0  3.591979  0
N  N113  1  0.43431812  0.85091197  0.66812166  1  0  -0.328659  0  3.325919  0  0  -0.236717  0  3.601988  0  0  -0.257529  0  3.616603  0  0  -0.326918  -0.223082  0  3.591959  0
N  N114  1  0.89562551  0.91268213  0.33012589  1  0  -0.237613  0  3.115835  0  0  -0.204942  0  3.396728  0  0  -0.219943  0  3.418464  0  0  -0.196496  -0.194788  0  3.381765  0
N  N115  1  0.10437393  0.08731905  0.66987366  1  0  -0.237655  0  3.115901  0  0  -0.204991  0  3.396811  0  0  -0.219998  0  3.418554  0  0  -0.196498  -0.194828  0  3.381858  0
N  N116  1  0.01758344  0.84573125  0.31833502  1  0  -0.220101  0  3.115731  0  0  -0.188706  0  3.395339  0  0  -0.203034  0  3.418596  0  0  -0.190159  -0.178961  0  3.379712  0
N  N117  1  0.98241727  0.15426824  0.68166427  1  0  -0.220111  0  3.115747  0  0  -0.188713  0  3.395355  0  0  -0.203039  0  3.418614  0  0  -0.190162  -0.178966  0  3.379742  0
N  N118  1  0.49629400  0.17232672  0.97189991  1  0  -0.339228  0  3.116609  0  0  -0.298839  0  3.389199  0  0  -0.310956  0  3.405905  0  0  -0.331934  -0.290448  0  3.378013  0
N  N119  1  0.50370661  0.82767362  0.02810101  1  0  -0.339193  0  3.116498  0  0  -0.2988  0  3.389077  0  0  -0.310919  0  3.40579  0  0  -0.331912  -0.290405  0  3.377891  0
N  N120  1  0.94512017  0.04259587  0.00773304  1  0  -0.252299  0  3.022077  0  0  -0.222516  0  3.300609  0  0  -0.233898  0  3.319365  0  0  -0.212741  -0.215025  0  3.288287  0
N  N121  1  0.05487947  0.95740361  0.99226660  1  0  -0.252266  0  3.021998  0  0  -0.222481  0  3.300515  0  0  -0.233878  0  3.319281  0  0  -0.212729  -0.214993  0  3.288192  0
O  O122  1  0.35919549  0.37058464  0.47029343  1  0  -0.657767  0  2.034227  0  0  -0.583323  0  2.304662  0  0  -0.612306  0  2.290657  0  0  -0.340577  -0.562758  0  2.313358  0
O  O123  1  0.64080394  0.62941654  0.52970611  1  0  -0.657793  0  2.034205  0  0  -0.583347  0  2.304658  0  0  -0.612326  0  2.290646  0  0  -0.340583  -0.56277  0  2.313343  0
O  O124  1  0.34207180  0.36723866  0.28835494  1  0  -0.617981  0  1.92433  0  0  -0.572838  0  2.149057  0  0  -0.595407  0  2.140766  0  0  -0.322787  -0.556961  0  2.15438  0
O  O125  1  0.65792871  0.63276252  0.71164510  1  0  -0.617931  0  1.924266  0  0  -0.572776  0  2.148975  0  0  -0.595343  0  2.140684  0  0  -0.322766  -0.556898  0  2.154307  0
O  O126  1  0.67648499  0.41860994  0.25456384  1  0  -0.644686  0  2.042751  0  0  -0.570724  0  2.317259  0  0  -0.599248  0  2.30186  0  0  -0.330381  -0.550571  0  2.327124  0
O  O127  1  0.32351337  0.58139123  0.74543689  1  0  -0.644688  0  2.042781  0  0  -0.570716  0  2.31727  0  0  -0.599241  0  2.301865  0  0  -0.330369  -0.550569  0  2.327143  0
O  O128  1  0.85715815  0.28341176  0.24429263  1  0  -0.606988  0  1.949614  0  0  -0.557262  0  2.177293  0  0  -0.580115  0  2.168849  0  0  -0.312122  -0.541138  0  2.182541  0
O  O129  1  0.14284052  0.71658687  0.75570824  1  0  -0.606999  0  1.949615  0  0  -0.557282  0  2.1773  0  0  -0.580133  0  2.168862  0  0  -0.312135  -0.541145  0  2.182533  0
