# generated using pymatgen
data_ZnH15C23N3O4F3
_symmetry_space_group_name_H-M   'P 1'
_cell_length_a   13.98278767
_cell_length_b   15.19424036
_cell_length_c   15.24073780
_cell_angle_alpha   88.85413708
_cell_angle_beta   89.50671517
_cell_angle_gamma   91.13645611
_symmetry_Int_Tables_number   1
_chemical_formula_structural   ZnH15C23N3O4F3
_chemical_formula_sum   'Zn2 H30 C46 N6 O8 F6'
_cell_volume   3236.59848608
_cell_formula_units_Z   2
loop_
 _symmetry_equiv_pos_site_id
 _symmetry_equiv_pos_as_xyz
  1  'x, y, z'
loop_
 _atom_site_type_symbol
 _atom_site_label
 _atom_site_symmetry_multiplicity
 _atom_site_fract_x
 _atom_site_fract_y
 _atom_site_fract_z
 _atom_site_occupancy
 _atom_site_pbe_bader_charge
 _atom_site_pbe_bader_spin_density
 _atom_site_pbe_cm5_charge
 _atom_site_pbe_ddec_charge
 _atom_site_pbe_ddec_spin_density
 _atom_site_pbe_ddec_sum_bond_order
 _atom_site_pbe_magmom
Zn  Zn0  1  0.59487463  0.50277626  0.49464251  1  1.301012  0  0.667883  0.817767  0  2.43881  0
Zn  Zn1  1  0.39727768  0.50814615  0.49623149  1  1.283841  0  0.671554  0.821062  0  2.427821  0
H  H2  1  0.67508905  0.10662548  0.65109538  1  0.061064  0  0.096726  0.106518  0  1.024267  0
H  H3  1  0.33399616  0.45205887  0.77644879  1  0.06551  0  0.101165  0.102298  0  1.008991  0
H  H4  1  0.24216944  0.45684875  0.62347497  1  0.183399  0  0.136789  0.141937  0  0.984871  0
H  H5  1  0.74865932  0.41707481  0.39086524  1  0.157923  0  0.142741  0.144653  0  0.951372  0
H  H6  1  0.24575794  0.56059636  0.36880031  1  0.154609  0  0.138632  0.143937  0  0.978017  0
H  H7  1  0.74760870  0.58908073  0.60047489  1  0.162848  0  0.13935  0.139394  0  0.967873  0
H  H8  1  0.33872415  0.17499127  0.33705608  1  0.449465  0  0.285485  0.219421  0  1.056949  0
H  H9  1  0.21867117  0.21252168  0.42598221  1  -0.004425  0  0.08555  0.07862  0  1.00034  0
H  H10  1  0.26188295  0.32144021  0.39779301  1  0.026561  0  0.086763  0.094324  0  1.001875  0
H  H11  1  0.29839497  0.26997522  0.49679606  1  0.067975  0  0.09761  0.109455  0  1.012395  0
H  H12  1  0.63603883  0.83262465  0.69635279  1  0.486122  0  0.293662  0.227896  0  1.050666  0
H  H13  1  0.39067238  0.90369774  0.31596098  1  0.069067  0  0.096699  0.106262  0  1.02297  0
H  H14  1  0.48959367  0.69657246  0.69210590  1  0.065743  0  0.100699  0.113555  0  0.982384  0
H  H15  1  0.58033541  0.71183337  0.77167681  1  0.058694  0  0.102416  0.108088  0  0.981301  0
H  H16  1  0.60266102  0.64773318  0.67751235  1  0.061306  0  0.088899  0.096523  0  1.039247  0
H  H17  1  0.72447646  0.98617154  0.72133097  1  0.395701  0  0.301592  0.244416  0  0.939066  0
H  H18  1  0.83786140  0.87797206  0.68971657  1  0.048115  0  0.099685  0.106887  0  0.985019  0
H  H19  1  0.82801171  0.94877403  0.59461598  1  0.02873  0  0.088743  0.089021  0  0.996769  0
H  H20  1  0.76800914  0.84369657  0.59920655  1  0.061405  0  0.101922  0.111777  0  1.005073  0
H  H21  1  0.33845383  0.02572351  0.24748671  1  0.396953  0  0.301698  0.243626  0  0.941152  0
H  H22  1  0.40256944  0.14133628  0.16012246  1  0.080555  0  0.102243  0.109984  0  0.9814  0
H  H23  1  0.50198382  0.07857575  0.19805955  1  0.025767  0  0.088208  0.08731  0  0.998316  0
H  H24  1  0.63976718  0.49493055  0.93463422  1  0.0686  0  0.099719  0.09809  0  1.009988  0
H  H25  1  0.47159472  0.17923954  0.24926398  1  0.055234  0  0.103809  0.114677  0  1.003716  0
H  H26  1  0.35172320  0.55640623  0.04789650  1  0.078667  0  0.099546  0.097995  0  1.00905  0
H  H27  1  0.62114416  0.42423582  0.06552188  1  0.043837  0  0.099983  0.0984  0  1.006582  0
H  H28  1  0.33363531  0.45603183  0.93950558  1  0.05913  0  0.100172  0.098611  0  1.006542  0
H  H29  1  0.63880581  0.48668676  0.77161283  1  0.077249  0  0.102952  0.10486  0  1.003682  0
H  H30  1  0.35186169  0.57559507  0.20960256  1  0.085439  0  0.102694  0.10398  0  1.00013  0
H  H31  1  0.62330018  0.45016071  0.22631776  1  0.099265  0  0.102606  0.105381  0  1.002085  0
C  C32  1  0.48500431  0.47610191  0.66600486  1  1.583712  0  0.215051  0.59116  0  4.172867  0
C  C33  1  0.41078924  0.54293619  0.17720959  1  -0.043893  0  -0.085629  -0.088572  0  3.996727  0
C  C34  1  0.56412158  0.47284491  0.18627599  1  -0.078112  0  -0.084661  -0.085484  0  3.990477  0
C  C35  1  0.40056963  0.46131509  0.81196736  1  0.022101  0  -0.085875  -0.088634  0  4.003816  0
C  C36  1  0.48619734  0.47092192  0.76404248  1  -0.048323  0  -0.019948  -0.037163  0  3.973464  0
C  C37  1  0.48788474  0.51440068  0.22767711  1  -0.006856  0  -0.017795  -0.030097  0  3.965243  0
C  C38  1  0.48648799  0.47800838  0.94891567  1  -0.037921  0  -0.005056  0.073992  0  4.005778  0
C  C39  1  0.48631311  0.48863006  0.04488968  1  -0.072371  0  -0.006344  0.0698  0  4.008892  0
C  C40  1  0.10097988  0.47812590  0.56853524  1  0.417837  0  0.11781  0.229712  0  4.051756  0
C  C41  1  0.88984513  0.45718347  0.43552125  1  0.441293  0  0.11906  0.228008  0  4.05027  0
C  C42  1  0.10299766  0.53687045  0.42374988  1  0.46923  0  0.117971  0.227934  0  4.050753  0
C  C43  1  0.48838736  0.52469225  0.32503989  1  1.548287  0  0.216815  0.599686  0  4.164439  0
C  C44  1  0.88914502  0.55227726  0.55652566  1  0.454756  0  0.11809  0.227418  0  4.048082  0
C  C45  1  0.20026387  0.47926392  0.56760174  1  0.618265  0  0.051378  -0.039403  0  3.902952  0
C  C46  1  0.79051437  0.45607923  0.43657142  1  0.63829  0  0.056986  -0.029535  0  3.897364  0
C  C47  1  0.20230093  0.53766568  0.42476494  1  0.563153  0  0.052737  -0.038109  0  3.902674  0
C  C48  1  0.78990944  0.55108736  0.55496004  1  0.607035  0  0.054059  -0.032837  0  3.906304  0
C  C49  1  0.04837072  0.50685755  0.49610381  1  0.218281  0  -0.004254  -0.093358  0  4.033251  0
C  C50  1  0.94303102  0.50550211  0.49600556  1  0.05647  0  -0.004641  -0.09349  0  4.032239  0
C  C51  1  0.51179557  0.67385265  0.52180182  1  1.605639  0  0.216006  0.633119  0  4.168112  0
C  C52  1  0.49963442  0.33548611  0.47783770  1  1.588437  0  0.218005  0.63364  0  4.143662  0
C  C53  1  0.43738035  0.18353591  0.42941843  1  0.457263  0  0.103668  0.192827  0  3.989045  0
C  C54  1  0.63720567  0.97451493  0.61830956  1  0.375547  0  0.073043  0.177277  0  4.043979  0
C  C55  1  0.56595226  0.82422602  0.58244874  1  0.467439  0  0.108498  0.197376  0  4.019887  0
C  C56  1  0.49543287  0.23692704  0.48473849  1  0.054271  0  -0.039445  -0.25123  0  3.978294  0
C  C57  1  0.51372494  0.77263520  0.52155170  1  0.057759  0  -0.041666  -0.253687  0  3.989158  0
C  C58  1  0.55823257  0.19562801  0.54206479  1  0.421684  0  0.092401  0.222657  0  4.047235  0
C  C59  1  0.46801868  0.81464924  0.45241090  1  0.370582  0  0.093892  0.22731  0  4.045994  0
C  C60  1  0.56875252  0.10454113  0.54867667  1  0.056269  0  -0.037002  -0.045176  0  4.143153  0
C  C61  1  0.46882582  0.90566328  0.43801026  1  0.014965  0  -0.038456  -0.051094  0  4.150383  0
C  C62  1  0.51867977  0.05176033  0.48699507  1  0.000384  0  0.000585  0.03557  0  3.939568  0
C  C63  1  0.52391789  0.95795471  0.49661584  1  -0.041348  0  -0.001375  0.034043  0  3.944014  0
C  C64  1  0.45885893  0.09194931  0.42217564  1  -0.040462  0  -0.021322  -0.116838  0  3.94803  0
C  C65  1  0.41827595  0.03575311  0.35585248  1  0.310422  0  0.072661  0.174413  0  4.054869  0
C  C66  1  0.57790441  0.91749354  0.56560957  1  0.029265  0  -0.024391  -0.124682  0  3.946261  0
C  C67  1  0.63062217  0.06429861  0.61046095  1  -0.079785  0  -0.118392  -0.251943  0  4.048782  0
C  C68  1  0.42227302  0.94596301  0.36549522  1  -0.005071  0  -0.117526  -0.248884  0  4.051877  0
C  C69  1  0.28110534  0.25808445  0.42814670  1  0.297031  0  -0.147803  -0.198709  0  3.973486  0
C  C70  1  0.56708552  0.70685452  0.70102905  1  0.256077  0  -0.140813  -0.213397  0  3.976347  0
C  C71  1  0.78943812  0.90074320  0.63803290  1  0.235648  0  -0.144763  -0.224505  0  3.970658  0
C  C72  1  0.44210464  0.12008493  0.21845716  1  0.203  0  -0.143335  -0.222929  0  3.964301  0
C  C73  1  0.57251757  0.48414339  0.90039283  1  0.01225  0  -0.093077  -0.139753  0  3.995084  0
C  C74  1  0.41046896  0.53099373  0.08696991  1  -0.041166  0  -0.092919  -0.138074  0  3.994893  0
C  C75  1  0.56283661  0.45926343  0.09636009  1  0.03949  0  -0.093258  -0.138249  0  3.997653  0
C  C76  1  0.40072521  0.46446262  0.90301206  1  -0.112913  0  -0.094056  -0.137944  0  3.996323  0
C  C77  1  0.57242633  0.48040742  0.80934788  1  -0.075046  0  -0.08453  -0.084691  0  3.995198  0
N  N78  1  0.24859524  0.50878712  0.49615265  1  -1.217444  0  -0.299047  -0.122378  0  3.537763  0
N  N79  1  0.74306630  0.50312200  0.49563038  1  -1.226514  0  -0.299629  -0.118608  0  3.540151  0
N  N80  1  0.36243821  0.21944269  0.38221975  1  -1.128004  0  -0.463303  -0.311868  0  3.501024  0
N  N81  1  0.60132309  0.78755096  0.65809506  1  -1.241596  0  -0.445453  -0.276184  0  3.608429  0
N  N82  1  0.70395980  0.93820280  0.67919633  1  -1.10115  0  -0.462539  -0.333457  0  3.466799  0
N  N83  1  0.37534662  0.07353827  0.27971284  1  -1.068705  0  -0.461763  -0.329664  0  3.478596  0
O  O84  1  0.56563506  0.48346184  0.62648807  1  -1.169738  0  -0.317018  -0.556123  0  2.346141  0
O  O85  1  0.40800825  0.53544172  0.36333077  1  -1.169428  0  -0.318946  -0.556363  0  2.326034  0
O  O86  1  0.56905139  0.52014999  0.36286085  1  -1.169782  0  -0.319769  -0.551906  0  2.324236  0
O  O87  1  0.40348966  0.47543445  0.62913804  1  -1.165721  0  -0.319123  -0.553322  0  2.330837  0
O  O88  1  0.59228784  0.63675519  0.51449771  1  -1.160213  0  -0.317358  -0.547626  0  2.29909  0
O  O89  1  0.42222948  0.37787465  0.47478830  1  -1.169104  0  -0.30825  -0.538843  0  2.372932  0
O  O90  1  0.58340768  0.37017742  0.47500841  1  -1.156163  0  -0.324216  -0.555076  0  2.321944  0
O  O91  1  0.43034485  0.63517220  0.52545481  1  -1.15716  0  -0.320833  -0.556661  0  2.33622  0
F  F92  1  0.61089764  0.24543306  0.59841497  1  -0.642064  0  -0.108697  -0.137936  0  1.354741  0
F  F93  1  0.42117534  0.76401220  0.39249732  1  -0.63826  0  -0.107409  -0.137189  0  1.342406  0
F  F94  1  0.05379182  0.44669786  0.64071436  1  -0.619464  0  -0.087167  -0.121764  0  1.337556  0
F  F95  1  0.93648436  0.40904443  0.37577213  1  -0.623774  0  -0.085361  -0.118985  0  1.338674  0
F  F96  1  0.05778507  0.56706301  0.35148245  1  -0.619154  0  -0.085843  -0.119529  0  1.337393  0
F  F97  1  0.93495251  0.60128741  0.61685108  1  -0.620799  0  -0.086851  -0.12072  0  1.335361  0
