# generated using pymatgen
data_CdH24C28(N2O3)2
_symmetry_space_group_name_H-M   'P 1'
_cell_length_a   9.78145432
_cell_length_b   11.34903692
_cell_length_c   12.21800552
_cell_angle_alpha   102.33508866
_cell_angle_beta   106.85616844
_cell_angle_gamma   99.32898862
_symmetry_Int_Tables_number   1
_chemical_formula_structural   CdH24C28(N2O3)2
_chemical_formula_sum   'Cd2 H48 C56 N8 O12'
_cell_volume   1231.13343804
_cell_formula_units_Z   2
loop_
 _symmetry_equiv_pos_site_id
 _symmetry_equiv_pos_as_xyz
  1  'x, y, z'
loop_
 _atom_site_type_symbol
 _atom_site_label
 _atom_site_symmetry_multiplicity
 _atom_site_fract_x
 _atom_site_fract_y
 _atom_site_fract_z
 _atom_site_occupancy
 _atom_site_hle17_bader_spin_density
 _atom_site_hle17_ddec_charge
 _atom_site_hle17_ddec_spin_density
 _atom_site_hle17_ddec_sum_bond_order
 _atom_site_hle17_magmom
 _atom_site_hse06_10hf_bader_spin_density
 _atom_site_hse06_10hf_ddec_charge
 _atom_site_hse06_10hf_ddec_spin_density
 _atom_site_hse06_10hf_ddec_sum_bond_order
 _atom_site_hse06_10hf_magmom
 _atom_site_hse06_bader_spin_density
 _atom_site_hse06_ddec_charge
 _atom_site_hse06_ddec_spin_density
 _atom_site_hse06_ddec_sum_bond_order
 _atom_site_hse06_magmom
 _atom_site_pbe_bader_spin_density
 _atom_site_pbe_cm5_charge
 _atom_site_pbe_ddec_charge
 _atom_site_pbe_ddec_spin_density
 _atom_site_pbe_ddec_sum_bond_order
 _atom_site_pbe_magmom
Cd  Cd0  1  0.35315682  0.08432798  0.88223358  1  0  1.157466  0  1.635257  0  0  0.966995  0  2.078261  0  0  1.025135  0  2.025458  0  0  0.786294  0.925922  0  2.113942  0
Cd  Cd1  1  0.64684135  0.91567230  0.11776472  1  0  1.157445  0  1.635339  0  0  0.966948  0  2.078394  0  0  1.025088  0  2.02559  0  0  0.786272  0.925876  0  2.114074  0
H  H2  1  0.91041397  0.16724054  0.37381675  1  0  0.118159  0  0.992613  0  0  0.126174  0  1.060356  0  0  0.130059  0  1.058049  0  0  0.100753  0.123418  0  1.062033  0
H  H3  1  0.08959231  0.83277005  0.62618868  1  0  0.11821  0  0.992576  0  0  0.126208  0  1.060298  0  0  0.130112  0  1.057947  0  0  0.100784  0.12345  0  1.06199  0
H  H4  1  0.80650947  0.26782062  0.22076131  1  0  0.084612  0  0.960845  0  0  0.097237  0  1.018219  0  0  0.099597  0  1.01763  0  0  0.095838  0.095503  0  1.018735  0
H  H5  1  0.19349259  0.73218623  0.77924241  1  0  0.084613  0  0.960793  0  0  0.097228  0  1.018185  0  0  0.099585  0  1.017596  0  0  0.095849  0.095495  0  1.0187  0
H  H6  1  0.83717346  0.49803717  0.27068776  1  0  0.101028  0  0.970057  0  0  0.109626  0  1.035623  0  0  0.113617  0  1.032452  0  0  0.100346  0.106765  0  1.037988  0
H  H7  1  0.16282002  0.50196964  0.72931637  1  0  0.101026  0  0.970081  0  0  0.109625  0  1.035636  0  0  0.113615  0  1.03247  0  0  0.100374  0.106762  0  1.03801  0
H  H8  1  0.15304935  0.15743053  0.51373172  1  0  0.08025  0  0.927198  0  0  0.092266  0  0.991749  0  0  0.093271  0  0.99139  0  0  0.103983  0.091503  0  0.992119  0
H  H9  1  0.84694630  0.84257623  0.48626801  1  0  0.080253  0  0.927185  0  0  0.092245  0  0.991784  0  0  0.093248  0  0.991426  0  0  0.103989  0.091481  0  0.992155  0
H  H10  1  0.98014905  0.10234402  0.52758981  1  0  0.086204  0  0.958528  0  0  0.096218  0  1.028562  0  0  0.097526  0  1.027773  0  0  0.107853  0.095208  0  1.029245  0
H  H11  1  0.01984551  0.89766279  0.47241376  1  0  0.086244  0  0.958485  0  0  0.096232  0  1.028569  0  0  0.09754  0  1.027782  0  0  0.107881  0.095221  0  1.029252  0
H  H12  1  0.22730854  0.43489142  0.42703266  1  0  0.090503  0  0.979487  0  0  0.099684  0  1.043656  0  0  0.100993  0  1.04556  0  0  0.098455  0.09933  0  1.041178  0
H  H13  1  0.77270909  0.56511367  0.57297199  1  0  0.09034  0  0.979515  0  0  0.099521  0  1.043699  0  0  0.100833  0  1.0456  0  0  0.098367  0.099168  0  1.041223  0
H  H14  1  0.37115330  0.35016500  0.58052808  1  0  0.099399  0  0.950897  0  0  0.110243  0  1.010945  0  0  0.112905  0  1.010346  0  0  0.102786  0.108311  0  1.011339  0
H  H15  1  0.62886929  0.64984668  0.41948306  1  0  0.099313  0  0.951109  0  0  0.110144  0  1.011162  0  0  0.112805  0  1.010565  0  0  0.102764  0.108227  0  1.011519  0
H  H16  1  0.69904312  0.31185086  0.62674399  1  0  0.093017  0  0.93339  0  0  0.107447  0  0.997744  0  0  0.108031  0  0.997609  0  0  0.117099  0.106959  0  0.997856  0
H  H17  1  0.30096145  0.68814951  0.37325830  1  0  0.092999  0  0.933383  0  0  0.107476  0  0.997712  0  0  0.108032  0  0.997603  0  0  0.117103  0.106986  0  0.997828  0
H  H18  1  0.78298937  0.46121704  0.72635225  1  0  0.091231  0  0.911561  0  0  0.107173  0  0.970993  0  0  0.107745  0  0.971407  0  0  0.116163  0.106488  0  0.971114  0
H  H19  1  0.21702296  0.53878073  0.27365959  1  0  0.091231  0  0.91154  0  0  0.107148  0  0.971025  0  0  0.107698  0  0.971459  0  0  0.116147  0.106475  0  0.971133  0
H  H20  1  0.56515760  0.15899768  0.69756876  1  0  0.085562  0  0.999079  0  0  0.090607  0  1.074164  0  0  0.091022  0  1.074943  0  0  0.126291  0.090194  0  1.073701  0
H  H21  1  0.43484538  0.84100085  0.30243445  1  0  0.085565  0  0.999124  0  0  0.090578  0  1.074243  0  0  0.091037  0  1.074978  0  0  0.126289  0.090166  0  1.073776  0
H  H22  1  0.49767448  0.38684486  0.98849187  1  0  0.105827  0  0.963327  0  0  0.116695  0  1.022068  0  0  0.118829  0  1.021457  0  0  0.118018  0.115182  0  1.022489  0
H  H23  1  0.50232980  0.61315468  0.01151757  1  0  0.105928  0  0.96367  0  0  0.116782  0  1.022392  0  0  0.118915  0  1.02178  0  0  0.118075  0.115271  0  1.022812  0
H  H24  1  0.61714868  0.53764557  0.86900247  1  0  0.123678  0  0.948075  0  0  0.134235  0  1.007426  0  0  0.137592  0  1.005192  0  0  0.124674  0.131718  0  1.009203  0
H  H25  1  0.38286224  0.46235860  0.13100450  1  0  0.123666  0  0.948439  0  0  0.134239  0  1.007753  0  0  0.137589  0  1.005534  0  0  0.12468  0.131721  0  1.00953  0
H  H26  1  0.76645780  0.14675780  0.51620176  1  0  0.109472  0  0.970259  0  0  0.11473  0  1.041505  0  0  0.11864  0  1.038192  0  0  0.10408  0.112024  0  1.043807  0
H  H27  1  0.23353420  0.85324335  0.48379442  1  0  0.109418  0  0.970291  0  0  0.114665  0  1.041559  0  0  0.118574  0  1.038245  0  0  0.104065  0.111961  0  1.043859  0
H  H28  1  0.87997827  0.05655702  0.67823210  1  0  0.083249  0  0.974422  0  0  0.096044  0  1.034511  0  0  0.098278  0  1.033752  0  0  0.099287  0.094363  0  1.035205  0
H  H29  1  0.12001562  0.94344320  0.32176353  1  0  0.083235  0  0.974429  0  0  0.096091  0  1.034427  0  0  0.09832  0  1.033664  0  0  0.099319  0.094408  0  1.035122  0
H  H30  1  0.72752260  0.90273832  0.73769265  1  0  0.101689  0  0.984414  0  0  0.114852  0  1.046212  0  0  0.117516  0  1.045613  0  0  0.100057  0.112832  0  1.046916  0
H  H31  1  0.27247532  0.09726103  0.26230459  1  0  0.101684  0  0.984546  0  0  0.114858  0  1.046322  0  0  0.117523  0  1.04572  0  0  0.10006  0.112837  0  1.047023  0
H  H32  1  0.58639964  0.72199109  0.70371582  1  0  0.076277  0  0.952428  0  0  0.084106  0  1.023003  0  0  0.085785  0  1.022123  0  0  0.102259  0.082888  0  1.023803  0
H  H33  1  0.41360017  0.27800732  0.29628007  1  0  0.076246  0  0.952449  0  0  0.084091  0  1.023023  0  0  0.085772  0  1.022143  0  0  0.102269  0.082873  0  1.023821  0
H  H34  1  0.40354737  0.67227710  0.70086011  1  0  0.10214  0  0.93394  0  0  0.113113  0  0.996551  0  0  0.114221  0  0.996995  0  0  0.114876  0.112296  0  0.996375  0
H  H35  1  0.59645507  0.32772323  0.29914004  1  0  0.102119  0  0.933947  0  0  0.113099  0  0.996569  0  0  0.114204  0  0.997019  0  0  0.114869  0.11228  0  0.996393  0
H  H36  1  0.30384416  0.90750092  0.06908881  1  0  0.097562  0  0.983484  0  0  0.101964  0  1.058295  0  0  0.104465  0  1.055528  0  0  0.129475  0.100079  0  1.060441  0
H  H37  1  0.69615323  0.09249661  0.93091125  1  0  0.097606  0  0.9834  0  0  0.101994  0  1.058241  0  0  0.104494  0  1.055475  0  0  0.129484  0.10011  0  1.060382  0
H  H38  1  0.84413339  0.80345628  0.88965872  1  0  0.121066  0  0.958652  0  0  0.13065  0  1.020326  0  0  0.133909  0  1.018269  0  0  0.121575  0.12844  0  1.021727  0
H  H39  1  0.15586672  0.19653941  0.11034083  1  0  0.121046  0  0.958689  0  0  0.130666  0  1.020321  0  0  0.133905  0  1.01829  0  0  0.121575  0.128455  0  1.021722  0
H  H40  1  0.98307673  0.94301634  0.77061569  1  0  0.096016  0  0.976843  0  0  0.107117  0  1.037991  0  0  0.108851  0  1.037552  0  0  0.114715  0.105736  0  1.038605  0
H  H41  1  0.01692071  0.05697749  0.22938451  1  0  0.096054  0  0.976645  0  0  0.107158  0  1.037795  0  0  0.108894  0  1.037352  0  0  0.114701  0.105776  0  1.038409  0
H  H42  1  0.95781999  0.79004803  0.11597526  1  0  0.110678  0  0.954905  0  0  0.12374  0  1.016531  0  0  0.125607  0  1.015075  0  0  0.11689  0.12247  0  1.017418  0
H  H43  1  0.04217519  0.20993740  0.88401957  1  0  0.110526  0  0.954971  0  0  0.123678  0  1.016576  0  0  0.125545  0  1.015123  0  0  0.116888  0.122409  0  1.017461  0
H  H44  1  0.14959832  0.80282054  0.16543965  1  0  0.077514  0  0.948647  0  0  0.091786  0  1.015893  0  0  0.091812  0  1.016605  0  0  0.109378  0.091791  0  1.015327  0
H  H45  1  0.85039484  0.19715744  0.83455250  1  0  0.077511  0  0.948601  0  0  0.091821  0  1.015888  0  0  0.091843  0  1.016606  0  0  0.109422  0.091824  0  1.015321  0
H  H46  1  0.15183329  0.63631012  0.92302977  1  0  0.086273  0  0.972835  0  0  0.096708  0  1.037867  0  0  0.098742  0  1.037744  0  0  0.097163  0.095249  0  1.037996  0
H  H47  1  0.84815872  0.36367519  0.07695774  1  0  0.086226  0  0.972697  0  0  0.096686  0  1.037716  0  0  0.098716  0  1.037589  0  0  0.097166  0.095229  0  1.037847  0
H  H48  1  0.11151900  0.40562439  0.85435987  1  0  0.109755  0  0.962209  0  0  0.117265  0  1.026721  0  0  0.121124  0  1.023811  0  0  0.102705  0.114433  0  1.028816  0
H  H49  1  0.88846950  0.59436365  0.14562567  1  0  0.109768  0  0.962004  0  0  0.11729  0  1.026517  0  0  0.121149  0  1.023608  0  0  0.10272  0.114465  0  1.028607  0
C  C50  1  0.01062944  0.33978129  0.51287383  1  0  0.216117  0  3.796578  0  0  0.206456  0  4.053692  0  0  0.216451  0  4.069661  0  0  0.079767  0.199445  0  4.042714  0
C  C51  1  0.98936563  0.66022736  0.48712939  1  0  0.216194  0  3.796608  0  0  0.206544  0  4.05372  0  0  0.216535  0  4.069694  0  0  0.079828  0.199531  0  4.042748  0
C  C52  1  0.93127164  0.26816423  0.39768608  1  0  -0.216025  0  3.769536  0  0  -0.241509  0  4.028775  0  0  -0.246631  0  4.047308  0  0  -0.120796  -0.238235  0  4.016516  0
C  C53  1  0.06873043  0.73184260  0.60231601  1  0  -0.216143  0  3.76943  0  0  -0.241589  0  4.0287  0  0  -0.246713  0  4.047232  0  0  -0.120799  -0.238312  0  4.016426  0
C  C54  1  0.86975523  0.32645291  0.31049192  1  0  -0.043953  0  3.815889  0  0  -0.05592  0  4.072288  0  0  -0.055242  0  4.091913  0  0  -0.099611  -0.056024  0  4.059134  0
C  C55  1  0.13024316  0.67354835  0.68950989  1  0  -0.043943  0  3.815927  0  0  -0.055908  0  4.072312  0  0  -0.055229  0  4.091945  0  0  -0.099615  -0.056011  0  4.059162  0
C  C56  1  0.88645739  0.45338147  0.33743463  1  0  -0.143348  0  3.782613  0  0  -0.172908  0  4.046819  0  0  -0.174253  0  4.064235  0  0  -0.110879  -0.172202  0  4.034801  0
C  C57  1  0.11353692  0.54662438  0.66256707  1  0  -0.143295  0  3.78275  0  0  -0.172842  0  4.046941  0  0  -0.174186  0  4.064345  0  0  -0.110937  -0.172141  0  4.034928  0
C  C58  1  0.96819858  0.52810173  0.45484676  1  0  -0.027304  0  3.805415  0  0  -0.015492  0  4.036831  0  0  -0.01704  0  4.059695  0  0  -0.021202  -0.013908  0  4.019481  0
C  C59  1  0.03179251  0.47190412  0.54515580  1  0  -0.027454  0  3.805493  0  0  -0.015637  0  4.036907  0  0  -0.017182  0  4.059762  0  0  -0.021146  -0.014052  0  4.019558  0
C  C60  1  0.08835613  0.16838591  0.57412858  1  0  -0.061984  0  3.632622  0  0  -0.118445  0  3.891414  0  0  -0.114793  0  3.89224  0  0  -0.068914  -0.120915  0  3.890847  0
C  C61  1  0.91163951  0.83162089  0.42587361  1  0  -0.062055  0  3.632567  0  0  -0.118516  0  3.891438  0  0  -0.114872  0  3.892269  0  0  -0.068975  -0.120986  0  3.890871  0
C  C62  1  0.16575850  0.13550856  0.68666161  1  0  0.634869  0  3.935546  0  0  0.586195  0  4.238536  0  0  0.61861  0  4.233369  0  0  0.181344  0.564206  0  4.241292  0
C  C63  1  0.83424005  0.86450102  0.31334015  1  0  0.635151  0  3.935056  0  0  0.586483  0  4.238048  0  0  0.618903  0  4.232876  0  0  0.181461  0.564495  0  4.240806  0
C  C64  1  0.34726878  0.46372245  0.45880281  1  0  -0.115327  0  3.747575  0  0  -0.130746  0  3.991181  0  0  -0.133329  0  4.01336  0  0  -0.091396  -0.128989  0  3.975091  0
C  C65  1  0.65275199  0.53628641  0.54120574  1  0  -0.115141  0  3.747099  0  0  -0.130517  0  3.990725  0  0  -0.133094  0  4.012912  0  0  -0.091271  -0.128762  0  3.97464  0
C  C66  1  0.42856180  0.41563700  0.54543918  1  0  -0.113954  0  3.742461  0  0  -0.13659  0  3.995336  0  0  -0.139103  0  4.016789  0  0  -0.09268  -0.134816  0  3.980777  0
C  C67  1  0.57145433  0.58437829  0.45456864  1  0  -0.113836  0  3.742561  0  0  -0.136497  0  3.995363  0  0  -0.139018  0  4.016812  0  0  -0.09268  -0.134721  0  3.980808  0
C  C68  1  0.58247738  0.45117852  0.58726900  1  0  0.069073  0  3.744849  0  0  0.087252  0  3.986066  0  0  0.086896  0  4.009312  0  0  -0.013319  0.087334  0  3.970734  0
C  C69  1  0.41753986  0.54883310  0.41274005  1  0  0.068962  0  3.745291  0  0  0.087263  0  3.986338  0  0  0.086931  0  4.009541  0  0  -0.013373  0.087341  0  3.971014  0
C  C70  1  0.67596703  0.39559815  0.67508628  1  0  -0.037766  0  3.634699  0  0  -0.103948  0  3.881595  0  0  -0.09914  0  3.891614  0  0  -0.041269  -0.107163  0  3.875122  0
C  C71  1  0.32404579  0.60440509  0.32492015  1  0  -0.037777  0  3.634813  0  0  -0.104031  0  3.881689  0  0  -0.099189  0  3.891709  0  0  -0.041279  -0.107255  0  3.875214  0
C  C72  1  0.56333152  0.23992280  0.76245256  1  0  0.157837  0  3.660674  0  0  0.098188  0  3.925155  0  0  0.112402  0  3.939776  0  0  0.136851  0.088837  0  3.915212  0
C  C73  1  0.43667519  0.76007760  0.23755107  1  0  0.157885  0  3.660885  0  0  0.098258  0  3.925375  0  0  0.112434  0  3.939966  0  0  0.136851  0.088907  0  3.915433  0
C  C74  1  0.52986998  0.36258000  0.91057006  1  0  0.012376  0  3.748702  0  0  -0.020438  0  4.011489  0  0  -0.018192  0  4.032373  0  0  -0.001077  -0.021936  0  3.997071  0
C  C75  1  0.47014455  0.63742125  0.08942494  1  0  0.012379  0  3.748374  0  0  -0.02043  0  4.011171  0  0  -0.018179  0  4.032048  0  0  -0.001042  -0.021926  0  3.996749  0
C  C76  1  0.58781395  0.43747402  0.85235044  1  0  -0.067522  0  3.667921  0  0  -0.107706  0  3.925462  0  0  -0.106848  0  3.944566  0  0  0.001028  -0.108074  0  3.91239  0
C  C77  1  0.41218489  0.56251345  0.14765628  1  0  -0.067545  0  3.667553  0  0  -0.107746  0  3.925122  0  0  -0.106888  0  3.944217  0  0  0.000981  -0.108116  0  3.912056  0
C  C78  1  0.54524056  0.04504822  0.48423272  1  0  -0.033536  0  3.781705  0  0  -0.019157  0  4.009473  0  0  -0.020923  0  4.031027  0  0  -0.017768  -0.018073  0  3.995035  0
C  C79  1  0.45475331  0.95495206  0.51576701  1  0  -0.033627  0  3.781479  0  0  -0.01907  0  4.009122  0  0  -0.020835  0  4.030675  0  0  -0.017807  -0.017986  0  3.994688  0
C  C80  1  0.69944289  0.08066429  0.54364770  1  0  -0.118618  0  3.769718  0  0  -0.151452  0  4.038621  0  0  -0.150796  0  4.053428  0  0  -0.106174  -0.152046  0  4.028936  0
C  C81  1  0.30054968  0.91933500  0.45634745  1  0  -0.118452  0  3.769566  0  0  -0.151309  0  4.038462  0  0  -0.150652  0  4.053266  0  0  -0.106085  -0.151908  0  4.028778  0
C  C82  1  0.76137312  0.02879390  0.63250695  1  0  -0.069363  0  3.839188  0  0  -0.081557  0  4.098133  0  0  -0.081214  0  4.116975  0  0  -0.102596  -0.081601  0  4.085503  0
C  C83  1  0.23862208  0.97120728  0.36749082  1  0  -0.069375  0  3.839089  0  0  -0.08161  0  4.09805  0  0  -0.081257  0  4.116881  0  0  -0.102626  -0.081652  0  4.085419  0
C  C84  1  0.67490307  0.94023399  0.66601716  1  0  -0.227215  0  3.794326  0  0  -0.251235  0  4.05237  0  0  -0.25694  0  4.072167  0  0  -0.122586  -0.247403  0  4.039074  0
C  C85  1  0.32509323  0.05976716  0.33397758  1  0  -0.227106  0  3.794232  0  0  -0.251182  0  4.052281  0  0  -0.256888  0  4.072081  0  0  -0.122538  -0.247345  0  4.038978  0
C  C86  1  0.52405123  0.90244991  0.60787150  1  0  0.240563  0  3.778484  0  0  0.226979  0  4.036713  0  0  0.238542  0  4.051993  0  0  0.088487  0.219036  0  4.026266  0
C  C87  1  0.47594132  0.09754941  0.39212611  1  0  0.240355  0  3.778606  0  0  0.226856  0  4.036762  0  0  0.238419  0  4.052045  0  0  0.088413  0.218918  0  4.026313  0
C  C88  1  0.49085074  0.75465955  0.71712696  1  0  -0.073603  0  3.635326  0  0  -0.131612  0  3.897269  0  0  -0.128381  0  3.89818  0  0  -0.069705  -0.134063  0  3.896891  0
C  C89  1  0.50915120  0.24533891  0.28287190  1  0  -0.073516  0  3.635208  0  0  -0.131586  0  3.897191  0  0  -0.128361  0  3.898127  0  0  -0.069683  -0.134028  0  3.896805  0
C  C90  1  0.53039831  0.83156866  0.84620554  1  0  0.663132  0  3.905528  0  0  0.611853  0  4.212024  0  0  0.645451  0  4.204459  0  0  0.195311  0.589236  0  4.216296  0
C  C91  1  0.46960420  0.16842796  0.15379311  1  0  0.663183  0  3.905374  0  0  0.61188  0  4.211927  0  0  0.645479  0  4.204363  0  0  0.195365  0.589263  0  4.216196  0
C  C92  1  0.19887249  0.89838006  0.00246636  1  0  0.155024  0  3.669219  0  0  0.09241  0  3.938765  0  0  0.106257  0  3.952185  0  0  0.136415  0.083375  0  3.929648  0
C  C93  1  0.80112753  0.10161939  0.99753795  1  0  0.154909  0  3.669294  0  0  0.092313  0  3.938804  0  0  0.106165  0  3.952222  0  0  0.136414  0.083279  0  3.929686  0
C  C94  1  0.95873137  0.84496253  0.90594931  1  0  -0.06469  0  3.657944  0  0  -0.105405  0  3.919277  0  0  -0.104151  0  3.937916  0  0  -0.000139  -0.106254  0  3.906831  0
C  C95  1  0.04126153  0.15503035  0.09405046  1  0  -0.064725  0  3.658134  0  0  -0.105471  0  3.919452  0  0  -0.104197  0  3.938099  0  0  -8.5e-05  -0.106321  0  3.907006  0
C  C96  1  0.02849580  0.91523383  0.85020996  1  0  0.003759  0  3.767619  0  0  -0.03211  0  4.03998  0  0  -0.029893  0  4.061199  0  0  -0.004051  -0.0336  0  4.025798  0
C  C97  1  0.97150106  0.08476547  0.14978457  1  0  0.003679  0  3.767682  0  0  -0.032198  0  4.040055  0  0  -0.029983  0  4.06127  0  0  -0.004075  -0.033686  0  4.025871  0
C  C98  1  0.04912293  0.76767319  0.08693718  1  0  -0.053913  0  3.653894  0  0  -0.117686  0  3.896368  0  0  -0.113517  0  3.906621  0  0  -0.050932  -0.120363  0  3.889225  0
C  C99  1  0.95087278  0.23231405  0.91305483  1  0  -0.053601  0  3.653439  0  0  -0.117651  0  3.896269  0  0  -0.113484  0  3.906527  0  0  -0.051002  -0.120328  0  3.889132  0
C  C100  1  0.02230482  0.62911423  0.03874496  1  0  0.066634  0  3.758161  0  0  0.084732  0  3.997898  0  0  0.084051  0  4.022045  0  0  -0.019031  0.085257  0  3.98151  0
C  C101  1  0.97768154  0.37087378  0.96123924  1  0  0.066495  0  3.757856  0  0  0.084635  0  3.997668  0  0  0.083955  0  4.021807  0  0  -0.018977  0.085158  0  3.981278  0
C  C102  1  0.08437801  0.57657043  0.95630068  1  0  -0.121422  0  3.785763  0  0  -0.145286  0  4.040748  0  0  -0.147772  0  4.064009  0  0  -0.099344  -0.143662  0  4.025042  0
C  C103  1  0.91561153  0.42342126  0.04368088  1  0  -0.121255  0  3.785549  0  0  -0.145117  0  4.040511  0  0  -0.147592  0  4.063763  0  0  -0.099343  -0.143498  0  4.024809  0
C  C104  1  0.06247507  0.44809903  0.91775703  1  0  -0.121269  0  3.750217  0  0  -0.137175  0  3.996153  0  0  -0.140062  0  4.01715  0  0  -0.094394  -0.135115  0  3.981812  0
C  C105  1  0.93751321  0.55188800  0.08222254  1  0  -0.12142  0  3.750215  0  0  -0.137368  0  3.996215  0  0  -0.140256  0  4.017211  0  0  -0.094487  -0.135316  0  3.981869  0
N  N106  1  0.51545801  0.23952332  0.85402723  1  0  -0.398211  0  3.246423  0  0  -0.321057  0  3.524549  0  0  -0.343241  0  3.542342  0  0  -0.357782  -0.305935  0  3.512201  0
N  N107  1  0.48454521  0.76047618  0.14597950  1  0  -0.398287  0  3.246706  0  0  -0.321125  0  3.524825  0  0  -0.343315  0  3.542635  0  0  -0.357775  -0.306003  0  3.512476  0
N  N108  1  0.60908506  0.35842960  0.75884093  1  0  -0.05628  0  3.573686  0  0  0.038555  0  3.790498  0  0  0.023761  0  3.816745  0  0  -0.239428  0.048345  0  3.772739  0
N  N109  1  0.39092000  0.64157266  0.24116430  1  0  -0.05627  0  3.573613  0  0  0.038589  0  3.790422  0  0  0.0238  0  3.81666  0  0  -0.239455  0.048377  0  3.77267  0
N  N110  1  0.17795965  0.94814158  0.91128261  1  0  -0.398408  0  3.279286  0  0  -0.319871  0  3.562966  0  0  -0.342321  0  3.580754  0  0  -0.363102  -0.304484  0  3.550293  0
N  N111  1  0.82203798  0.05185691  0.08871932  1  0  -0.398389  0  3.279508  0  0  -0.319833  0  3.563155  0  0  -0.34229  0  3.580956  0  0  -0.363125  -0.304445  0  3.550477  0
N  N112  1  0.06864695  0.83583296  0.00225459  1  0  -0.055251  0  3.610643  0  0  0.039345  0  3.825888  0  0  0.024648  0  3.852821  0  0  -0.244488  0.049039  0  3.807687  0
N  N113  1  0.93135182  0.16416180  0.99774528  1  0  -0.055217  0  3.610531  0  0  0.039454  0  3.825824  0  0  0.024759  0  3.852737  0  0  -0.244487  0.049146  0  3.80762  0
O  O114  1  0.49653896  0.93459566  0.86886671  1  0  -0.668143  0  2.051976  0  0  -0.603359  0  2.320735  0  0  -0.631394  0  2.30749  0  0  -0.335417  -0.583779  0  2.32917  0
O  O115  1  0.50346273  0.06540188  0.13113192  1  0  -0.668224  0  2.052024  0  0  -0.60343  0  2.320799  0  0  -0.631462  0  2.307553  0  0  -0.335463  -0.583849  0  2.329236  0
O  O116  1  0.59704424  0.78203709  0.92384928  1  0  -0.647552  0  1.940545  0  0  -0.586033  0  2.184585  0  0  -0.614103  0  2.173272  0  0  -0.333705  -0.5663  0  2.191336  0
O  O117  1  0.40295372  0.21795858  0.07614975  1  0  -0.647539  0  1.940423  0  0  -0.586023  0  2.184494  0  0  -0.614091  0  2.17318  0  0  -0.333733  -0.56629  0  2.191244  0
O  O118  1  0.18608122  0.20726352  0.78769317  1  0  -0.625868  0  1.972509  0  0  -0.569872  0  2.208848  0  0  -0.595695  0  2.199756  0  0  -0.327155  -0.551822  0  2.214255  0
O  O119  1  0.81391866  0.79274697  0.21230744  1  0  -0.626036  0  1.97248  0  0  -0.570018  0  2.208831  0  0  -0.595845  0  2.199735  0  0  -0.327219  -0.55197  0  2.214243  0
O  O120  1  0.20673977  0.03390251  0.67075056  1  0  -0.64664  0  1.950655  0  0  -0.586347  0  2.193886  0  0  -0.615799  0  2.186852  0  0  -0.334909  -0.565814  0  2.197968  0
O  O121  1  0.79325769  0.96610710  0.32925422  1  0  -0.646726  0  1.950209  0  0  -0.586455  0  2.193505  0  0  -0.615886  0  2.186424  0  0  -0.334958  -0.565924  0  2.197587  0
O  O122  1  0.43089988  0.81490737  0.62965874  1  0  -0.243628  0  2.384258  0  0  -0.169255  0  2.613165  0  0  -0.187965  0  2.618621  0  0  -0.168156  -0.156119  0  2.609153  0
O  O123  1  0.56909777  0.18509109  0.37034155  1  0  -0.243527  0  2.384247  0  0  -0.169095  0  2.613084  0  0  -0.187804  0  2.618545  0  0  -0.168104  -0.155972  0  2.609082  0
O  O124  1  0.07412133  0.29333829  0.60430401  1  0  -0.257096  0  2.374069  0  0  -0.186463  0  2.608073  0  0  -0.203624  0  2.610518  0  0  -0.17824  -0.174509  0  2.605945  0
O  O125  1  0.92587431  0.70666850  0.39569817  1  0  -0.257104  0  2.374206  0  0  -0.186496  0  2.608242  0  0  -0.203649  0  2.610677  0  0  -0.178246  -0.174545  0  2.606115  0
