# generated using pymatgen
data_NiH6(C3N2)2
_symmetry_space_group_name_H-M   'P 1'
_cell_length_a   7.45705076
_cell_length_b   8.72097662
_cell_length_c   10.38951691
_cell_angle_alpha   90.00007236
_cell_angle_beta   90.00034079
_cell_angle_gamma   89.99998639
_symmetry_Int_Tables_number   1
_chemical_formula_structural   NiH6(C3N2)2
_chemical_formula_sum   'Ni4 H24 C24 N16'
_cell_volume   675.65901453
_cell_formula_units_Z   4
loop_
 _symmetry_equiv_pos_site_id
 _symmetry_equiv_pos_as_xyz
  1  'x, y, z'
loop_
 _atom_site_type_symbol
 _atom_site_label
 _atom_site_symmetry_multiplicity
 _atom_site_fract_x
 _atom_site_fract_y
 _atom_site_fract_z
 _atom_site_occupancy
 _atom_site_pbe_bader_charge
 _atom_site_pbe_bader_spin_density
 _atom_site_pbe_cm5_charge
 _atom_site_pbe_ddec_charge
 _atom_site_pbe_ddec_spin_density
 _atom_site_pbe_ddec_sum_bond_order
 _atom_site_pbe_magmom
Ni  Ni0  1  0.00000078  0.56633100  0.24999982  1  0.843224  0  0.654348  0.374263  0  2.990604  0
Ni  Ni1  1  0.50000013  0.06633076  0.24999990  1  0.843106  0  0.654349  0.374263  0  2.990608  0
Ni  Ni2  1  0.99999973  0.43366787  0.75000122  1  0.843182  0  0.654343  0.37429  0  2.990585  0
Ni  Ni3  1  0.50000038  0.93366926  0.75000017  1  0.843205  0  0.654364  0.374272  0  2.990642  0
H  H4  1  0.16055911  0.24991232  0.16267667  1  0.094737  0  0.122038  0.076457  0  1.063129  0
H  H5  1  0.66055932  0.74991241  0.33732135  1  0.094768  0  0.122043  0.076461  0  1.063132  0
H  H6  1  0.16056210  0.75008437  0.66267360  1  0.094713  0  0.122023  0.076409  0  1.063167  0
H  H7  1  0.33944075  0.74991249  0.16267824  1  0.094758  0  0.122048  0.076468  0  1.063127  0
H  H8  1  0.83943873  0.75008426  0.83732822  1  0.094701  0  0.12202  0.076384  0  1.063167  0
H  H9  1  0.33944119  0.25008760  0.66267969  1  0.094779  0  0.12203  0.076433  0  1.063122  0
H  H10  1  0.83944110  0.24990647  0.33732070  1  0.094729  0  0.122059  0.076472  0  1.063117  0
H  H11  1  0.66055842  0.25008752  0.83732184  1  0.094756  0  0.122049  0.076459  0  1.063122  0
H  H12  1  0.25173389  0.52422897  0.49136746  1  0.08337  0  0.111363  0.098724  0  1.054402  0
H  H13  1  0.75173417  0.02422886  0.00863191  1  0.083369  0  0.111333  0.098662  0  1.054374  0
H  H14  1  0.25173427  0.47577325  0.99136659  1  0.083383  0  0.111335  0.098642  0  1.054431  0
H  H15  1  0.24826744  0.02422878  0.49136778  1  0.083368  0  0.111327  0.098652  0  1.0544  0
H  H16  1  0.74826796  0.47577792  0.50862876  1  0.083419  0  0.111327  0.098668  0  1.05444  0
H  H17  1  0.24826500  0.97576542  0.99136431  1  0.083385  0  0.11135  0.098695  0  1.054425  0
H  H18  1  0.74826624  0.52422905  0.00863252  1  0.083381  0  0.111335  0.098687  0  1.05438  0
H  H19  1  0.75173441  0.97576894  0.50863229  1  0.083343  0  0.111342  0.098693  0  1.054424  0
H  H20  1  0.49667393  0.28410217  0.48721138  1  0.0958  0  0.11295  0.106929  0  1.040854  0
H  H21  1  0.99667405  0.78410245  0.01278930  1  0.095837  0  0.112954  0.106948  0  1.040832  0
H  H22  1  0.49666754  0.71590689  0.98721207  1  0.095802  0  0.112983  0.10701  0  1.04084  0
H  H23  1  0.00332600  0.78410242  0.48720941  1  0.095824  0  0.112963  0.106937  0  1.040853  0
H  H24  1  0.50333463  0.71590702  0.51278773  1  0.095843  0  0.112982  0.107  0  1.040792  0
H  H25  1  0.00332780  0.21589528  0.98720981  1  0.09585  0  0.112971  0.106962  0  1.040832  0
H  H26  1  0.50332493  0.28410230  0.01278801  1  0.095788  0  0.11295  0.106937  0  1.040856  0
H  H27  1  0.99667183  0.21589645  0.51278970  1  0.095831  0  0.112959  0.106932  0  1.040857  0
C  C28  1  0.21631555  0.29109460  0.25239437  1  0.990239  0  0.11831  0.108389  0  3.948387  0
C  C29  1  0.71631611  0.79109589  0.24760530  1  0.990227  0  0.118309  0.108401  0  3.948315  0
C  C30  1  0.21631587  0.70890432  0.75239120  1  0.990208  0  0.118337  0.108487  0  3.948348  0
C  C31  1  0.28368394  0.79109593  0.25239439  1  0.990241  0  0.118308  0.108384  0  3.948305  0
C  C32  1  0.78368362  0.70890197  0.74761051  1  0.990182  0  0.118312  0.108516  0  3.948263  0
C  C33  1  0.28368574  0.20890412  0.75239574  1  0.990229  0  0.11835  0.1085  0  3.948178  0
C  C34  1  0.78368464  0.29109340  0.24760503  1  0.990254  0  0.118314  0.108416  0  3.948353  0
C  C35  1  0.71631523  0.20890408  0.74760568  1  0.99022  0  0.118326  0.108451  0  3.948215  0
C  C36  1  0.26736354  0.43156964  0.42296002  1  0.36356  0  -0.016151  -0.062076  0  4.002608  0
C  C37  1  0.76736475  0.93156988  0.07704055  1  0.363529  0  -0.016148  -0.062005  0  4.002621  0
C  C38  1  0.26736390  0.56843033  0.92296034  1  0.363578  0  -0.016133  -0.06193  0  4.00251  0
C  C39  1  0.23263660  0.93156984  0.42295950  1  0.363552  0  -0.016135  -0.062008  0  4.002585  0
C  C40  1  0.73263832  0.56843611  0.57704006  1  0.363532  0  -0.01611  -0.061979  0  4.002749  0
C  C41  1  0.23263442  0.06842555  0.92295856  1  0.36353  0  -0.016173  -0.062068  0  4.002674  0
C  C42  1  0.73263528  0.43156854  0.07704070  1  0.363558  0  -0.016127  -0.062019  0  4.002617  0
C  C43  1  0.76736391  0.06842673  0.57704058  1  0.363589  0  -0.016149  -0.062084  0  4.00265  0
C  C44  1  0.38814455  0.31183304  0.42184977  1  0.324329  0  -0.017936  -0.075153  0  3.993949  0
C  C45  1  0.88814308  0.81183557  0.07815081  1  0.324319  0  -0.01793  -0.075192  0  3.994  0
C  C46  1  0.38814353  0.68817034  0.92185039  1  0.32434  0  -0.018013  -0.075363  0  3.994116  0
C  C47  1  0.11185563  0.81183441  0.42184894  1  0.324326  0  -0.017962  -0.075193  0  3.994028  0
C  C48  1  0.61186133  0.68817041  0.57815127  1  0.324338  0  -0.018001  -0.075341  0  3.994279  0
C  C49  1  0.11185609  0.18816215  0.92185023  1  0.3247  0  -0.017949  -0.075159  0  3.993939  0
C  C50  1  0.61185430  0.31183540  0.07814969  1  0.324588  0  -0.01794  -0.075202  0  3.994005  0
C  C51  1  0.88814489  0.18816446  0.57815114  1  0.324572  0  -0.017933  -0.075123  0  3.993971  0
N  N52  1  0.15961337  0.41818930  0.31517097  1  -1.191057  0  -0.380511  -0.237933  0  3.711934  0
N  N53  1  0.65961283  0.91819063  0.18482746  1  -1.190924  0  -0.380511  -0.237961  0  3.711922  0
N  N54  1  0.15961507  0.58181075  0.81516940  1  -1.191036  0  -0.380512  -0.237988  0  3.711922  0
N  N55  1  0.34038719  0.91819062  0.31517159  1  -1.19108  0  -0.380509  -0.237943  0  3.711887  0
N  N56  1  0.84038580  0.58180957  0.68483006  1  -1.191026  0  -0.380515  -0.237973  0  3.711926  0
N  N57  1  0.34038768  0.08180710  0.81517165  1  -1.191079  0  -0.38056  -0.238033  0  3.711929  0
N  N58  1  0.84038678  0.41818812  0.18482875  1  -1.191015  0  -0.380536  -0.237979  0  3.711984  0
N  N59  1  0.65961199  0.08180824  0.68482849  1  -1.19106  0  -0.380529  -0.237975  0  3.711898  0
N  N60  1  0.35390469  0.22422362  0.31415919  1  -1.182606  0  -0.37723  -0.202459  0  3.724095  0
N  N61  1  0.85390549  0.72422380  0.18584080  1  -1.182594  0  -0.377228  -0.202461  0  3.724071  0
N  N62  1  0.35390365  0.77577754  0.81415715  1  -1.182609  0  -0.377182  -0.202383  0  3.724177  0
N  N63  1  0.14609458  0.72422383  0.31415873  1  -1.182605  0  -0.377221  -0.20243  0  3.724094  0
N  N64  1  0.64609716  0.77577754  0.68584377  1  -1.182611  0  -0.377185  -0.202394  0  3.724146  0
N  N65  1  0.14609636  0.27577392  0.81416120  1  -1.182936  0  -0.377208  -0.202492  0  3.723954  0
N  N66  1  0.64609418  0.22422362  0.18584004  1  -1.182881  0  -0.377223  -0.202444  0  3.724035  0
N  N67  1  0.85390459  0.27577389  0.68584038  1  -1.182871  0  -0.377255  -0.202512  0  3.724038  0
