# generated using pymatgen
data_RbH2CN4O
_symmetry_space_group_name_H-M   'P 1'
_cell_length_a   4.10139760
_cell_length_b   10.00694887
_cell_length_c   11.30944034
_cell_angle_alpha   90.00009759
_cell_angle_beta   89.99999086
_cell_angle_gamma   94.28464100
_symmetry_Int_Tables_number   1
_chemical_formula_structural   RbH2CN4O
_chemical_formula_sum   'Rb4 H8 C4 N16 O4'
_cell_volume   462.87017787
_cell_formula_units_Z   4
loop_
 _symmetry_equiv_pos_site_id
 _symmetry_equiv_pos_as_xyz
  1  'x, y, z'
loop_
 _atom_site_type_symbol
 _atom_site_label
 _atom_site_symmetry_multiplicity
 _atom_site_fract_x
 _atom_site_fract_y
 _atom_site_fract_z
 _atom_site_occupancy
 _atom_site_hle17_bader_spin_density
 _atom_site_hle17_ddec_charge
 _atom_site_hle17_ddec_spin_density
 _atom_site_hle17_ddec_sum_bond_order
 _atom_site_hle17_magmom
 _atom_site_hse06_10hf_bader_spin_density
 _atom_site_hse06_10hf_ddec_charge
 _atom_site_hse06_10hf_ddec_spin_density
 _atom_site_hse06_10hf_ddec_sum_bond_order
 _atom_site_hse06_10hf_magmom
 _atom_site_hse06_bader_spin_density
 _atom_site_hse06_ddec_charge
 _atom_site_hse06_ddec_spin_density
 _atom_site_hse06_ddec_sum_bond_order
 _atom_site_hse06_magmom
 _atom_site_pbe_bader_spin_density
 _atom_site_pbe_cm5_charge
 _atom_site_pbe_ddec_charge
 _atom_site_pbe_ddec_spin_density
 _atom_site_pbe_ddec_sum_bond_order
 _atom_site_pbe_magmom
Rb  Rb0  1  0.75778174  0.82898839  0.59481076  1  0  0.917794  0  0.548546  0  0  0.846578  0  0.791066  0  0  0.861275  0  0.768626  0  0  0.892854  0.83494  0  0.808134  0
Rb  Rb1  1  0.24221876  0.67101195  0.09481155  1  0  0.917787  0  0.548562  0  0  0.846569  0  0.79108  0  0  0.861266  0  0.768638  0  0  0.892856  0.834926  0  0.808153  0
Rb  Rb2  1  0.24221914  0.17101162  0.40518816  1  0  0.917793  0  0.548551  0  0  0.846576  0  0.791069  0  0  0.861272  0  0.768629  0  0  0.892853  0.834941  0  0.80813  0
Rb  Rb3  1  0.75778212  0.32898807  0.90518914  1  0  0.917794  0  0.548542  0  0  0.846572  0  0.791073  0  0  0.861269  0  0.768631  0  0  0.892845  0.834939  0  0.808135  0
H  H4  1  0.41267857  0.88896057  0.33597661  1  0  0.373147  0  0.955168  0  0  0.332729  0  1.03583  0  0  0.343782  0  1.019751  0  0  0.280181  0.324833  0  1.04735  0
H  H5  1  0.58731947  0.61104023  0.83597638  1  0  0.373124  0  0.955204  0  0  0.332705  0  1.035866  0  0  0.343758  0  1.019786  0  0  0.280158  0.32481  0  1.047384  0
H  H6  1  0.58732021  0.11104144  0.66402320  1  0  0.373135  0  0.955176  0  0  0.332722  0  1.035838  0  0  0.343775  0  1.019754  0  0  0.280177  0.324827  0  1.047357  0
H  H7  1  0.41267897  0.38895978  0.16402343  1  0  0.373128  0  0.955188  0  0  0.332712  0  1.035856  0  0  0.343763  0  1.019773  0  0  0.280181  0.324815  0  1.047375  0
H  H8  1  0.15316796  0.78174174  0.39260799  1  0  0.377886  0  0.948401  0  0  0.338537  0  1.028506  0  0  0.349689  0  1.012163  0  0  0.274749  0.330501  0  1.040303  0
H  H9  1  0.84683007  0.71825916  0.89260790  1  0  0.377886  0  0.948407  0  0  0.338536  0  1.028497  0  0  0.349689  0  1.012153  0  0  0.274737  0.3305  0  1.040297  0
H  H10  1  0.84683308  0.21825927  0.60739271  1  0  0.377874  0  0.948421  0  0  0.338525  0  1.028511  0  0  0.349676  0  1.012168  0  0  0.274737  0.330487  0  1.040311  0
H  H11  1  0.15316837  0.28174084  0.10739279  1  0  0.377894  0  0.948393  0  0  0.338546  0  1.02848  0  0  0.349699  0  1.012137  0  0  0.274746  0.330509  0  1.04028  0
C  C12  1  0.08209969  0.99386186  0.94372914  1  0  0.231606  0  3.829491  0  0  0.211779  0  4.102045  0  0  0.219765  0  4.117881  0  0  0.214891  0.20619  0  4.091482  0
C  C13  1  0.91789817  0.50613814  0.44372788  1  0  0.231625  0  3.829514  0  0  0.211774  0  4.102083  0  0  0.219765  0  4.117911  0  0  0.214872  0.206175  0  4.091532  0
C  C14  1  0.91790069  0.00613514  0.05626890  1  0  0.231517  0  3.829578  0  0  0.211655  0  4.10217  0  0  0.219646  0  4.118002  0  0  0.214812  0.206055  0  4.091615  0
C  C15  1  0.08209784  0.49386186  0.55627104  1  0  0.231523  0  3.829581  0  0  0.211671  0  4.102162  0  0  0.219659  0  4.117988  0  0  0.214866  0.206074  0  4.091611  0
N  N16  1  0.35435667  0.04171237  0.78781796  1  0  -0.107089  0  3.136641  0  0  -0.0677  0  3.418147  0  0  -0.070672  0  3.431016  0  0  -0.120209  -0.06517  0  3.409029  0
N  N17  1  0.64564233  0.45828809  0.28781828  1  0  -0.107061  0  3.136606  0  0  -0.067666  0  3.418103  0  0  -0.070638  0  3.430973  0  0  -0.120185  -0.065133  0  3.408979  0
N  N18  1  0.64564177  0.95828764  0.21218273  1  0  -0.107133  0  3.136647  0  0  -0.067741  0  3.418144  0  0  -0.070712  0  3.431018  0  0  -0.120229  -0.065209  0  3.409023  0
N  N19  1  0.35435872  0.54171293  0.71218241  1  0  -0.107094  0  3.136679  0  0  -0.067701  0  3.418171  0  0  -0.070672  0  3.431044  0  0  -0.120203  -0.065173  0  3.409057  0
N  N20  1  0.09725097  0.87803250  0.88371370  1  0  -0.317146  0  3.056029  0  0  -0.271793  0  3.323683  0  0  -0.283425  0  3.336951  0  0  -0.251853  -0.263696  0  3.314979  0
N  N21  1  0.90274900  0.62196539  0.38371439  1  0  -0.317196  0  3.056226  0  0  -0.27183  0  3.323892  0  0  -0.283464  0  3.337158  0  0  -0.251877  -0.263727  0  3.315183  0
N  N22  1  0.90274941  0.12196451  0.11628522  1  0  -0.317161  0  3.056147  0  0  -0.271802  0  3.323811  0  0  -0.283436  0  3.33708  0  0  -0.25185  -0.263698  0  3.315102  0
N  N23  1  0.09725221  0.37803662  0.61628542  1  0  -0.317146  0  3.056265  0  0  -0.271789  0  3.323927  0  0  -0.283421  0  3.337195  0  0  -0.25186  -0.263686  0  3.315221  0
N  N24  1  0.27133984  0.91142225  0.78614568  1  0  -0.178351  0  3.067991  0  0  -0.16573  0  3.366585  0  0  -0.167699  0  3.379985  0  0  -0.216334  -0.163818  0  3.357339  0
N  N25  1  0.72866064  0.58857846  0.28614721  1  0  -0.178323  0  3.068025  0  0  -0.165697  0  3.366604  0  0  -0.167666  0  3.380004  0  0  -0.216307  -0.163783  0  3.357349  0
N  N26  1  0.72866104  0.08857776  0.21385325  1  0  -0.178299  0  3.068021  0  0  -0.165674  0  3.366607  0  0  -0.167641  0  3.380005  0  0  -0.216299  -0.163762  0  3.357353  0
N  N27  1  0.27134057  0.41142356  0.71385349  1  0  -0.178325  0  3.068088  0  0  -0.165703  0  3.366677  0  0  -0.167673  0  3.380075  0  0  -0.216314  -0.16379  0  3.357429  0
N  N28  1  0.23976813  0.09713602  0.88591482  1  0  -0.370012  0  3.023061  0  0  -0.350476  0  3.316222  0  0  -0.360755  0  3.329811  0  0  -0.331727  -0.343012  0  3.307074  0
N  N29  1  0.76023069  0.40286362  0.38591593  1  0  -0.370032  0  3.023026  0  0  -0.350489  0  3.316194  0  0  -0.360771  0  3.329779  0  0  -0.331748  -0.343024  0  3.307048  0
N  N30  1  0.76023031  0.90286399  0.11408588  1  0  -0.369943  0  3.02309  0  0  -0.350399  0  3.31626  0  0  -0.360679  0  3.32985  0  0  -0.331695  -0.342933  0  3.307116  0
N  N31  1  0.23976759  0.59713538  0.61408565  1  0  -0.369971  0  3.023063  0  0  -0.350428  0  3.316224  0  0  -0.360706  0  3.329812  0  0  -0.331715  -0.342962  0  3.307083  0
O  O32  1  0.27839495  0.86907538  0.40830202  1  0  -0.927818  0  1.86873  0  0  -0.873912  0  2.063965  0  0  -0.891953  0  2.03239  0  0  -0.742543  -0.860757  0  2.086816  0
O  O33  1  0.72160552  0.63092556  0.90830181  1  0  -0.927816  0  1.868747  0  0  -0.873889  0  2.064013  0  0  -0.891927  0  2.032431  0  0  -0.742513  -0.860723  0  2.086839  0
O  O34  1  0.72160610  0.13092563  0.59169868  1  0  -0.927794  0  1.868766  0  0  -0.873879  0  2.064013  0  0  -0.891915  0  2.032449  0  0  -0.742523  -0.860724  0  2.086861  0
O  O35  1  0.27839553  0.36907546  0.09169888  1  0  -0.927803  0  1.868744  0  0  -0.873888  0  2.064002  0  0  -0.891924  0  2.03244  0  0  -0.742534  -0.860744  0  2.086877  0
