# generated using pymatgen
data_H11PtAuC17N5Cl
_symmetry_space_group_name_H-M   'P 1'
_cell_length_a   6.38697274
_cell_length_b   7.47255274
_cell_length_c   19.56917908
_cell_angle_alpha   90.00016008
_cell_angle_beta   90.00086374
_cell_angle_gamma   115.27111737
_symmetry_Int_Tables_number   1
_chemical_formula_structural   H11PtAuC17N5Cl
_chemical_formula_sum   'H22 Pt2 Au2 C34 N10 Cl2'
_cell_volume   844.59433504
_cell_formula_units_Z   2
loop_
 _symmetry_equiv_pos_site_id
 _symmetry_equiv_pos_as_xyz
  1  'x, y, z'
loop_
 _atom_site_type_symbol
 _atom_site_label
 _atom_site_symmetry_multiplicity
 _atom_site_fract_x
 _atom_site_fract_y
 _atom_site_fract_z
 _atom_site_occupancy
 _atom_site_hle17_bader_spin_density
 _atom_site_hle17_ddec_charge
 _atom_site_hle17_ddec_spin_density
 _atom_site_hle17_ddec_sum_bond_order
 _atom_site_hle17_magmom
 _atom_site_hse06_10hf_bader_spin_density
 _atom_site_hse06_10hf_ddec_charge
 _atom_site_hse06_10hf_ddec_spin_density
 _atom_site_hse06_10hf_ddec_sum_bond_order
 _atom_site_hse06_10hf_magmom
 _atom_site_hse06_bader_spin_density
 _atom_site_hse06_ddec_charge
 _atom_site_hse06_ddec_spin_density
 _atom_site_hse06_ddec_sum_bond_order
 _atom_site_hse06_magmom
 _atom_site_pbe_bader_spin_density
 _atom_site_pbe_cm5_charge
 _atom_site_pbe_ddec_charge
 _atom_site_pbe_ddec_spin_density
 _atom_site_pbe_ddec_sum_bond_order
 _atom_site_pbe_magmom
H  H0  1  0.55054130  0.09825986  0.18404285  1  0  0.098943  0  0.9533  0  0  0.103443  0  1.021552  0  0  0.106169  0  1.019745  0  0  0.111827  0.101396  0  1.022934  0
H  H1  1  0.44944500  0.90173260  0.68403692  1  0  0.098871  0  0.953357  0  0  0.10341  0  1.021558  0  0  0.106139  0  1.019752  0  0  0.111779  0.101362  0  1.022944  0
H  H2  1  0.58383065  0.16380292  0.30863531  1  0  0.107912  0  0.973088  0  0  0.116357  0  1.036303  0  0  0.118911  0  1.036254  0  0  0.108666  0.114495  0  1.036586  0
H  H3  1  0.41616171  0.83619323  0.80862711  1  0  0.107956  0  0.97296  0  0  0.116407  0  1.036173  0  0  0.118964  0  1.036119  0  0  0.108686  0.114543  0  1.036456  0
H  H4  1  0.43766605  0.87282455  0.39111861  1  0  0.106632  0  0.933059  0  0  0.117255  0  0.990844  0  0  0.120633  0  0.9883  0  0  0.108951  0.114741  0  0.99274  0
H  H5  1  0.56233965  0.12718439  0.89110985  1  0  0.106649  0  0.933012  0  0  0.117265  0  0.990787  0  0  0.120649  0  0.988241  0  0  0.108919  0.11475  0  0.992682  0
H  H6  1  0.26584798  0.53025505  0.34233517  1  0  0.1173  0  0.983123  0  0  0.126252  0  1.043651  0  0  0.129077  0  1.043548  0  0  0.10477  0.124169  0  1.043927  0
H  H7  1  0.73415796  0.46974949  0.84232303  1  0  0.117357  0  0.982974  0  0  0.126276  0  1.043548  0  0  0.129131  0  1.043411  0  0  0.104728  0.124179  0  1.04384  0
H  H8  1  0.11979236  0.23802859  0.29114447  1  0  0.10232  0  1.010146  0  0  0.101418  0  1.088946  0  0  0.104578  0  1.088178  0  0  0.097899  0.099171  0  1.089573  0
H  H9  1  0.88021976  0.76197739  0.79113233  1  0  0.102208  0  1.010257  0  0  0.101354  0  1.088996  0  0  0.104512  0  1.088233  0  0  0.097875  0.099107  0  1.089622  0
H  H10  1  0.96920199  0.93747211  0.21529857  1  0  0.104231  0  0.927847  0  0  0.115346  0  0.984147  0  0  0.11809  0  0.982797  0  0  0.10721  0.113336  0  0.985185  0
H  H11  1  0.03078984  0.06253164  0.71528867  1  0  0.10424  0  0.927927  0  0  0.115336  0  0.984222  0  0  0.118081  0  0.982858  0  0  0.107203  0.113325  0  0.985265  0
H  H12  1  0.98769862  0.97453473  0.08949776  1  0  0.096328  0  1.010256  0  0  0.098156  0  1.093201  0  0  0.103209  0  1.087413  0  0  0.086837  0.094422  0  1.097753  0
H  H13  1  0.01229573  0.02546382  0.58948210  1  0  0.096343  0  1.01007  0  0  0.098135  0  1.093136  0  0  0.103186  0  1.087347  0  0  0.086916  0.09438  0  1.097708  0
H  H14  1  0.02736299  0.05423338  0.97945202  1  0  0.120522  0  0.973664  0  0  0.129156  0  1.033594  0  0  0.131678  0  1.033704  0  0  0.105712  0.12728  0  1.033824  0
H  H15  1  0.97262111  0.94576486  0.47945070  1  0  0.120449  0  0.973826  0  0  0.129114  0  1.033752  0  0  0.131635  0  1.033861  0  0  0.105705  0.127238  0  1.03398  0
H  H16  1  0.08636433  0.17365468  0.85919526  1  0  0.094101  0  0.937033  0  0  0.104194  0  0.997916  0  0  0.106608  0  0.996419  0  0  0.107434  0.102415  0  0.999065  0
H  H17  1  0.91362281  0.82633261  0.35919046  1  0  0.094031  0  0.936907  0  0  0.104074  0  0.997861  0  0  0.106487  0  0.99637  0  0  0.107401  0.102303  0  0.999007  0
H  H18  1  0.26781276  0.53613761  0.83585052  1  0  0.090895  0  1.030868  0  0  0.089699  0  1.110883  0  0  0.092717  0  1.110298  0  0  0.091295  0.087543  0  1.111387  0
H  H19  1  0.73217021  0.46386230  0.33584904  1  0  0.090841  0  1.030942  0  0  0.089655  0  1.110946  0  0  0.092673  0  1.110362  0  0  0.091284  0.087513  0  1.111447  0
H  H20  1  0.38677549  0.77299734  0.93750824  1  0  0.088928  0  0.944647  0  0  0.096519  0  1.010927  0  0  0.098901  0  1.008729  0  0  0.113153  0.0947  0  1.012664  0
H  H21  1  0.61323083  0.22700854  0.43750286  1  0  0.088952  0  0.944829  0  0  0.096527  0  1.011117  0  0  0.098908  0  1.008917  0  0  0.113162  0.094708  0  1.012853  0
Pt  Pt22  1  0.35769284  0.71421677  0.09471653  1  0  0.376464  0  3.346961  0  0  0.315192  0  3.960898  0  0  0.329476  0  3.929444  0  0  0.703204  0.307117  0  3.983237  0
Pt  Pt23  1  0.64230588  0.28577750  0.59470833  1  0  0.376403  0  3.346947  0  0  0.315085  0  3.960887  0  0  0.329346  0  3.929454  0  0  0.703122  0.306991  0  3.983222  0
Au  Au24  1  0.80299246  0.60510902  0.06432640  1  0  0.308928  0  2.344088  0  0  0.203364  0  2.873481  0  0  0.226744  0  2.837546  0  0  0.428112  0.188157  0  2.897354  0
Au  Au25  1  0.19702306  0.39491542  0.56433811  1  0  0.308982  0  2.344339  0  0  0.203473  0  2.873712  0  0  0.226878  0  2.837736  0  0  0.428194  0.188277  0  2.897554  0
C  C26  1  0.49016549  0.97738269  0.22086843  1  0  0.118981  0  3.665601  0  0  0.084148  0  3.919597  0  0  0.092556  0  3.936329  0  0  0.047669  0.078828  0  3.908284  0
C  C27  1  0.50982324  0.02260494  0.72085981  1  0  0.119022  0  3.664954  0  0  0.084196  0  3.918897  0  0  0.092583  0  3.93564  0  0  0.047719  0.078857  0  3.907576  0
C  C28  1  0.50723719  0.01120590  0.29107631  1  0  -0.107836  0  3.71222  0  0  -0.119233  0  3.95991  0  0  -0.127122  0  3.981473  0  0  -0.075727  -0.114376  0  3.945589  0
C  C29  1  0.49276544  0.98880305  0.79107120  1  0  -0.107922  0  3.71233  0  0  -0.119329  0  3.96002  0  0  -0.127217  0  3.981591  0  0  -0.075767  -0.114472  0  3.945702  0
C  C30  1  0.42680138  0.85087005  0.33585361  1  0  0.003565  0  3.692711  0  0  -0.014828  0  3.939823  0  0  -0.009651  0  3.95604  0  0  -0.059364  -0.01798  0  3.928852  0
C  C31  1  0.57319495  0.14912839  0.83584237  1  0  0.003604  0  3.693279  0  0  -0.01479  0  3.940361  0  0  -0.009628  0  3.956609  0  0  -0.059334  -0.017939  0  3.92938  0
C  C32  1  0.33093135  0.65973744  0.30895383  1  0  -0.114123  0  3.664852  0  0  -0.131056  0  3.906912  0  0  -0.138431  0  3.928161  0  0  -0.067873  -0.12645  0  3.892939  0
C  C33  1  0.66907164  0.34027056  0.80894531  1  0  -0.11426  0  3.664855  0  0  -0.13117  0  3.906916  0  0  -0.138569  0  3.928153  0  0  -0.0679  -0.126563  0  3.892963  0
C  C34  1  0.31745954  0.63290810  0.23845210  1  0  0.169167  0  3.689869  0  0  0.159524  0  3.934485  0  0  0.166595  0  3.953378  0  0  0.115573  0.154777  0  3.921869  0
C  C35  1  0.68253387  0.36709041  0.73844010  1  0  0.169296  0  3.690145  0  0  0.159614  0  3.934741  0  0  0.166676  0  3.953655  0  0  0.115674  0.154856  0  3.92212  0
C  C36  1  0.22020057  0.43904655  0.20501909  1  0  0.183307  0  3.72056  0  0  0.1709  0  3.962805  0  0  0.179225  0  3.98048  0  0  0.11864  0.165534  0  3.950846  0
C  C37  1  0.77980298  0.56096282  0.70501390  1  0  0.183245  0  3.721017  0  0  0.170916  0  3.963021  0  0  0.179236  0  3.980699  0  0  0.118635  0.165549  0  3.951068  0
C  C38  1  0.12673305  0.25230843  0.23549934  1  0  -0.109975  0  3.646768  0  0  -0.126549  0  3.894764  0  0  -0.132795  0  3.913911  0  0  -0.068672  -0.122577  0  3.881894  0
C  C39  1  0.87327105  0.74769295  0.73548919  1  0  -0.109807  0  3.646814  0  0  -0.126391  0  3.894643  0  0  -0.13264  0  3.913794  0  0  -0.068589  -0.122408  0  3.881749  0
C  C40  1  0.04331055  0.08567752  0.19318557  1  0  -0.002497  0  3.679998  0  0  -0.024182  0  3.936279  0  0  -0.019542  0  3.952065  0  0  -0.068237  -0.027093  0  3.925808  0
C  C41  1  0.95668749  0.91433445  0.69317499  1  0  -0.002581  0  3.679798  0  0  -0.024295  0  3.936191  0  0  -0.019645  0  3.951976  0  0  -0.068304  -0.02721  0  3.925725  0
C  C42  1  0.05291320  0.10509369  0.12221635  1  0  -0.093882  0  3.661274  0  0  -0.116003  0  3.917409  0  0  -0.120245  0  3.933175  0  0  -0.071207  -0.113876  0  3.907705  0
C  C43  1  0.94707780  0.89490139  0.62220621  1  0  -0.093785  0  3.66111  0  0  -0.115901  0  3.917224  0  0  -0.120135  0  3.932981  0  0  -0.071234  -0.113758  0  3.907537  0
C  C44  1  0.14756382  0.29423365  0.09385627  1  0  0.182018  0  3.716164  0  0  0.166381  0  3.965397  0  0  0.176261  0  3.980184  0  0  0.116288  0.159906  0  3.955088  0
C  C45  1  0.85242749  0.70577095  0.59384751  1  0  0.182265  0  3.715581  0  0  0.166454  0  3.964859  0  0  0.176334  0  3.979643  0  0  0.116305  0.159981  0  3.954542  0
C  C46  1  0.17459222  0.34830060  0.02149768  1  0  0.158054  0  3.712743  0  0  0.148813  0  3.960923  0  0  0.155938  0  3.977129  0  0  0.107869  0.144297  0  3.948799  0
C  C47  1  0.82539510  0.65168706  0.52149129  1  0  0.157712  0  3.712296  0  0  0.148783  0  3.96018  0  0  0.155903  0  3.976386  0  0  0.107879  0.144269  0  3.948051  0
C  C48  1  0.10623208  0.21183343  0.96839664  1  0  -0.107676  0  3.678696  0  0  -0.12663  0  3.920572  0  0  -0.131877  0  3.940254  0  0  -0.07174  -0.123519  0  3.907529  0
C  C49  1  0.89376279  0.78817485  0.46838660  1  0  -0.107373  0  3.678517  0  0  -0.126435  0  3.920246  0  0  -0.131683  0  3.939948  0  0  -0.071631  -0.123327  0  3.907206  0
C  C50  1  0.13976024  0.27963657  0.90116962  1  0  0.004468  0  3.701152  0  0  -0.014106  0  3.948953  0  0  -0.010503  0  3.96712  0  0  -0.062163  -0.01649  0  3.937036  0
C  C51  1  0.86022486  0.72034900  0.40116751  1  0  0.004478  0  3.701655  0  0  -0.014047  0  3.949503  0  0  -0.010453  0  3.967676  0  0  -0.062219  -0.016434  0  3.937591  0
C  C52  1  0.24109811  0.48229526  0.88847144  1  0  -0.10284  0  3.703813  0  0  -0.112503  0  3.952545  0  0  -0.120404  0  3.974793  0  0  -0.078266  -0.107513  0  3.937993  0
C  C53  1  0.75890430  0.51771361  0.38846299  1  0  -0.102689  0  3.703618  0  0  -0.112384  0  3.952451  0  0  -0.120282  0  3.974697  0  0  -0.078171  -0.107416  0  3.937894  0
C  C54  1  0.30674719  0.61292436  0.94341112  1  0  0.148472  0  3.64862  0  0  0.109072  0  3.902084  0  0  0.117952  0  3.918349  0  0  0.050278  0.103089  0  3.891157  0
C  C55  1  0.69324592  0.38706393  0.44340732  1  0  0.148396  0  3.648487  0  0  0.108981  0  3.902005  0  0  0.117866  0  3.918258  0  0  0.050294  0.102994  0  3.891097  0
C  C56  1  0.87040603  0.74147862  0.91126201  1  0  -0.164477  0  2.811314  0  0  -0.170896  0  3.054866  0  0  -0.163603  0  3.069391  0  0  -0.024451  -0.17504  0  3.044173  0
C  C57  1  0.12968475  0.25850130  0.41127678  1  0  -0.164398  0  2.811427  0  0  -0.170859  0  3.05507  0  0  -0.163567  0  3.069598  0  0  -0.024317  -0.175007  0  3.04438  0
C  C58  1  0.74266515  0.48408863  0.21888760  1  0  -0.156465  0  2.813418  0  0  -0.163094  0  3.068492  0  0  -0.15634  0  3.084638  0  0  -0.02896  -0.166882  0  3.05711  0
C  C59  1  0.25731363  0.51591375  0.71890332  1  0  -0.156484  0  2.812469  0  0  -0.163153  0  3.067622  0  0  -0.156392  0  3.083757  0  0  -0.028961  -0.166949  0  3.056245  0
N  N60  1  0.39774579  0.79330163  0.19474284  1  0  -0.220864  0  3.407215  0  0  -0.155011  0  3.691256  0  0  -0.170449  0  3.708369  0  0  -0.329358  -0.14521  0  3.680127  0
N  N61  1  0.60225961  0.20670299  0.69473640  1  0  -0.220708  0  3.406884  0  0  -0.154904  0  3.690969  0  0  -0.170321  0  3.708093  0  0  -0.32934  -0.145049  0  3.679778  0
N  N62  1  0.22686688  0.45279048  0.13606016  1  0  -0.228876  0  3.540033  0  0  -0.162658  0  3.8148  0  0  -0.177905  0  3.832352  0  0  -0.34593  -0.153134  0  3.803499  0
N  N63  1  0.77312028  0.54720501  0.63605493  1  0  -0.229289  0  3.539855  0  0  -0.16295  0  3.814496  0  0  -0.178196  0  3.832056  0  0  -0.346036  -0.153428  0  3.803202  0
N  N64  1  0.27465919  0.54856342  0.00822104  1  0  -0.236382  0  3.462482  0  0  -0.16778  0  3.74165  0  0  -0.18319  0  3.758267  0  0  -0.336948  -0.157619  0  3.730075  0
N  N65  1  0.72533967  0.45142977  0.50821240  1  0  -0.236252  0  3.462744  0  0  -0.167735  0  3.741881  0  0  -0.183133  0  3.758493  0  0  -0.337006  -0.157578  0  3.730307  0
N  N66  1  0.84320271  0.68609425  0.96838082  1  0  -0.342365  0  3.579014  0  0  -0.262645  0  3.915273  0  0  -0.284129  0  3.9295  0  0  -0.420087  -0.248042  0  3.904371  0
N  N67  1  0.15684638  0.31390661  0.46839322  1  0  -0.342391  0  3.579264  0  0  -0.262674  0  3.915508  0  0  -0.284155  0  3.929738  0  0  -0.420235  -0.248066  0  3.904603  0
N  N68  1  0.76370129  0.52627996  0.16046622  1  0  -0.351665  0  3.588324  0  0  -0.277837  0  3.942233  0  0  -0.298922  0  3.95579  0  0  -0.426876  -0.263815  0  3.932796  0
N  N69  1  0.23629202  0.47374437  0.66047259  1  0  -0.351703  0  3.587599  0  0  -0.277873  0  3.94151  0  0  -0.29896  0  3.955076  0  0  -0.426908  -0.263849  0  3.932076  0
Cl  Cl70  1  0.51234877  0.02407141  0.04460150  1  0  -0.441652  0  1.112221  0  0  -0.410189  0  1.416543  0  0  -0.43022  0  1.402877  0  0  -0.295542  -0.395765  0  1.425399  0
Cl  Cl71  1  0.48764401  0.97591250  0.54459585  1  0  -0.441617  0  1.112223  0  0  -0.410152  0  1.416561  0  0  -0.430198  0  1.402932  0  0  -0.295514  -0.395721  0  1.4254  0
