# generated using pymatgen
data_CdH10C9O5
_symmetry_space_group_name_H-M   'P 1'
_cell_length_a   9.00311717
_cell_length_b   9.36234707
_cell_length_c   11.65883651
_cell_angle_alpha   90.00007967
_cell_angle_beta   92.60835176
_cell_angle_gamma   90.00014919
_symmetry_Int_Tables_number   1
_chemical_formula_structural   CdH10C9O5
_chemical_formula_sum   'Cd4 H40 C36 O20'
_cell_volume   981.70875869
_cell_formula_units_Z   4
loop_
 _symmetry_equiv_pos_site_id
 _symmetry_equiv_pos_as_xyz
  1  'x, y, z'
loop_
 _atom_site_type_symbol
 _atom_site_label
 _atom_site_symmetry_multiplicity
 _atom_site_fract_x
 _atom_site_fract_y
 _atom_site_fract_z
 _atom_site_occupancy
 _atom_site_hle17_bader_spin_density
 _atom_site_hle17_ddec_charge
 _atom_site_hle17_ddec_spin_density
 _atom_site_hle17_ddec_sum_bond_order
 _atom_site_hle17_magmom
 _atom_site_hse06_10hf_bader_spin_density
 _atom_site_hse06_10hf_ddec_charge
 _atom_site_hse06_10hf_ddec_spin_density
 _atom_site_hse06_10hf_ddec_sum_bond_order
 _atom_site_hse06_10hf_magmom
 _atom_site_hse06_bader_spin_density
 _atom_site_hse06_ddec_charge
 _atom_site_hse06_ddec_spin_density
 _atom_site_hse06_ddec_sum_bond_order
 _atom_site_hse06_magmom
 _atom_site_pbe_bader_spin_density
 _atom_site_pbe_cm5_charge
 _atom_site_pbe_ddec_charge
 _atom_site_pbe_ddec_spin_density
 _atom_site_pbe_ddec_sum_bond_order
 _atom_site_pbe_magmom
Cd  Cd0  1  0.97722218  0.20170325  0.53727418  1  0  1.271889  0  1.547262  0  0  1.102794  0  1.980869  0  0  1.161911  0  1.920676  0  0  0.779714  1.059596  0  2.022936  0
Cd  Cd1  1  0.52277880  0.70170437  0.46272784  1  0  1.271921  0  1.547278  0  0  1.102832  0  1.980883  0  0  1.16195  0  1.920687  0  0  0.779718  1.059632  0  2.022943  0
Cd  Cd2  1  0.02277971  0.79829491  0.46272625  1  0  1.271895  0  1.547304  0  0  1.102799  0  1.980915  0  0  1.161917  0  1.92072  0  0  0.77972  1.059603  0  2.022976  0
Cd  Cd3  1  0.47722198  0.29829806  0.53727255  1  0  1.27189  0  1.547274  0  0  1.1028  0  1.980877  0  0  1.161919  0  1.920683  0  0  0.779711  1.059604  0  2.022928  0
H  H4  1  0.16462726  0.37837362  0.40032843  1  0  0.440771  0  0.860366  0  0  0.405322  0  0.931057  0  0  0.416048  0  0.915714  0  0  0.294192  0.397728  0  0.941885  0
H  H5  1  0.33537353  0.87837256  0.59967128  1  0  0.440789  0  0.860335  0  0  0.405348  0  0.931008  0  0  0.41607  0  0.915671  0  0  0.294216  0.397756  0  0.941835  0
H  H6  1  0.83537351  0.62162774  0.59967282  1  0  0.440781  0  0.860346  0  0  0.405322  0  0.931051  0  0  0.416048  0  0.915709  0  0  0.294204  0.39773  0  0.941877  0
H  H7  1  0.66462614  0.12162880  0.40032907  1  0  0.440762  0  0.860374  0  0  0.405312  0  0.931063  0  0  0.416035  0  0.915724  0  0  0.294197  0.397717  0  0.941893  0
H  H8  1  0.00722585  0.45851038  0.39820633  1  0  0.437162  0  0.817073  0  0  0.414331  0  0.879236  0  0  0.423002  0  0.869455  0  0  0.318347  0.408106  0  0.88625  0
H  H9  1  0.49277405  0.95851079  0.60179516  1  0  0.437176  0  0.817035  0  0  0.414379  0  0.879165  0  0  0.423052  0  0.869376  0  0  0.318355  0.40815  0  0.886191  0
H  H10  1  0.99277604  0.54149098  0.60179496  1  0  0.437143  0  0.81705  0  0  0.414317  0  0.879217  0  0  0.42299  0  0.869432  0  0  0.318321  0.408087  0  0.886239  0
H  H11  1  0.50722562  0.04148951  0.39820433  1  0  0.437151  0  0.817053  0  0  0.414324  0  0.879219  0  0  0.422997  0  0.869434  0  0  0.318323  0.408095  0  0.886232  0
H  H12  1  0.07967750  0.80799166  0.90787505  1  0  0.053624  0  0.9626  0  0  0.064722  0  1.027588  0  0  0.065253  0  1.028316  0  0  0.091416  0.064111  0  1.027632  0
H  H13  1  0.42031977  0.30799389  0.09212274  1  0  0.053643  0  0.962631  0  0  0.064729  0  1.02759  0  0  0.065258  0  1.028316  0  0  0.091433  0.064118  0  1.027633  0
H  H14  1  0.92032217  0.19200864  0.09212530  1  0  0.053627  0  0.962609  0  0  0.06473  0  1.027578  0  0  0.065261  0  1.028306  0  0  0.091429  0.06412  0  1.027621  0
H  H15  1  0.57968101  0.69200961  0.90787851  1  0  0.053594  0  0.962671  0  0  0.0647  0  1.027644  0  0  0.065232  0  1.028369  0  0  0.091422  0.064091  0  1.027688  0
H  H16  1  0.32753650  0.73057433  0.80925920  1  0  0.106066  0  0.9516  0  0  0.119186  0  1.007617  0  0  0.122014  0  1.006338  0  0  0.101398  0.117384  0  1.008119  0
H  H17  1  0.17245944  0.23057718  0.19073931  1  0  0.106035  0  0.951599  0  0  0.119184  0  1.007561  0  0  0.122006  0  1.006312  0  0  0.101396  0.117389  0  1.008042  0
H  H18  1  0.67246206  0.26942490  0.19074025  1  0  0.106051  0  0.951619  0  0  0.119182  0  1.007624  0  0  0.12201  0  1.006348  0  0  0.101399  0.11738  0  1.008119  0
H  H19  1  0.82754133  0.76942419  0.80926280  1  0  0.106075  0  0.951635  0  0  0.119213  0  1.007603  0  0  0.122036  0  1.006353  0  0  0.101408  0.117415  0  1.00809  0
H  H20  1  0.52295031  0.94424431  0.83519065  1  0  0.099204  0  0.954409  0  0  0.113  0  1.010671  0  0  0.11616  0  1.009089  0  0  0.101374  0.111053  0  1.011434  0
H  H21  1  0.97704803  0.44424787  0.16480725  1  0  0.099215  0  0.954386  0  0  0.112946  0  1.010724  0  0  0.116105  0  1.009146  0  0  0.101384  0.111006  0  1.011476  0
H  H22  1  0.47704937  0.05575279  0.16480798  1  0  0.09923  0  0.954388  0  0  0.112993  0  1.010687  0  0  0.116155  0  1.009105  0  0  0.101387  0.11105  0  1.01144  0
H  H23  1  0.02295163  0.55575242  0.83519395  1  0  0.099235  0  0.954366  0  0  0.112972  0  1.010693  0  0  0.11613  0  1.009115  0  0  0.101405  0.111031  0  1.011444  0
H  H24  1  0.39400758  0.15483322  0.94554479  1  0  0.060748  0  0.943841  0  0  0.07287  0  1.004427  0  0  0.073652  0  1.004953  0  0  0.093489  0.07202  0  1.004733  0
H  H25  1  0.10599260  0.65483704  0.05445380  1  0  0.060692  0  0.943874  0  0  0.072853  0  1.004419  0  0  0.073635  0  1.004945  0  0  0.093475  0.072004  0  1.004726  0
H  H26  1  0.60599321  0.84516388  0.05445474  1  0  0.060721  0  0.943869  0  0  0.072858  0  1.004465  0  0  0.073638  0  1.004993  0  0  0.09349  0.072012  0  1.004768  0
H  H27  1  0.89400596  0.34516432  0.94554651  1  0  0.060739  0  0.943839  0  0  0.07287  0  1.00442  0  0  0.073651  0  1.004948  0  0  0.093495  0.072025  0  1.004722  0
H  H28  1  0.15933925  0.21880289  0.83102230  1  0  0.101566  0  0.912919  0  0  0.11358  0  0.969376  0  0  0.115842  0  0.968704  0  0  0.109791  0.111533  0  0.970693  0
H  H29  1  0.34066333  0.71880537  0.16897559  1  0  0.101528  0  0.913029  0  0  0.113566  0  0.969452  0  0  0.115827  0  0.968779  0  0  0.109793  0.111518  0  0.970768  0
H  H30  1  0.84066376  0.78119527  0.16897646  1  0  0.10156  0  0.912996  0  0  0.113596  0  0.969415  0  0  0.115859  0  0.968741  0  0  0.109803  0.11155  0  0.970733  0
H  H31  1  0.65933411  0.28119706  0.83102554  1  0  0.101522  0  0.912912  0  0  0.113576  0  0.969317  0  0  0.115841  0  0.968642  0  0  0.109802  0.111532  0  0.970627  0
H  H32  1  0.99412285  0.04118928  0.82089678  1  0  0.086455  0  0.927494  0  0  0.096401  0  0.988177  0  0  0.09842  0  0.987733  0  0  0.102093  0.09517  0  0.988238  0
H  H33  1  0.50587659  0.54119201  0.17910329  1  0  0.08647  0  0.92747  0  0  0.096378  0  0.988191  0  0  0.098399  0  0.987746  0  0  0.10209  0.09515  0  0.988238  0
H  H34  1  0.00587682  0.95881102  0.17910443  1  0  0.086459  0  0.927483  0  0  0.096403  0  0.988173  0  0  0.098421  0  0.987729  0  0  0.10209  0.095171  0  0.988224  0
H  H35  1  0.49412308  0.45881256  0.82089706  1  0  0.086449  0  0.927499  0  0  0.096403  0  0.988176  0  0  0.098406  0  0.987762  0  0  0.102105  0.095177  0  0.988221  0
H  H36  1  0.12481948  0.06569523  0.00978033  1  0  0.075202  0  0.953977  0  0  0.091807  0  1.020689  0  0  0.092464  0  1.021679  0  0  0.089532  0.091134  0  1.020196  0
H  H37  1  0.37517935  0.56569709  0.99021725  1  0  0.075168  0  0.954104  0  0  0.091791  0  1.020781  0  0  0.092449  0  1.021781  0  0  0.089544  0.091121  0  1.020285  0
H  H38  1  0.87518131  0.93430400  0.99021835  1  0  0.075216  0  0.954042  0  0  0.091814  0  1.02074  0  0  0.092471  0  1.021733  0  0  0.08954  0.091146  0  1.020248  0
H  H39  1  0.62481921  0.43430428  0.00978306  1  0  0.075188  0  0.954051  0  0  0.091783  0  1.020757  0  0  0.092442  0  1.021743  0  0  0.089536  0.091114  0  1.020263  0
H  H40  1  0.26686523  0.94067156  0.05686165  1  0  0.080772  0  0.939134  0  0  0.098943  0  0.997608  0  0  0.100099  0  0.997743  0  0  0.091308  0.098137  0  0.997257  0
H  H41  1  0.23313352  0.44067373  0.94313720  1  0  0.080744  0  0.939163  0  0  0.098904  0  0.997648  0  0  0.100064  0  0.997785  0  0  0.091308  0.0981  0  0.997302  0
H  H42  1  0.73313444  0.05932660  0.94313784  1  0  0.080787  0  0.93915  0  0  0.098939  0  0.997636  0  0  0.100095  0  0.997772  0  0  0.091321  0.098138  0  0.997283  0
H  H43  1  0.76686726  0.55932657  0.05686405  1  0  0.080732  0  0.93915  0  0  0.098887  0  0.997634  0  0  0.100042  0  0.997771  0  0  0.091301  0.098086  0  0.99728  0
C  C44  1  0.16190893  0.88882404  0.88678808  1  0  0.014039  0  3.603373  0  0  0.0064  0  3.843953  0  0  0.006801  0  3.859794  0  0  -0.086036  0.006036  0  3.833478  0
C  C45  1  0.33808968  0.38882717  0.11320985  1  0  0.014065  0  3.603404  0  0  0.006528  0  3.843809  0  0  0.00694  0  3.859641  0  0  -0.086007  0.006164  0  3.833333  0
C  C46  1  0.83809074  0.11117412  0.11321056  1  0  0.014074  0  3.603397  0  0  0.006458  0  3.843921  0  0  0.006859  0  3.859766  0  0  -0.086023  0.006094  0  3.833446  0
C  C47  1  0.66191110  0.61117527  0.88679139  1  0  0.0141  0  3.603377  0  0  0.006453  0  3.843943  0  0  0.006861  0  3.859765  0  0  -0.086036  0.006086  0  3.833474  0
C  C48  1  0.31068899  0.83379525  0.84944228  1  0  -0.116909  0  3.650006  0  0  -0.136743  0  3.910988  0  0  -0.137921  0  3.929403  0  0  -0.10538  -0.136159  0  3.898724  0
C  C49  1  0.18930724  0.33380128  0.15055550  1  0  -0.116914  0  3.65019  0  0  -0.136779  0  3.911139  0  0  -0.137968  0  3.929552  0  0  -0.105377  -0.136194  0  3.898879  0
C  C50  1  0.68930734  0.16619970  0.15055709  1  0  -0.116912  0  3.650238  0  0  -0.13676  0  3.911208  0  0  -0.137941  0  3.929625  0  0  -0.105392  -0.136182  0  3.898941  0
C  C51  1  0.81069577  0.66620008  0.84944497  1  0  -0.116982  0  3.650332  0  0  -0.13681  0  3.911286  0  0  -0.138001  0  3.929701  0  0  -0.105388  -0.136227  0  3.899026  0
C  C52  1  0.40890030  0.94149595  0.86222653  1  0  -0.12085  0  3.660475  0  0  -0.142103  0  3.924877  0  0  -0.144406  0  3.943819  0  0  -0.105138  -0.140753  0  3.912259  0
C  C53  1  0.09110067  0.44149530  0.13777326  1  0  -0.120846  0  3.660599  0  0  -0.142062  0  3.925023  0  0  -0.144364  0  3.943961  0  0  -0.105159  -0.140721  0  3.912411  0
C  C54  1  0.59110271  0.05850542  0.13777394  1  0  -0.12091  0  3.660585  0  0  -0.142123  0  3.925013  0  0  -0.144428  0  3.943952  0  0  -0.105181  -0.140774  0  3.912389  0
C  C55  1  0.90889788  0.55850607  0.86222790  1  0  -0.120843  0  3.660752  0  0  -0.142052  0  3.925158  0  0  -0.144353  0  3.944096  0  0  -0.105176  -0.140703  0  3.91254  0
C  C56  1  0.32584495  0.06951154  0.90670329  1  0  0.017668  0  3.617196  0  0  0.007799  0  3.859712  0  0  0.008494  0  3.875897  0  0  -0.087862  0.007396  0  3.848471  0
C  C57  1  0.17415500  0.56951241  0.09329347  1  0  0.017654  0  3.617117  0  0  0.007768  0  3.85962  0  0  0.008467  0  3.875808  0  0  -0.087875  0.007369  0  3.84838  0
C  C58  1  0.67415696  0.93048769  0.09329456  1  0  0.017765  0  3.617064  0  0  0.007815  0  3.859684  0  0  0.008512  0  3.87587  0  0  -0.087831  0.007406  0  3.848455  0
C  C59  1  0.82584356  0.43048789  0.90670598  1  0  0.017639  0  3.617153  0  0  0.007745  0  3.859678  0  0  0.008443  0  3.875859  0  0  -0.087873  0.007334  0  3.848449  0
C  C60  1  0.21914601  0.12196932  0.80544426  1  0  -0.154236  0  3.540831  0  0  -0.157371  0  3.772063  0  0  -0.163722  0  3.785217  0  0  -0.076334  -0.152569  0  3.762891  0
C  C61  1  0.28085519  0.62197383  0.19455433  1  0  -0.154167  0  3.540738  0  0  -0.157341  0  3.771981  0  0  -0.163683  0  3.785111  0  0  -0.076356  -0.152538  0  3.762804  0
C  C62  1  0.78085366  0.87802670  0.19455523  1  0  -0.154277  0  3.54084  0  0  -0.157398  0  3.7721  0  0  -0.163748  0  3.785248  0  0  -0.076379  -0.152599  0  3.762928  0
C  C63  1  0.71914449  0.37802967  0.80544516  1  0  -0.154142  0  3.540609  0  0  -0.157287  0  3.771833  0  0  -0.163644  0  3.784996  0  0  -0.076346  -0.152492  0  3.762659  0
C  C64  1  0.10067709  0.99861472  0.79423814  1  0  -0.154656  0  3.548619  0  0  -0.15964  0  3.781416  0  0  -0.165805  0  3.794526  0  0  -0.082587  -0.155559  0  3.772287  0
C  C65  1  0.39932292  0.49861603  0.20576254  1  0  -0.15471  0  3.548631  0  0  -0.159674  0  3.781395  0  0  -0.165845  0  3.7945  0  0  -0.08258  -0.155587  0  3.772257  0
C  C66  1  0.89932369  0.00138450  0.20576225  1  0  -0.154674  0  3.548523  0  0  -0.159665  0  3.781351  0  0  -0.165829  0  3.794459  0  0  -0.082572  -0.155575  0  3.77221  0
C  C67  1  0.60067675  0.50138640  0.79423695  1  0  -0.154673  0  3.548532  0  0  -0.159677  0  3.781396  0  0  -0.165839  0  3.794499  0  0  -0.08261  -0.155593  0  3.772263  0
C  C68  1  0.21342851  0.99451777  0.98215296  1  0  -0.169561  0  3.626299  0  0  -0.217885  0  3.88183  0  0  -0.219767  0  3.895125  0  0  -0.161553  -0.215957  0  3.871967  0
C  C69  1  0.28657151  0.49451953  0.01784428  1  0  -0.169485  0  3.626434  0  0  -0.217836  0  3.881932  0  0  -0.219739  0  3.895244  0  0  -0.161565  -0.215914  0  3.872081  0
C  C70  1  0.78657339  0.00548146  0.01784747  1  0  -0.169635  0  3.626489  0  0  -0.21791  0  3.881991  0  0  -0.219798  0  3.895291  0  0  -0.161582  -0.21599  0  3.872141  0
C  C71  1  0.71342816  0.50548076  0.98215521  1  0  -0.169512  0  3.626466  0  0  -0.217786  0  3.881943  0  0  -0.219669  0  3.895236  0  0  -0.161547  -0.215864  0  3.872089  0
C  C72  1  0.29875762  0.16749210  0.69960157  1  0  0.671723  0  3.852123  0  0  0.618282  0  4.150836  0  0  0.653223  0  4.145305  0  0  0.203274  0.594281  0  4.153861  0
C  C73  1  0.20123815  0.66749019  0.30039601  1  0  0.671671  0  3.852208  0  0  0.618263  0  4.15088  0  0  0.653205  0  4.145347  0  0  0.203201  0.594257  0  4.153912  0
C  C74  1  0.70124206  0.83250819  0.30039793  1  0  0.671731  0  3.852056  0  0  0.618272  0  4.150793  0  0  0.653213  0  4.145263  0  0  0.20328  0.594275  0  4.153813  0
C  C75  1  0.79875818  0.33250904  0.69960335  1  0  0.671712  0  3.852036  0  0  0.618277  0  4.150752  0  0  0.65322  0  4.145218  0  0  0.203276  0.594285  0  4.153765  0
C  C76  1  0.07000861  0.93588565  0.67591423  1  0  0.674092  0  3.842112  0  0  0.617866  0  4.143282  0  0  0.651933  0  4.138301  0  0  0.203674  0.59463  0  4.145751  0
C  C77  1  0.42998901  0.43588618  0.32408458  1  0  0.67409  0  3.842107  0  0  0.617836  0  4.143301  0  0  0.651905  0  4.13832  0  0  0.203672  0.594596  0  4.145769  0
C  C78  1  0.92998994  0.06411357  0.32408780  1  0  0.674184  0  3.842043  0  0  0.617909  0  4.143273  0  0  0.651975  0  4.138291  0  0  0.203669  0.59467  0  4.14574  0
C  C79  1  0.57001177  0.56411626  0.67591496  1  0  0.674163  0  3.841921  0  0  0.61788  0  4.143164  0  0  0.651948  0  4.138177  0  0  0.203703  0.594639  0  4.145637  0
O  O80  1  0.22783731  0.19010699  0.60408025  1  0  -0.672135  0  2.02487  0  0  -0.598369  0  2.28048  0  0  -0.630147  0  2.268038  0  0  -0.327131  -0.575357  0  2.288038  0
O  O81  1  0.27215964  0.69010648  0.39591740  1  0  -0.672092  0  2.024868  0  0  -0.598361  0  2.280498  0  0  -0.63014  0  2.268056  0  0  -0.327098  -0.575349  0  2.288061  0
O  O82  1  0.77216237  0.80989117  0.39591838  1  0  -0.672106  0  2.024832  0  0  -0.598338  0  2.28045  0  0  -0.630117  0  2.26801  0  0  -0.327137  -0.575332  0  2.288009  0
O  O83  1  0.72783782  0.30989275  0.60408115  1  0  -0.672112  0  2.024811  0  0  -0.598344  0  2.280411  0  0  -0.630121  0  2.267968  0  0  -0.327121  -0.575338  0  2.287967  0
O  O84  1  0.43860620  0.18983284  0.71056759  1  0  -0.640608  0  1.973637  0  0  -0.575384  0  2.219455  0  0  -0.605963  0  2.210639  0  0  -0.321262  -0.554139  0  2.225636  0
O  O85  1  0.06139187  0.68983483  0.28942753  1  0  -0.640631  0  1.973774  0  0  -0.575415  0  2.219569  0  0  -0.605993  0  2.210755  0  0  -0.321249  -0.554167  0  2.225752  0
O  O86  1  0.56139237  0.81016639  0.28943014  1  0  -0.640644  0  1.973592  0  0  -0.575414  0  2.219405  0  0  -0.605992  0  2.21059  0  0  -0.321274  -0.554167  0  2.22558  0
O  O87  1  0.93860558  0.31016333  0.71057188  1  0  -0.640642  0  1.973686  0  0  -0.575439  0  2.21952  0  0  -0.606016  0  2.210704  0  0  -0.321277  -0.554193  0  2.225694  0
O  O88  1  0.94908701  0.96966029  0.62039968  1  0  -0.67284  0  1.976685  0  0  -0.606565  0  2.226322  0  0  -0.635534  0  2.213044  0  0  -0.334659  -0.585909  0  2.234619  0
O  O89  1  0.55090917  0.46966316  0.37960074  1  0  -0.672863  0  1.976631  0  0  -0.606577  0  2.226287  0  0  -0.635543  0  2.212995  0  0  -0.334677  -0.585924  0  2.234584  0
O  O90  1  0.05090821  0.03033360  0.37960307  1  0  -0.672883  0  1.976705  0  0  -0.606594  0  2.22638  0  0  -0.635555  0  2.21308  0  0  -0.334644  -0.585941  0  2.234678  0
O  O91  1  0.44909161  0.53033927  0.62039965  1  0  -0.672878  0  1.976598  0  0  -0.606586  0  2.226272  0  0  -0.635554  0  2.212986  0  0  -0.334656  -0.585931  0  2.234571  0
O  O92  1  0.16086865  0.84738015  0.63369902  1  0  -0.643765  0  2.043147  0  0  -0.564317  0  2.275502  0  0  -0.595013  0  2.266141  0  0  -0.308226  -0.542694  0  2.280983  0
O  O93  1  0.33912984  0.34738158  0.36629886  1  0  -0.643693  0  2.043216  0  0  -0.56426  0  2.275609  0  0  -0.594959  0  2.266248  0  0  -0.308198  -0.542642  0  2.28109  0
O  O94  1  0.83913102  0.15262015  0.36630133  1  0  -0.643768  0  2.04318  0  0  -0.564299  0  2.275553  0  0  -0.594997  0  2.266192  0  0  -0.308221  -0.542678  0  2.281035  0
O  O95  1  0.66087094  0.65262192  0.63370153  1  0  -0.643785  0  2.043152  0  0  -0.564297  0  2.275516  0  0  -0.594994  0  2.266154  0  0  -0.308237  -0.542677  0  2.281003  0
O  O96  1  0.07218147  0.39402560  0.44251706  1  0  -0.84542  0  1.886378  0  0  -0.784919  0  2.096282  0  0  -0.807021  0  2.065543  0  0  -0.583424  -0.769212  0  2.117661  0
O  O97  1  0.42781936  0.89402577  0.55748524  1  0  -0.845456  0  1.886332  0  0  -0.785024  0  2.096165  0  0  -0.807125  0  2.065436  0  0  -0.583461  -0.769313  0  2.117546  0
O  O98  1  0.92781931  0.60597363  0.55748333  1  0  -0.845409  0  1.886337  0  0  -0.784915  0  2.096233  0  0  -0.807019  0  2.065496  0  0  -0.583415  -0.769205  0  2.117613  0
O  O99  1  0.57218142  0.10597453  0.44251600  1  0  -0.845392  0  1.886355  0  0  -0.784897  0  2.096233  0  0  -0.807001  0  2.065503  0  0  -0.583408  -0.769189  0  2.117607  0
