# generated using pymatgen
data_CoH14C18(NO2)2
_symmetry_space_group_name_H-M   'P 1'
_cell_length_a   13.60227440
_cell_length_b   14.06899817
_cell_length_c   21.24557080
_cell_angle_alpha   89.99988062
_cell_angle_beta   90.00057899
_cell_angle_gamma   89.99956227
_symmetry_Int_Tables_number   1
_chemical_formula_structural   CoH14C18(NO2)2
_chemical_formula_sum   'Co8 H112 C144 N16 O32'
_cell_volume   4065.77282023
_cell_formula_units_Z   8
loop_
 _symmetry_equiv_pos_site_id
 _symmetry_equiv_pos_as_xyz
  1  'x, y, z'
loop_
 _atom_site_type_symbol
 _atom_site_label
 _atom_site_symmetry_multiplicity
 _atom_site_fract_x
 _atom_site_fract_y
 _atom_site_fract_z
 _atom_site_occupancy
 _atom_site_pbe_bader_charge
 _atom_site_pbe_bader_spin_density
 _atom_site_pbe_cm5_charge
 _atom_site_pbe_ddec_charge
 _atom_site_pbe_ddec_spin_density
 _atom_site_pbe_ddec_sum_bond_order
 _atom_site_pbe_magmom
Co  Co0  1  0.46664485  0.10305831  0.43918192  1  1.325997  2.626473  0.692595  0.89126  2.875781  2.563252  2.602
Co  Co1  1  0.03336294  0.89694588  0.93917447  1  1.325825  2.626489  0.692644  0.891237  2.875824  2.563728  2.602
Co  Co2  1  0.53336183  0.60305510  0.06081771  1  1.325865  2.626472  0.692592  0.891176  2.875792  2.563424  2.602
Co  Co3  1  0.96663455  0.39694645  0.56082468  1  1.325724  2.626493  0.692622  0.891171  2.875824  2.563571  2.602
Co  Co4  1  0.53336386  0.89694882  0.56082335  1  1.325872  2.626499  0.692592  0.891058  2.875831  2.563763  2.602
Co  Co5  1  0.96664209  0.10305415  0.06082327  1  1.325912  2.626489  0.692596  0.891175  2.875802  2.563498  2.602
Co  Co6  1  0.46663952  0.39694848  0.93917579  1  1.325922  2.626492  0.692561  0.891053  2.875819  2.563793  2.602
Co  Co7  1  0.03335651  0.60305784  0.43918107  1  1.325942  2.626482  0.692601  0.891187  2.875799  2.5635  2.602
H  H8  1  0.63295934  0.03121972  0.35881706  1  0.122369  0.001291  0.116593  0.087552  0.000205  1.002837  0.001
H  H9  1  0.86705937  0.96879380  0.85881685  1  0.122093  0.001291  0.116693  0.087778  0.000205  1.002963  0.001
H  H10  1  0.36704497  0.53122036  0.14118315  1  0.122339  0.001291  0.116589  0.087546  0.000205  1.002834  0.001
H  H11  1  0.13294491  0.46878750  0.64118407  1  0.122107  0.001291  0.116693  0.087741  0.000205  1.002962  0.001
H  H12  1  0.36706922  0.96878813  0.64118539  1  0.121986  0.001291  0.116655  0.087746  0.000205  1.003055  0.001
H  H13  1  0.13295669  0.03122400  0.14118042  1  0.122266  0.001292  0.116612  0.087605  0.000205  1.002833  0.001
H  H14  1  0.63293874  0.46878820  0.85881317  1  0.121984  0.001291  0.11663  0.087719  0.000205  1.003113  0.001
H  H15  1  0.86704395  0.53122318  0.35881838  1  0.122395  0.001292  0.116612  0.087585  0.000205  1.002837  0.001
H  H16  1  0.81500907  0.02485185  0.35982916  1  0.085877  0.000905  0.10634  0.112448  0.000464  0.999615  0.0
H  H17  1  0.68500891  0.97516877  0.85982211  1  0.085844  0.000905  0.106346  0.112457  0.000464  0.999531  0.0
H  H18  1  0.18499897  0.52484815  0.14016635  1  0.085819  0.000905  0.106356  0.112387  0.000464  0.999565  0.0
H  H19  1  0.31499017  0.47515118  0.64017409  1  0.085933  0.000905  0.106297  0.112332  0.000464  0.999597  0.0
H  H20  1  0.18501948  0.97515457  0.64018835  1  0.085707  0.000906  0.10631  0.112389  0.000464  0.999558  0.0
H  H21  1  0.31500200  0.02484974  0.14016763  1  0.085997  0.000905  0.106344  0.112355  0.000464  0.999579  0.0
H  H22  1  0.81498842  0.47515401  0.85981632  1  0.085744  0.000906  0.106335  0.11237  0.000464  0.999673  0.0
H  H23  1  0.68499501  0.52485027  0.35983306  1  0.086067  0.000905  0.106344  0.112361  0.000464  0.999624  0.0
H  H24  1  0.80697076  0.17651205  0.53672942  1  0.106327  0.000762  0.111694  0.125578  0.000292  1.001416  0.0
H  H25  1  0.69302525  0.82348958  0.03671327  1  0.105975  0.000762  0.111654  0.125623  0.000292  1.001324  0.0
H  H26  1  0.19303142  0.67651378  0.96327053  1  0.10634  0.000762  0.111636  0.125493  0.000292  1.001369  0.0
H  H27  1  0.30696278  0.32349105  0.46327614  1  0.106522  0.000762  0.111613  0.125562  0.000292  1.001335  0.0
H  H28  1  0.19301883  0.82350078  0.46328809  1  0.106138  0.000762  0.111648  0.125595  0.000293  1.001341  0.0
H  H29  1  0.30697243  0.17650476  0.96326658  1  0.106252  0.000762  0.111674  0.125599  0.000293  1.001421  0.0
H  H30  1  0.80697288  0.32350544  0.03672156  1  0.106898  0.000762  0.111615  0.125581  0.000292  1.001383  0.0
H  H31  1  0.69303049  0.67650969  0.53673243  1  0.106258  0.000762  0.111642  0.125526  0.000292  1.001434  0.0
H  H32  1  0.62463720  0.17865219  0.52740641  1  0.087401  0.001527  0.116848  0.085611  0.000165  1.018272  0.001
H  H33  1  0.87536087  0.82134520  0.02740322  1  0.087519  0.001528  0.11684  0.085657  0.000165  1.018286  0.001
H  H34  1  0.37536717  0.67866819  0.97259495  1  0.087177  0.001527  0.116834  0.085671  0.000165  1.018126  0.001
H  H35  1  0.12462645  0.32133946  0.47259419  1  0.087294  0.001528  0.116816  0.085657  0.000165  1.01812  0.001
H  H36  1  0.37535827  0.82134855  0.47259368  1  0.087533  0.001528  0.116864  0.085598  0.000165  1.018344  0.001
H  H37  1  0.12463755  0.17865696  0.97258840  1  0.087187  0.001527  0.116809  0.085647  0.000165  1.018137  0.001
H  H38  1  0.62463713  0.32135459  0.02740656  1  0.087528  0.001528  0.116886  0.085665  0.000165  1.018268  0.001
H  H39  1  0.87536315  0.67865559  0.52741014  1  0.087238  0.001527  0.116842  0.08569  0.000165  1.01812  0.001
H  H40  1  0.32203989  0.03362049  0.34427466  1  0.104182  0.001468  0.119219  0.097186  0.000282  0.992051  0.001
H  H41  1  0.17796495  0.96636904  0.84426475  1  0.104125  0.001468  0.119221  0.097185  0.000282  0.992132  0.001
H  H42  1  0.67797102  0.53361026  0.15573026  1  0.104309  0.001468  0.119192  0.097153  0.000282  0.992138  0.001
H  H43  1  0.82203494  0.46637255  0.65573193  1  0.104239  0.001469  0.119209  0.097217  0.000283  0.992002  0.001
H  H44  1  0.67796514  0.96637954  0.65573202  1  0.104149  0.001468  0.119228  0.09722  0.000282  0.992203  0.001
H  H45  1  0.82203641  0.03361322  0.15573252  1  0.104063  0.001469  0.119189  0.09719  0.000282  0.992084  0.001
H  H46  1  0.32202813  0.46637484  0.84426702  1  0.10436  0.001468  0.119225  0.097179  0.000282  0.992167  0.001
H  H47  1  0.17796347  0.53362748  0.34426863  1  0.104143  0.001468  0.119222  0.097164  0.000282  0.992139  0.001
H  H48  1  0.14056066  0.01394529  0.33135516  1  0.075639  0.000898  0.104596  0.10978  0.00045  1.004158  0.0
H  H49  1  0.35944177  0.98606204  0.83134451  1  0.075743  0.000898  0.104615  0.109773  0.00045  1.004085  0.0
H  H50  1  0.85945409  0.51395075  0.16864649  1  0.075959  0.000898  0.104587  0.109781  0.00045  1.004072  0.0
H  H51  1  0.64055502  0.48604056  0.66866014  1  0.075434  0.000898  0.104562  0.109816  0.00045  1.004042  0.0
H  H52  1  0.85944291  0.98605403  0.66866000  1  0.075778  0.000898  0.104581  0.109809  0.00045  1.003947  0.0
H  H53  1  0.64055738  0.01393301  0.16865181  1  0.075865  0.000898  0.104617  0.109769  0.00045  1.003951  0.0
H  H54  1  0.14055021  0.48605781  0.83134419  1  0.075792  0.000898  0.104615  0.109831  0.00045  1.003955  0.0
H  H55  1  0.35944192  0.51395094  0.33134654  1  0.075533  0.000898  0.104544  0.109681  0.00045  1.004067  0.0
H  H56  1  0.10638054  0.14232814  0.51531894  1  0.090683  0.000859  0.109344  0.123735  0.000391  1.013603  0.0
H  H57  1  0.39364339  0.85768078  0.01530546  1  0.090872  0.000859  0.109233  0.123574  0.000391  1.01377  0.0
H  H58  1  0.89361897  0.64233460  0.98468530  1  0.090787  0.000858  0.1093  0.123711  0.000391  1.013624  0.0
H  H59  1  0.60635539  0.35767288  0.48469472  1  0.090899  0.000859  0.109309  0.123645  0.000391  1.013787  0.0
H  H60  1  0.89364655  0.85767473  0.48469857  1  0.090864  0.000859  0.109249  0.123602  0.000391  1.013669  0.0
H  H61  1  0.60636973  0.14232849  0.98469181  1  0.090902  0.000859  0.109265  0.123603  0.000391  1.0138  0.0
H  H62  1  0.10636253  0.35767751  0.01530538  1  0.090877  0.000859  0.10923  0.123548  0.000391  1.013801  0.0
H  H63  1  0.39362979  0.64232502  0.51531290  1  0.090804  0.000859  0.109279  0.123579  0.000391  1.013735  0.0
H  H64  1  0.28793179  0.15399994  0.52029232  1  0.125061  0.001308  0.114773  0.08961  0.000253  1.020469  0.001
H  H65  1  0.21209516  0.84600257  0.02028756  1  0.12479  0.001309  0.114836  0.089775  0.000253  1.020555  0.001
H  H66  1  0.71207057  0.65399709  0.97971049  1  0.12477  0.001309  0.11479  0.08968  0.000253  1.020433  0.001
H  H67  1  0.78790519  0.34600330  0.47970981  1  0.124853  0.001309  0.11482  0.089738  0.000253  1.020577  0.001
H  H68  1  0.71209603  0.84600720  0.47971060  1  0.124848  0.001309  0.11485  0.089794  0.000253  1.020563  0.001
H  H69  1  0.78791796  0.15400243  0.97971536  1  0.124745  0.001309  0.114805  0.089728  0.000253  1.020511  0.001
H  H70  1  0.28791020  0.34600365  0.02028725  1  0.124645  0.001309  0.114799  0.089778  0.000253  1.020525  0.001
H  H71  1  0.21208000  0.65399744  0.52028934  1  0.124631  0.001308  0.114793  0.089682  0.000253  1.02046  0.001
H  H72  1  0.95928044  0.13854792  0.49858553  1  0.131619  0.000137  0.10757  0.121048  7.1e-05  1.029657  0.0
H  H73  1  0.54073090  0.86145881  0.99856405  1  0.132258  0.000137  0.107713  0.121121  7e-05  1.029593  0.0
H  H74  1  0.04072082  0.63855775  0.00142111  1  0.1316  0.000137  0.107586  0.121043  7.1e-05  1.029732  0.0
H  H75  1  0.45926908  0.36145405  0.50142855  1  0.131968  0.000137  0.107728  0.121164  7e-05  1.029601  0.0
H  H76  1  0.04073048  0.86145850  0.50144140  1  0.132291  0.000137  0.107764  0.121143  7e-05  1.02963  0.0
H  H77  1  0.45928736  0.13854619  0.00142380  1  0.131721  0.000137  0.10765  0.121146  7.1e-05  1.029654  0.0
H  H78  1  0.95927171  0.36145507  0.99856392  1  0.132212  0.000137  0.107714  0.121183  7e-05  1.029559  0.0
H  H79  1  0.54071463  0.63854953  0.49857860  1  0.131669  0.000137  0.107647  0.121088  7.1e-05  1.029681  0.0
H  H80  1  0.97589913  0.03463659  0.37088704  1  0.049573  7.1e-05  0.098646  0.090005  6.8e-05  1.02172  0.0
H  H81  1  0.52410948  0.96537618  0.87087001  1  0.049964  7.1e-05  0.098741  0.090003  6.8e-05  1.021765  0.0
H  H82  1  0.02410442  0.53464192  0.12911411  1  0.049506  7.1e-05  0.098647  0.089994  6.8e-05  1.021814  0.0
H  H83  1  0.47588233  0.46534820  0.62912950  1  0.049758  7.1e-05  0.0988  0.090174  6.8e-05  1.02187  0.0
H  H84  1  0.02411179  0.96535917  0.62913941  1  0.049519  7.1e-05  0.098717  0.090019  6.8e-05  1.021787  0.0
H  H85  1  0.47589408  0.03462598  0.12912020  1  0.049663  7.1e-05  0.098729  0.090062  6.8e-05  1.021785  0.0
H  H86  1  0.97588443  0.46537090  0.87087045  1  0.049607  7.1e-05  0.098754  0.090049  6.8e-05  1.021777  0.0
H  H87  1  0.52410506  0.53463477  0.37087954  1  0.049757  7.1e-05  0.098637  0.089968  6.8e-05  1.021733  0.0
H  H88  1  0.49943811  0.38170363  0.32542822  1  0.084052  0.001349  0.097607  0.108404  0.000632  1.027535  0.001
H  H89  1  0.00054438  0.61828879  0.82544358  1  0.084183  0.001349  0.09756  0.108353  0.000632  1.027778  0.001
H  H90  1  0.50055828  0.88170817  0.17456016  1  0.084137  0.001349  0.097557  0.108314  0.000632  1.027762  0.001
H  H91  1  0.99943401  0.11827814  0.67456541  1  0.084065  0.001349  0.09755  0.108274  0.000632  1.027702  0.001
H  H92  1  0.50054340  0.61828858  0.67455305  1  0.084278  0.001349  0.097552  0.108304  0.000632  1.027827  0.001
H  H93  1  0.99943566  0.38170484  0.17456876  1  0.08423  0.001349  0.097629  0.108428  0.000632  1.027645  0.001
H  H94  1  0.49945630  0.11828333  0.82544982  1  0.084441  0.001349  0.097562  0.1083  0.000632  1.027727  0.001
H  H95  1  0.00056220  0.88170412  0.32543421  1  0.084309  0.001348  0.097591  0.108415  0.000632  1.027623  0.001
H  H96  1  0.46050341  0.21284824  0.23633907  1  0.09447  0.000813  0.105174  0.106833  0.000524  0.987317  0.0
H  H97  1  0.03949973  0.78713163  0.73634359  1  0.09475  0.000813  0.105175  0.106772  0.000524  0.987167  0.0
H  H98  1  0.53950755  0.71286503  0.26366181  1  0.094745  0.000812  0.105156  0.106783  0.000524  0.987094  0.0
H  H99  1  0.96048687  0.28713240  0.76365619  1  0.094688  0.000813  0.105158  0.106802  0.000524  0.987121  0.0
H  H100  1  0.53950530  0.78712336  0.76365538  1  0.094919  0.000812  0.105154  0.106742  0.000524  0.987177  0.0
H  H101  1  0.96050824  0.21285276  0.26365933  1  0.09453  0.000813  0.105109  0.106755  0.000524  0.987269  0.0
H  H102  1  0.46049454  0.28712504  0.73634817  1  0.094906  0.000813  0.105142  0.106779  0.000524  0.987085  0.0
H  H103  1  0.03948949  0.71285554  0.23634155  1  0.094652  0.000813  0.105146  0.106784  0.000524  0.987205  0.0
H  H104  1  0.44840512  0.25545560  0.12376447  1  0.09082  0.001069  0.09897  0.118038  0.000316  1.029693  0.001
H  H105  1  0.05159626  0.74454378  0.62377149  1  0.090968  0.001068  0.09901  0.11815  0.000316  1.029568  0.001
H  H106  1  0.55159448  0.75545991  0.37623305  1  0.090968  0.001069  0.099019  0.118085  0.000316  1.029684  0.001
H  H107  1  0.94839730  0.24453864  0.87622742  1  0.091229  0.001068  0.099031  0.118069  0.000316  1.029598  0.001
H  H108  1  0.55158153  0.74454372  0.87621821  1  0.091264  0.001068  0.099039  0.118196  0.000316  1.029603  0.001
H  H109  1  0.94841539  0.25545482  0.37623660  1  0.090798  0.001069  0.098953  0.118052  0.000316  1.029783  0.001
H  H110  1  0.44840688  0.24454510  0.62377693  1  0.090975  0.001068  0.099023  0.118145  0.000316  1.029653  0.001
H  H111  1  0.05159597  0.75545641  0.12376515  1  0.090888  0.001068  0.099002  0.118109  0.000316  1.029664  0.001
H  H112  1  0.50878544  0.42603101  0.20690281  1  0.086626  0.000199  0.107392  0.110319  3.5e-05  0.982109  0.0
H  H113  1  0.99120295  0.57395094  0.70689695  1  0.086788  0.000199  0.107454  0.110404  3.5e-05  0.981941  0.0
H  H114  1  0.49121428  0.92604382  0.29309915  1  0.086415  0.000199  0.107438  0.110496  3.5e-05  0.982088  0.0
H  H115  1  0.00878093  0.07395225  0.79309987  1  0.086373  0.000199  0.107441  0.110481  3.5e-05  0.982162  0.0
H  H116  1  0.49120268  0.57394414  0.79309729  1  0.086119  0.000199  0.107435  0.110385  3.5e-05  0.982082  0.0
H  H117  1  0.00880282  0.42602847  0.29310315  1  0.087086  0.000199  0.107368  0.110274  3.5e-05  0.982301  0.0
H  H118  1  0.50880546  0.07394910  0.70689623  1  0.086665  0.000199  0.107477  0.110463  3.5e-05  0.981996  0.0
H  H119  1  0.99121381  0.92603783  0.20689881  1  0.086551  0.000199  0.107404  0.110368  3.5e-05  0.982136  0.0
C  C120  1  0.67451066  0.06213074  0.39762479  1  0.49072  -0.008745  0.039841  0.092385  -0.009202  3.963933  -0.005
C  C121  1  0.82549910  0.93786846  0.89761541  1  0.490342  -0.008745  0.039712  0.092142  -0.009203  3.964279  -0.005
C  C122  1  0.32549414  0.56213605  0.10237538  1  0.490644  -0.008744  0.039891  0.092496  -0.009201  3.963905  -0.005
C  C123  1  0.17449734  0.43786410  0.60238179  1  0.490408  -0.008746  0.03965  0.092077  -0.009204  3.964223  -0.005
C  C124  1  0.32550246  0.93786929  0.60238613  1  0.490263  -0.008747  0.039697  0.092067  -0.009204  3.964353  -0.005
C  C125  1  0.17450667  0.06213797  0.10237339  1  0.490854  -0.008746  0.039853  0.092354  -0.009203  3.963998  -0.005
C  C126  1  0.67450207  0.43786540  0.89761060  1  0.490296  -0.008747  0.039739  0.092074  -0.009204  3.964422  -0.005
C  C127  1  0.82549446  0.56213664  0.39762678  1  0.490717  -0.008746  0.039877  0.092496  -0.009203  3.963862  -0.005
C  C128  1  0.77626204  0.05933272  0.39850954  1  -0.131205  0.003359  -0.086779  -0.181911  0.001368  3.948697  0.003
C  C129  1  0.72374773  0.94067074  0.89850044  1  -0.13148  0.003356  -0.086803  -0.181891  0.001366  3.948787  0.003
C  C130  1  0.22374646  0.55933666  0.10148875  1  -0.131035  0.003358  -0.086801  -0.181857  0.001367  3.94859  0.003
C  C131  1  0.27624869  0.44066278  0.60149346  1  -0.131078  0.003357  -0.08666  -0.181681  0.001367  3.948676  0.003
C  C132  1  0.22375328  0.94066446  0.60150467  1  -0.131366  0.003358  -0.086654  -0.181662  0.001367  3.948902  0.003
C  C133  1  0.27625657  0.05933853  0.10148930  1  -0.131229  0.003355  -0.086804  -0.181811  0.001366  3.948527  0.003
C  C134  1  0.77625269  0.44065982  0.89849629  1  -0.131444  0.003359  -0.086795  -0.181774  0.001367  3.948939  0.003
C  C135  1  0.72374458  0.55934080  0.39850852  1  -0.131327  0.003358  -0.086799  -0.181859  0.001367  3.948553  0.003
C  C136  1  0.82788673  0.10031548  0.44931133  1  -0.014883  -0.015728  0.002717  0.140196  -0.016482  4.039115  -0.009
C  C137  1  0.67212016  0.89968713  0.94929630  1  -0.017015  -0.015727  0.002573  0.140126  -0.016479  4.039638  -0.009
C  C138  1  0.17211924  0.60032633  0.05069066  1  -0.017143  -0.015729  0.002714  0.14023  -0.016482  4.038858  -0.009
C  C139  1  0.32787438  0.39967894  0.55069531  1  -0.017096  -0.015728  0.002549  0.140142  -0.01648  4.039296  -0.009
C  C140  1  0.17212197  0.89968455  0.55070854  1  -0.017012  -0.015731  0.002518  0.140039  -0.016483  4.039916  -0.009
C  C141  1  0.32788487  0.10032214  0.05068967  1  -0.017482  -0.015729  0.002706  0.140263  -0.016481  4.038732  -0.009
C  C142  1  0.82787771  0.39968009  0.94929531  1  -0.016866  -0.015729  0.002508  0.140112  -0.016481  4.039447  -0.009
C  C143  1  0.67211742  0.60032465  0.44930902  1  -0.017081  -0.01573  0.0027  0.140189  -0.016483  4.038914  -0.009
C  C144  1  0.77067298  0.14306636  0.49666592  1  -0.027578  0.001325  -0.078243  -0.16831  -0.000258  3.912797  0.002
C  C145  1  0.72932951  0.85692759  0.99665180  1  -0.024482  0.001325  -0.078091  -0.168194  -0.000258  3.912897  0.002
C  C146  1  0.22933266  0.64307763  0.00333554  1  -0.025087  0.001326  -0.078102  -0.168074  -0.000258  3.912596  0.002
C  C147  1  0.27066095  0.35693061  0.50333940  1  -0.025183  0.001325  -0.078145  -0.168311  -0.000259  3.91291  0.002
C  C148  1  0.22933206  0.85693438  0.50334971  1  -0.02459  0.001326  -0.078104  -0.168135  -0.000257  3.912921  0.002
C  C149  1  0.27067184  0.14307173  0.00333229  1  -0.025191  0.001326  -0.078163  -0.168277  -0.000257  3.912717  0.002
C  C150  1  0.77066796  0.35693306  0.99665562  1  -0.025547  0.001325  -0.078019  -0.168175  -0.000258  3.912695  0.002
C  C151  1  0.72932865  0.64306871  0.49666822  1  -0.025187  0.001327  -0.078141  -0.168152  -0.000257  3.9127  0.002
C  C152  1  0.66918035  0.14367375  0.49179163  1  0.499419  -0.012154  0.045823  0.105036  -0.013072  3.952726  -0.007
C  C153  1  0.83082427  0.85632234  0.99178241  1  0.499286  -0.012153  0.045735  0.104907  -0.013069  3.953186  -0.007
C  C154  1  0.33082528  0.64367644  0.00820606  1  0.499696  -0.012153  0.045728  0.104885  -0.013072  3.953129  -0.007
C  C155  1  0.16916840  0.35632397  0.50821209  1  0.499722  -0.012153  0.045907  0.105103  -0.01307  3.953101  -0.007
C  C156  1  0.33082542  0.85632984  0.50821646  1  0.499458  -0.012154  0.045674  0.104945  -0.013071  3.95315  -0.007
C  C157  1  0.16918003  0.14367626  0.00820356  1  0.499837  -0.012151  0.045812  0.104934  -0.013069  3.952893  -0.007
C  C158  1  0.66917240  0.35633140  0.99178368  1  0.499535  -0.012153  0.045665  0.104959  -0.013071  3.953152  -0.007
C  C159  1  0.83082266  0.64367748  0.49179413  1  0.499783  -0.012154  0.045781  0.10492  -0.013073  3.952979  -0.007
C  C160  1  0.27110448  0.05650143  0.38080539  1  0.486361  -0.010598  0.043892  0.099802  -0.011389  3.954881  -0.006
C  C161  1  0.22890680  0.94349510  0.88079584  1  0.486362  -0.010599  0.043726  0.099528  -0.011389  3.955186  -0.006
C  C162  1  0.72890330  0.55649235  0.11919761  1  0.486243  -0.010599  0.043858  0.099692  -0.01139  3.954972  -0.006
C  C163  1  0.77109253  0.44350122  0.61919994  1  0.486432  -0.010596  0.043716  0.099407  -0.011387  3.955193  -0.006
C  C164  1  0.72890422  0.94349860  0.61920365  1  0.486333  -0.010597  0.04365  0.099345  -0.011387  3.955364  -0.006
C  C165  1  0.77110043  0.05649142  0.11919908  1  0.486265  -0.010598  0.04387  0.09964  -0.011389  3.954921  -0.006
C  C166  1  0.27109070  0.44349986  0.88079683  1  0.486224  -0.010598  0.043671  0.09952  -0.011387  3.954919  -0.006
C  C167  1  0.22889927  0.55650378  0.38080016  1  0.48643  -0.010598  0.043821  0.099682  -0.011389  3.954897  -0.006
C  C168  1  0.17022355  0.04599857  0.37408649  1  -0.094103  0.00227  -0.087684  -0.185332  0.000497  3.949781  0.003
C  C169  1  0.32978028  0.95400153  0.87407664  1  -0.095022  0.002269  -0.087667  -0.18525  0.000496  3.949949  0.003
C  C170  1  0.82978432  0.54600224  0.12591464  1  -0.094936  0.002269  -0.087686  -0.185241  0.000497  3.950001  0.003
C  C171  1  0.67021750  0.45399700  0.62592288  1  -0.095006  0.002269  -0.087618  -0.185178  0.000497  3.949847  0.003
C  C172  1  0.82977854  0.95400074  0.62592537  1  -0.095099  0.002267  -0.087653  -0.185209  0.000496  3.949843  0.003
C  C173  1  0.67022401  0.04598713  0.12591780  1  -0.094476  0.002268  -0.087686  -0.185209  0.000496  3.949535  0.003
C  C174  1  0.17021630  0.45400419  0.87407792  1  -0.095128  0.002269  -0.087676  -0.185317  0.000497  3.949647  0.003
C  C175  1  0.32977724  0.54600516  0.37408051  1  -0.09474  0.002269  -0.087706  -0.185223  0.000496  3.949802  0.003
C  C176  1  0.10621980  0.07716301  0.42197295  1  0.052697  -0.013189  0.002466  0.144749  -0.013844  4.037858  -0.008
C  C177  1  0.39379287  0.92284336  0.92195839  1  0.053503  -0.013192  0.002492  0.144767  -0.013849  4.037905  -0.008
C  C178  1  0.89378635  0.57716989  0.07803238  1  0.052993  -0.013189  0.002359  0.144459  -0.013845  4.03833  -0.008
C  C179  1  0.60620442  0.42283730  0.57803931  1  0.053851  -0.013191  0.002417  0.144555  -0.013848  4.038222  -0.008
C  C180  1  0.89379111  0.92284342  0.57804315  1  0.05383  -0.013191  0.002475  0.144651  -0.013846  4.038145  -0.008
C  C181  1  0.60621290  0.07714814  0.07803559  1  0.052958  -0.013191  0.002507  0.144531  -0.013847  4.037842  -0.008
C  C182  1  0.10620691  0.42284791  0.92196066  1  0.053378  -0.013191  0.002531  0.144703  -0.013847  4.037905  -0.008
C  C183  1  0.39378738  0.57716770  0.42196220  1  0.053609  -0.013191  0.002449  0.144548  -0.013847  4.038148  -0.008
C  C184  1  0.15049060  0.11678677  0.47592972  1  -0.064874  0.001069  -0.084663  -0.178381  -0.000104  3.92819  0.002
C  C185  1  0.34952438  0.88322158  0.97591634  1  -0.065394  0.001069  -0.084444  -0.177959  -0.000104  3.928218  0.002
C  C186  1  0.84951377  0.61679271  0.02407507  1  -0.064673  0.001067  -0.08452  -0.178132  -0.000105  3.92825  0.002
C  C187  1  0.65047322  0.38321819  0.52408235  1  -0.066074  0.001069  -0.084418  -0.177848  -0.000104  3.928312  0.002
C  C188  1  0.84952766  0.88321894  0.52408732  1  -0.065897  0.001069  -0.084363  -0.177792  -0.000104  3.928271  0.002
C  C189  1  0.65048285  0.11677774  0.02407999  1  -0.065478  0.001068  -0.084526  -0.177982  -0.000104  3.928188  0.002
C  C190  1  0.15047877  0.38322296  0.97591843  1  -0.065446  0.001068  -0.084453  -0.177862  -0.000104  3.928328  0.002
C  C191  1  0.34951710  0.61678681  0.47592151  1  -0.06526  0.001068  -0.084451  -0.177789  -0.000104  3.92807  0.002
C  C192  1  0.25181557  0.12409537  0.47908223  1  0.466612  -0.006816  0.039949  0.087208  -0.007149  3.970945  -0.004
C  C193  1  0.24820094  0.87590515  0.97907244  1  0.467021  -0.006815  0.039616  0.086513  -0.00715  3.971583  -0.004
C  C194  1  0.74818581  0.62409567  0.02092161  1  0.466541  -0.006816  0.039757  0.086868  -0.00715  3.971287  -0.004
C  C195  1  0.75179893  0.37591666  0.52092203  1  0.467569  -0.006819  0.039603  0.086532  -0.007152  3.971618  -0.004
C  C196  1  0.74820564  0.87590963  0.52092540  1  0.467241  -0.006817  0.039585  0.08645  -0.007151  3.971651  -0.004
C  C197  1  0.75180630  0.12409275  0.02092483  1  0.466977  -0.006815  0.039675  0.086667  -0.007149  3.971474  -0.004
C  C198  1  0.25180232  0.37590791  0.97907378  1  0.46723  -0.006814  0.039669  0.086552  -0.007149  3.971726  -0.004
C  C199  1  0.24819213  0.62409403  0.47907854  1  0.466668  -0.006814  0.039726  0.086704  -0.007149  3.97128  -0.004
C  C200  1  0.93377789  0.10294568  0.45586833  1  -0.031248  -0.010642  -0.078957  -0.11759  -0.011523  3.951626  -0.005
C  C201  1  0.56623058  0.89706188  0.95584932  1  -0.031351  -0.010647  -0.079123  -0.117879  -0.01153  3.952253  -0.005
C  C202  1  0.06622806  0.60295307  0.04413413  1  -0.030831  -0.010643  -0.079064  -0.117831  -0.011525  3.951787  -0.005
C  C203  1  0.43376471  0.39704724  0.54414511  1  -0.030976  -0.010646  -0.079115  -0.117758  -0.011528  3.952008  -0.005
C  C204  1  0.06623229  0.89705932  0.54415671  1  -0.031533  -0.010641  -0.079151  -0.117936  -0.011524  3.952482  -0.005
C  C205  1  0.43377666  0.10294526  0.04413806  1  -0.030614  -0.010646  -0.079158  -0.118038  -0.011529  3.951926  -0.005
C  C206  1  0.93376962  0.39706046  0.95584949  1  -0.031399  -0.010644  -0.079168  -0.11808  -0.011526  3.952322  -0.005
C  C207  1  0.56622488  0.60294924  0.45586157  1  -0.030981  -0.010643  -0.079138  -0.117807  -0.011525  3.951775  -0.005
C  C208  1  0.00064625  0.06899367  0.41427877  1  -0.08405  -0.011724  -0.085086  -0.127444  -0.01259  3.973826  -0.006
C  C209  1  0.49936409  0.93102338  0.91426112  1  -0.084669  -0.011722  -0.085045  -0.127203  -0.012588  3.973551  -0.006
C  C210  1  0.99936070  0.56899833  0.08572468  1  -0.084223  -0.011725  -0.085  -0.127201  -0.012592  3.973769  -0.006
C  C211  1  0.50063093  0.43100386  0.58573609  1  -0.084472  -0.011724  -0.085105  -0.12748  -0.01259  3.97414  -0.006
C  C212  1  0.99936540  0.93101346  0.58574533  1  -0.083917  -0.011726  -0.085008  -0.127238  -0.012592  3.973658  -0.006
C  C213  1  0.50063947  0.06898020  0.08572862  1  -0.084234  -0.011724  -0.085072  -0.127154  -0.012591  3.973818  -0.006
C  C214  1  0.00063477  0.43101733  0.91426223  1  -0.084137  -0.011722  -0.08505  -0.127158  -0.012588  3.973725  -0.006
C  C215  1  0.49936160  0.56899332  0.41427059  1  -0.084546  -0.011723  -0.084984  -0.127261  -0.012589  3.973808  -0.006
C  C216  1  0.47675377  0.23584325  0.35881310  1  1.475285  -0.006979  0.181313  0.58151  -0.008948  4.242833  -0.007
C  C217  1  0.02324835  0.76415690  0.85881944  1  1.475308  -0.006983  0.18133  0.581535  -0.00895  4.242588  -0.007
C  C218  1  0.52324819  0.73584345  0.14118351  1  1.475149  -0.006979  0.18123  0.581255  -0.008947  4.242903  -0.007
C  C219  1  0.97673917  0.26414580  0.64117803  1  1.474863  -0.006983  0.181294  0.581304  -0.008947  4.242798  -0.007
C  C220  1  0.52325494  0.76415536  0.64117899  1  1.475244  -0.00698  0.181379  0.581552  -0.008947  4.242472  -0.007
C  C221  1  0.97675080  0.23584029  0.14118490  1  1.475358  -0.00698  0.181201  0.581302  -0.008947  4.242931  -0.007
C  C222  1  0.47674435  0.26415018  0.85882459  1  1.475063  -0.006982  0.181264  0.58132  -0.008946  4.243043  -0.007
C  C223  1  0.02324895  0.73584285  0.35881689  1  1.47543  -0.00698  0.181241  0.581288  -0.008947  4.242798  -0.007
C  C224  1  0.48531490  0.30913777  0.30960281  1  -0.039047  -0.000833  -0.097818  -0.22993  -0.001702  3.913219  0.0
C  C225  1  0.01467984  0.69085114  0.80961391  1  -0.039846  -0.000822  -0.097714  -0.22985  -0.001693  3.913021  0.0
C  C226  1  0.51469016  0.80914429  0.19038991  1  -0.039638  -0.000827  -0.09763  -0.22959  -0.001697  3.913209  0.0
C  C227  1  0.98530385  0.19084624  0.69038931  1  -0.039895  -0.000824  -0.097674  -0.229484  -0.001693  3.912755  0.0
C  C228  1  0.51468499  0.69084662  0.69038175  1  -0.039218  -0.000819  -0.097744  -0.22978  -0.001689  3.91299  0.0
C  C229  1  0.98531417  0.30913965  0.19039089  1  -0.039639  -0.000832  -0.097708  -0.229795  -0.001702  3.912972  0.0
C  C230  1  0.48531782  0.19084294  0.80961913  1  -0.039441  -0.000819  -0.097781  -0.229711  -0.001689  3.912873  0.0
C  C231  1  0.01469162  0.80914028  0.30960702  1  -0.039713  -0.000831  -0.097763  -0.22991  -0.001701  3.913147  0.0
C  C232  1  0.47601973  0.28715694  0.24787746  1  -0.046285  -0.003336  -0.080183  -0.032983  -0.004048  4.030468  -0.001
C  C233  1  0.02396962  0.71282432  0.74788294  1  -0.046372  -0.003345  -0.080289  -0.033062  -0.004056  4.029953  -0.001
C  C234  1  0.52398256  0.78717317  0.25211577  1  -0.046559  -0.003337  -0.080295  -0.033076  -0.004048  4.030334  -0.001
C  C235  1  0.97601757  0.21282359  0.75211648  1  -0.046469  -0.003341  -0.080315  -0.033277  -0.004052  4.030274  -0.001
C  C236  1  0.52397207  0.71281750  0.75211275  1  -0.047109  -0.003342  -0.080226  -0.033027  -0.004053  4.030054  -0.001
C  C237  1  0.97602806  0.28715865  0.25212045  1  -0.046078  -0.003339  -0.080215  -0.033004  -0.004051  4.030158  -0.001
C  C238  1  0.47603277  0.21281833  0.74788856  1  -0.047446  -0.003343  -0.080168  -0.033037  -0.004054  4.030011  -0.001
C  C239  1  0.02397717  0.78716578  0.24788032  1  -0.046316  -0.003337  -0.080213  -0.032901  -0.004048  4.030209  -0.001
C  C240  1  0.48584872  0.39281498  0.08258132  1  1.513537  -0.005533  0.206208  0.603711  -0.00669  4.222533  -0.001
C  C241  1  0.01415127  0.60719518  0.58258454  1  1.513707  -0.005531  0.206304  0.603672  -0.006684  4.222821  -0.001
C  C242  1  0.51414978  0.89280594  0.41742023  1  1.513691  -0.005534  0.206324  0.60384  -0.006689  4.222357  -0.001
C  C243  1  0.98585220  0.10718467  0.91741411  1  1.513168  -0.005526  0.206115  0.603473  -0.006687  4.222874  -0.001
C  C244  1  0.51414822  0.60719642  0.91741313  1  1.513488  -0.005527  0.206249  0.603646  -0.006682  4.222786  -0.001
C  C245  1  0.98585229  0.39280343  0.41742403  1  1.512862  -0.005536  0.206338  0.603899  -0.006691  4.222118  -0.001
C  C246  1  0.48585745  0.10720333  0.58258458  1  1.513037  -0.005527  0.206359  0.603752  -0.006681  4.22254  -0.001
C  C247  1  0.01415063  0.89281038  0.08257892  1  1.513451  -0.005536  0.20631  0.603815  -0.006691  4.222321  -0.001
C  C248  1  0.47192085  0.32734405  0.13591856  1  -0.084123  0.005212  -0.096471  -0.233026  0.001535  3.898594  0.006
C  C249  1  0.02806528  0.67265245  0.63592836  1  -0.084019  0.005203  -0.096509  -0.233262  0.001528  3.899071  0.006
C  C250  1  0.52807671  0.82735141  0.36407367  1  -0.084302  0.005211  -0.09646  -0.233045  0.001534  3.899026  0.006
C  C251  1  0.97192076  0.17264646  0.86407207  1  -0.084412  0.005205  -0.096438  -0.232905  0.001531  3.898868  0.006
C  C252  1  0.52805992  0.67265171  0.86406601  1  -0.084468  0.005202  -0.09652  -0.233313  0.001528  3.899016  0.006
C  C253  1  0.97193608  0.32734118  0.36408068  1  -0.083938  0.005211  -0.096428  -0.233164  0.001533  3.898694  0.006
C  C254  1  0.47193935  0.17265644  0.63593113  1  -0.083914  0.005203  -0.096505  -0.23321  0.001528  3.89903  0.006
C  C255  1  0.02807398  0.82734646  0.13592096  1  -0.084016  0.00521  -0.096539  -0.233197  0.001533  3.898778  0.006
C  C256  1  0.48672390  0.35280202  0.19669313  1  -0.046813  -0.005732  -0.081614  -0.041137  -0.006487  4.021367  -0.003
C  C257  1  0.01327201  0.64718579  0.69669111  1  -0.046916  -0.005717  -0.081622  -0.041023  -0.006473  4.021431  -0.003
C  C258  1  0.51328081  0.85281392  0.30330423  1  -0.046487  -0.005727  -0.081671  -0.041349  -0.006482  4.021735  -0.003
C  C259  1  0.98671571  0.14718270  0.80330465  1  -0.046619  -0.005721  -0.081718  -0.041356  -0.006478  4.021823  -0.003
C  C260  1  0.51326423  0.64717811  0.80330178  1  -0.046716  -0.005714  -0.081648  -0.04106  -0.00647  4.021484  -0.003
C  C261  1  0.98673155  0.35280002  0.30330804  1  -0.047304  -0.005729  -0.081584  -0.040992  -0.006484  4.021481  -0.003
C  C262  1  0.48673157  0.14718256  0.69669586  1  -0.046921  -0.005715  -0.081765  -0.041287  -0.006471  4.02161  -0.003
C  C263  1  0.01327830  0.85280809  0.19669309  1  -0.046858  -0.005728  -0.081557  -0.04113  -0.006484  4.021414  -0.003
N  N264  1  0.62013980  0.10315583  0.44362899  1  -1.212518  0.048085  -0.328438  -0.25983  0.025472  3.58257  0.046
N  N265  1  0.87986480  0.89684324  0.94362239  1  -1.212353  0.048096  -0.328283  -0.259762  0.025479  3.582836  0.046
N  N266  1  0.37986541  0.60316443  0.05637205  1  -1.212905  0.048087  -0.328386  -0.259877  0.025475  3.582786  0.046
N  N267  1  0.12012903  0.39683514  0.55637723  1  -1.21296  0.048094  -0.328358  -0.259843  0.025479  3.582909  0.046
N  N268  1  0.37986964  0.89684562  0.55637863  1  -1.212455  0.048096  -0.328242  -0.259683  0.02548  3.582747  0.046
N  N269  1  0.12014024  0.10316461  0.05636830  1  -1.212803  0.04809  -0.328411  -0.25977  0.025475  3.582672  0.046
N  N270  1  0.62013374  0.39683987  0.94361769  1  -1.212417  0.048096  -0.328167  -0.259613  0.02548  3.582826  0.046
N  N271  1  0.87986351  0.60316560  0.44362993  1  -1.212982  0.048089  -0.328387  -0.259885  0.025475  3.582901  0.046
N  N272  1  0.31261691  0.09547697  0.43245061  1  -1.198954  0.051899  -0.328167  -0.249427  0.027677  3.557806  0.049
N  N273  1  0.18739151  0.90451800  0.93244132  1  -1.198648  0.051903  -0.327955  -0.249013  0.027676  3.557685  0.049
N  N274  1  0.68738836  0.59547119  0.06755233  1  -1.198617  0.051902  -0.327935  -0.249125  0.027677  3.557723  0.049
N  N275  1  0.81260666  0.40453248  0.56755310  1  -1.198768  0.051906  -0.32791  -0.24895  0.027678  3.557717  0.049
N  N276  1  0.68739400  0.90452661  0.56755419  1  -1.198725  0.0519  -0.327904  -0.248898  0.027674  3.557649  0.049
N  N277  1  0.81261278  0.09547492  0.06755595  1  -1.198808  0.051899  -0.328013  -0.249109  0.027676  3.557731  0.049
N  N278  1  0.31260711  0.40452529  0.93244400  1  -1.198648  0.051905  -0.327909  -0.249012  0.027679  3.55767  0.049
N  N279  1  0.18738514  0.59548105  0.43244605  1  -1.198419  0.051897  -0.327989  -0.249152  0.027675  3.557592  0.049
O  O280  1  0.46910895  0.14806733  0.34332474  1  -1.134653  0.094628  -0.321466  -0.553662  0.048756  2.2159  0.082
O  O281  1  0.03090028  0.85192931  0.84332487  1  -1.134589  0.094629  -0.321491  -0.55367  0.048756  2.215919  0.082
O  O282  1  0.53089517  0.64807098  0.15667530  1  -1.134507  0.094621  -0.321462  -0.553543  0.048751  2.215865  0.082
O  O283  1  0.96906670  0.35191752  0.65666870  1  -1.134229  0.09464  -0.32137  -0.553476  0.048757  2.215993  0.082
O  O284  1  0.53091079  0.85192417  0.65667489  1  -1.134694  0.094613  -0.321477  -0.553629  0.048748  2.215976  0.082
O  O285  1  0.96911137  0.14806645  0.15667664  1  -1.134694  0.094618  -0.321459  -0.553608  0.048751  2.215999  0.082
O  O286  1  0.46907237  0.35191839  0.84332997  1  -1.134569  0.094626  -0.321405  -0.553513  0.048751  2.216091  0.082
O  O287  1  0.03088834  0.64806830  0.34332434  1  -1.134699  0.094623  -0.321453  -0.553556  0.048754  2.215887  0.082
O  O288  1  0.47782013  0.25944968  0.41704828  1  -1.128724  0.081906  -0.315616  -0.556249  0.041763  2.166938  0.071
O  O289  1  0.02217702  0.74056452  0.91705841  1  -1.128749  0.081922  -0.315622  -0.556239  0.041771  2.167014  0.071
O  O290  1  0.52217429  0.75944578  0.08294640  1  -1.128644  0.081918  -0.31558  -0.556185  0.04177  2.167017  0.071
O  O291  1  0.97782465  0.24054505  0.58294285  1  -1.128358  0.081895  -0.315662  -0.556222  0.041755  2.167097  0.071
O  O292  1  0.52217387  0.74055888  0.58294052  1  -1.128685  0.081926  -0.315675  -0.556257  0.041772  2.166832  0.071
O  O293  1  0.97781919  0.25944688  0.08294874  1  -1.128645  0.081905  -0.315551  -0.556144  0.041763  2.166937  0.071
O  O294  1  0.47782413  0.24055283  0.91706263  1  -1.128401  0.081913  -0.315598  -0.55615  0.041764  2.16725  0.071
O  O295  1  0.02218185  0.75944787  0.41705300  1  -1.128655  0.081911  -0.315564  -0.556132  0.041766  2.166908  0.071
O  O296  1  0.45150563  0.36533845  0.02957488  1  -1.147893  0.0963  -0.306925  -0.55001  0.050937  2.439619  0.081
O  O297  1  0.04850456  0.63467541  0.52958299  1  -1.147847  0.096288  -0.307001  -0.54987  0.050927  2.439704  0.081
O  O298  1  0.54849457  0.86532902  0.47042576  1  -1.14779  0.096308  -0.307006  -0.550014  0.050941  2.439593  0.081
O  O299  1  0.95150531  0.13466429  0.97041844  1  -1.147692  0.096289  -0.306892  -0.549899  0.050931  2.43963  0.081
O  O300  1  0.54850969  0.63468006  0.97041392  1  -1.147468  0.096289  -0.306967  -0.549875  0.050926  2.439554  0.081
O  O301  1  0.95150121  0.36532533  0.47042793  1  -1.147552  0.096301  -0.307098  -0.550121  0.050938  2.439515  0.081
O  O302  1  0.45149944  0.13468878  0.52958469  1  -1.147534  0.096283  -0.307025  -0.549971  0.050924  2.439499  0.081
O  O303  1  0.04849825  0.86533289  0.02957413  1  -1.147785  0.096305  -0.307007  -0.550041  0.050939  2.439528  0.081
O  O304  1  0.53292591  0.46997593  0.09200549  1  -1.158342  0.086797  -0.311459  -0.566759  0.045517  2.467394  0.072
O  O305  1  0.96706508  0.53003335  0.59199672  1  -1.158518  0.086817  -0.31153  -0.566861  0.045526  2.467345  0.072
O  O306  1  0.46707125  0.96997083  0.40800299  1  -1.158179  0.086803  -0.311572  -0.566943  0.045522  2.467235  0.072
O  O307  1  0.03293679  0.03002207  0.90799640  1  -1.157852  0.086812  -0.311436  -0.566707  0.045528  2.467597  0.072
O  O308  1  0.46706221  0.53003475  0.90800637  1  -1.15822  0.086807  -0.311482  -0.566779  0.045521  2.467337  0.072
O  O309  1  0.03292672  0.46996881  0.40800620  1  -1.158148  0.086797  -0.311535  -0.566908  0.045519  2.467096  0.072
O  O310  1  0.53294260  0.03004057  0.59199569  1  -1.158169  0.086799  -0.311489  -0.566754  0.045517  2.467181  0.072
O  O311  1  0.96706677  0.96997085  0.09199663  1  -1.158307  0.086812  -0.311546  -0.566873  0.045525  2.467262  0.072
