# generated using pymatgen
data_Cu4H40C65(N3O5)4
_symmetry_space_group_name_H-M   'P 1'
_cell_length_a   13.94297881
_cell_length_b   21.11481026
_cell_length_c   25.58864196
_cell_angle_alpha   114.55198669
_cell_angle_beta   90.00149004
_cell_angle_gamma   89.99865573
_symmetry_Int_Tables_number   1
_chemical_formula_structural   Cu4H40C65(N3O5)4
_chemical_formula_sum   'Cu8 H80 C130 N24 O40'
_cell_volume   6852.24843913
_cell_formula_units_Z   2
loop_
 _symmetry_equiv_pos_site_id
 _symmetry_equiv_pos_as_xyz
  1  'x, y, z'
loop_
 _atom_site_type_symbol
 _atom_site_label
 _atom_site_symmetry_multiplicity
 _atom_site_fract_x
 _atom_site_fract_y
 _atom_site_fract_z
 _atom_site_occupancy
 _atom_site_pbe_bader_charge
 _atom_site_pbe_bader_spin_density
 _atom_site_pbe_cm5_charge
 _atom_site_pbe_ddec_charge
 _atom_site_pbe_ddec_spin_density
 _atom_site_pbe_ddec_sum_bond_order
 _atom_site_pbe_magmom
Cu  Cu0  1  0.00168279  0.80718941  0.61558742  1  1.074665  0.574299  0.673966  0.839268  0.739849  2.289858  0.575
Cu  Cu1  1  0.00175202  0.19283509  0.38443315  1  1.073788  0.574321  0.673939  0.838721  0.739852  2.290225  0.575
Cu  Cu2  1  0.00022699  0.86252744  0.72359800  1  1.103512  0.575599  0.681081  0.844639  0.743078  2.328516  0.575
Cu  Cu3  1  0.00024074  0.13748979  0.27641498  1  1.102477  0.575615  0.681124  0.844656  0.743109  2.329096  0.575
Cu  Cu4  1  0.50690413  0.55035373  0.48518088  1  1.083977  0.544453  0.671677  0.833369  0.696992  2.298005  0.541
Cu  Cu5  1  0.50689943  0.44965837  0.51482670  1  1.081523  -0.54349  0.671361  0.833015  -0.727205  2.29764  -0.54
Cu  Cu6  1  0.49178223  0.93458288  0.48494371  1  1.084296  -0.543633  0.672777  0.835914  -0.728254  2.301285  -0.541
Cu  Cu7  1  0.49179106  0.06537314  0.51506905  1  1.081348  0.544619  0.672941  0.835547  0.697968  2.301835  0.541
H  H8  1  0.01062400  0.79018456  0.50205324  1  0.604005  -0.000132  0.335397  0.410804  -8.9e-05  0.867533  0.0
H  H9  1  0.00938403  0.20923222  0.49768527  1  0.59803  -0.000131  0.33543  0.410888  -8.8e-05  0.867694  0.0
H  H10  1  0.95462066  0.72605249  0.50098415  1  0.621568  -0.000132  0.335625  0.410046  -8.9e-05  0.869026  0.0
H  H11  1  0.95344949  0.27334796  0.49873971  1  0.612388  -0.000132  0.335436  0.410243  -8.9e-05  0.868739  0.0
H  H12  1  0.96516363  0.88750489  0.83778015  1  0.608493  -0.000131  0.335044  0.41055  -8.8e-05  0.868574  0.0
H  H13  1  0.96496707  0.11235418  0.16220581  1  0.609649  -0.000131  0.335248  0.410733  -8.8e-05  0.868279  0.0
H  H14  1  0.06012966  0.92574039  0.83757239  1  0.613457  -0.000129  0.335456  0.410266  -8.7e-05  0.868399  0.0
H  H15  1  0.05992227  0.07406485  0.16238441  1  0.60747  -0.000131  0.335392  0.410493  -8.7e-05  0.86819  0.0
H  H16  1  0.75532919  0.66287937  0.58588290  1  0.09882  0.000562  0.114633  0.129903  0.000433  0.985502  0.0
H  H17  1  0.75533807  0.33712398  0.41413581  1  0.147643  8e-05  0.114541  0.129719  1e-05  0.985792  0.0
H  H18  1  0.24503766  0.92327712  0.58581294  1  0.138556  8.3e-05  0.115934  0.131791  1.1e-05  0.982764  0.0
H  H19  1  0.24512815  0.07672826  0.41417254  1  0.138239  0.000539  0.116087  0.132126  0.000425  0.982678  0.0
H  H20  1  0.84794238  0.71624206  0.75985129  1  0.126089  0.000249  0.115647  0.12836  0.00018  1.00495  0.0
H  H21  1  0.84788115  0.28373275  0.24015194  1  0.125831  0.000253  0.115576  0.128344  0.000185  1.004611  0.0
H  H22  1  0.15159512  0.04446720  0.75974136  1  0.152128  0.00023  0.118085  0.132743  0.000172  0.998452  0.0
H  H23  1  0.15165726  0.95556620  0.24024339  1  0.152096  0.000229  0.11814  0.13285  0.000169  0.998089  0.0
H  H24  1  0.25440458  0.67133877  0.58880641  1  0.133642  0.000607  0.115113  0.129794  0.000476  0.984459  0.0
H  H25  1  0.25440860  0.32870349  0.41120083  1  0.133649  0.000124  0.115064  0.129753  5.9e-05  0.98458  0.0
H  H26  1  0.74610788  0.91695226  0.58550555  1  0.124939  0.000146  0.110983  0.124535  7.5e-05  0.991036  0.0
H  H27  1  0.74623833  0.08302307  0.41458237  1  0.123955  0.000635  0.110889  0.124376  0.000493  0.991301  0.0
H  H28  1  0.14583359  0.70101057  0.75474975  1  0.079444  0.000416  0.113956  0.128531  0.000297  0.995721  0.0
H  H29  1  0.14584594  0.29898435  0.24523853  1  0.079363  0.000423  0.113937  0.12849  0.000301  0.995748  0.0
H  H30  1  0.85666725  0.05123613  0.75187941  1  0.110711  0.000377  0.11824  0.134893  0.000278  0.988996  0.0
H  H31  1  0.85667478  0.94880263  0.24816268  1  0.110648  0.000374  0.118236  0.13494  0.000275  0.988614  0.0
H  H32  1  0.64724241  0.54794941  0.67822968  1  0.084496  -0.000299  0.114491  0.128083  -0.000264  0.995594  0.0
H  H33  1  0.64723431  0.45205815  0.32179440  1  0.083931  0.000295  0.114421  0.128038  0.000249  0.995614  0.0
H  H34  1  0.35061370  0.13195788  0.67827929  1  0.108417  0.0003  0.114426  0.127629  0.000256  0.994973  0.0
H  H35  1  0.35057086  0.86800321  0.32171247  1  0.107747  -0.0003  0.114461  0.127682  -0.000268  0.994881  0.0
H  H36  1  0.35440320  0.53988515  0.66910886  1  0.139751  -0.000155  0.113573  0.125575  -0.000169  1.011238  0.0
H  H37  1  0.35439667  0.46013370  0.33087499  1  0.140175  0.000132  0.113527  0.125495  0.000146  1.011116  0.0
H  H38  1  0.64498251  0.12857765  0.66973701  1  0.138949  0.000134  0.113014  0.124619  0.000144  1.013256  0.0
H  H39  1  0.64497438  0.87144087  0.33028062  1  0.127168  -0.000159  0.113005  0.124507  -0.000168  1.013109  0.0
H  H40  1  0.60043054  0.58440472  0.77614253  1  0.159096  -2e-06  0.133352  0.137168  6e-06  1.001226  0.0
H  H41  1  0.60040550  0.41560019  0.22386628  1  0.158812  2e-06  0.13337  0.137184  -8e-06  1.001191  0.0
H  H42  1  0.39879259  0.19209666  0.77630765  1  0.144403  3e-06  0.133578  0.137571  -7e-06  1.001079  0.0
H  H43  1  0.39880107  0.80789050  0.22366051  1  0.144176  -1e-06  0.133642  0.137604  7e-06  1.000773  0.0
H  H44  1  0.10221831  0.61656616  0.79228682  1  0.151171  -4e-06  0.13435  0.139304  -1.1e-05  0.996545  0.0
H  H45  1  0.10222878  0.38344744  0.20768301  1  0.151448  -3e-06  0.134419  0.139359  -1.1e-05  0.996555  0.0
H  H46  1  0.89788104  0.17446315  0.79270831  1  0.131477  -3e-06  0.1353  0.140528  -1e-05  0.995071  0.0
H  H47  1  0.89783218  0.82557884  0.20728623  1  0.131272  -4e-06  0.135258  0.140415  -1e-05  0.995432  0.0
H  H48  1  0.47520149  0.61826992  0.41631740  1  0.616897  -7.6e-05  0.332494  0.410145  -5e-05  0.868041  0.0
H  H49  1  0.47513786  0.38177218  0.58367851  1  0.616193  7.6e-05  0.332631  0.410344  4.7e-05  0.867885  0.0
H  H50  1  0.52212733  0.79704690  0.41591568  1  0.584971  8.6e-05  0.332614  0.409495  4.8e-05  0.868599  0.0
H  H51  1  0.52191510  0.20298484  0.58408321  1  0.583413  -8.6e-05  0.332914  0.409634  -5.1e-05  0.868549  0.0
H  H52  1  0.44435065  0.66963317  0.47726726  1  0.619048  -8.8e-05  0.333451  0.413471  -5.2e-05  0.864768  0.0
H  H53  1  0.44420922  0.33043996  0.52273181  1  0.61855  8.8e-05  0.333611  0.414112  5.1e-05  0.86418  0.0
H  H54  1  0.55253315  0.80644529  0.47684245  1  0.616882  9.4e-05  0.332368  0.411594  5.3e-05  0.867301  0.0
H  H55  1  0.55239369  0.19358301  0.52316548  1  0.617274  -9.4e-05  0.332687  0.411698  -5.5e-05  0.867259  0.0
H  H56  1  0.76556397  0.60826782  0.95276169  1  0.100429  -0.0  0.102828  0.105088  -0.0  1.009708  0.0
H  H57  1  0.76556591  0.39174479  0.04726191  1  0.10029  -0.0  0.102869  0.105184  -0.0  1.009632  0.0
H  H58  1  0.23558573  0.34589333  0.95361908  1  0.073596  -0.0  0.10282  0.105188  -0.0  1.008951  0.0
H  H59  1  0.23556620  0.65408507  0.04634725  1  0.073352  -0.0  0.102798  0.105102  -0.0  1.009174  0.0
H  H60  1  0.52174501  0.54822862  0.83853345  1  0.071899  0.0  0.098659  0.100236  -1e-06  1.016651  0.0
H  H61  1  0.52173155  0.45179374  0.16147434  1  0.071894  0.0  0.098672  0.100366  1e-06  1.016488  0.0
H  H62  1  0.47835927  0.28945497  0.83856955  1  0.070838  0.0  0.098839  0.100247  1e-06  1.016334  0.0
H  H63  1  0.47835104  0.71054492  0.16139943  1  0.071485  0.0  0.098931  0.100631  -1e-06  1.016347  0.0
H  H64  1  0.03299771  0.61507896  0.87899608  1  0.074137  0.0  0.100338  0.102187  0.0  1.006887  0.0
H  H65  1  0.03298255  0.38498741  0.12101233  1  0.074007  -0.0  0.100351  0.102209  0.0  1.00665  0.0
H  H66  1  0.96607928  0.26309177  0.87948015  1  0.085914  -0.0  0.101387  0.103539  0.0  1.00429  0.0
H  H67  1  0.96601370  0.73695994  0.12051910  1  0.086234  0.0  0.101356  0.103897  0.0  1.004155  0.0
H  H68  1  0.26316540  0.47751872  0.87737430  1  0.076463  0.0  0.102896  0.105812  0.0  1.010597  0.0
H  H69  1  0.26319855  0.52249637  0.12260735  1  0.076816  -0.0  0.102889  0.105821  -0.0  1.010792  0.0
H  H70  1  0.73680444  0.39928364  0.87704848  1  0.075668  -0.0  0.102678  0.105317  -0.0  1.011101  0.0
H  H71  1  0.73677461  0.60074591  0.12293909  1  0.075809  0.0  0.102558  0.105166  0.0  1.011493  0.0
H  H72  1  0.68351369  0.56357491  0.01601027  1  0.058608  -0.0  0.096251  0.094965  -0.0  1.058134  0.0
H  H73  1  0.68351281  0.43641458  0.98399523  1  0.058461  1e-06  0.096251  0.094998  0.0  1.058038  0.0
H  H74  1  0.31932518  0.45359385  0.01682627  1  0.094584  1e-06  0.096419  0.094212  0.0  1.058648  0.0
H  H75  1  0.31930676  0.54637953  0.98315010  1  0.09384  -0.0  0.096612  0.094572  -0.0  1.058802  0.0
H  H76  1  0.44182673  0.50413650  0.90067680  1  0.087187  -0.0  0.100706  0.100933  -1e-06  1.026408  0.0
H  H77  1  0.44181239  0.49586272  0.09931293  1  0.087136  1e-06  0.100683  0.100947  1e-06  1.026551  0.0
H  H78  1  0.56002936  0.39538840  0.90075082  1  0.075429  1e-06  0.100609  0.100858  1e-06  1.02635  0.0
H  H79  1  0.56001477  0.60460650  0.09922897  1  0.075048  -1e-06  0.100591  0.100801  -1e-06  1.02659  0.0
H  H80  1  0.94915775  0.58909521  0.95115013  1  0.067025  0.0  0.101128  0.101889  0.0  1.021516  0.0
H  H81  1  0.94914977  0.41097802  0.04885704  1  0.065815  0.0  0.101198  0.10193  -0.0  1.021763  0.0
H  H82  1  0.05011858  0.36179309  0.95144427  1  0.072455  0.0  0.101179  0.101943  -0.0  1.021466  0.0
H  H83  1  0.05008967  0.63826998  0.04857029  1  0.075729  0.0  0.101282  0.102032  0.0  1.021346  0.0
H  H84  1  0.17793184  0.45166982  0.95041655  1  0.08535  0.0  0.096273  0.092476  -0.0  1.065077  0.0
H  H85  1  0.17795420  0.54836071  0.04957345  1  0.084889  -0.0  0.096339  0.092521  -0.0  1.064914  0.0
H  H86  1  0.82211616  0.49868762  0.95008096  1  0.061206  -0.0  0.096183  0.092587  -0.0  1.065528  0.0
H  H87  1  0.82211078  0.50135149  0.04991775  1  0.061819  0.0  0.096112  0.092362  -0.0  1.065689  0.0
C  C88  1  0.87516057  0.74864793  0.67013458  1  1.543945  -0.001915  0.217772  0.585404  0.000477  4.155052  -0.005
C  C89  1  0.87515992  0.25133858  0.32987266  1  1.542786  -0.001571  0.218053  0.58593  0.000714  4.15471  -0.004
C  C90  1  0.12605505  0.92162788  0.67005312  1  1.544231  -0.001514  0.217236  0.582094  0.000776  4.162512  -0.004
C  C91  1  0.12612001  0.07840057  0.32995145  1  1.543682  -0.001836  0.217188  0.581942  0.000542  4.16267  -0.005
C  C92  1  0.12607323  0.74664278  0.67183510  1  1.549613  -0.002154  0.21454  0.579359  0.00045  4.16127  -0.005
C  C93  1  0.12607242  0.25338359  0.32817736  1  1.552408  -0.001873  0.214403  0.578957  0.000666  4.161547  -0.005
C  C94  1  0.87597577  0.92335280  0.66756367  1  1.566137  -0.001845  0.214639  0.579297  0.000681  4.160313  -0.005
C  C95  1  0.87604952  0.07666339  0.33250456  1  1.562404  -0.002117  0.215498  0.580582  0.00046  4.159131  -0.005
C  C96  1  0.80988357  0.69374165  0.67205968  1  -0.02342  0.014559  -0.010264  -0.003377  0.010233  3.977  0.012
C  C97  1  0.80987085  0.30624448  0.32794884  1  -0.024739  0.015805  -0.010522  -0.004031  0.011122  3.977316  0.013
C  C98  1  0.19024840  0.97889955  0.67195815  1  0.001102  0.01601  -0.010132  -0.00504  0.011263  3.984908  0.013
C  C99  1  0.19031099  0.02110899  0.32802489  1  0.003187  0.014768  -0.010161  -0.004748  0.010387  3.984899  0.012
C  C100  1  0.19299463  0.69079936  0.67152890  1  -0.022804  0.016438  -0.009005  -0.000764  0.011435  3.959244  0.013
C  C101  1  0.19298326  0.30922685  0.32846883  1  -0.021912  0.017654  -0.008993  -0.00057  0.012297  3.959062  0.014
C  C102  1  0.80903645  0.97933528  0.66813169  1  -0.00741  0.017565  -0.009291  -0.001699  0.01223  3.959238  0.014
C  C103  1  0.80909493  0.02067690  0.33192561  1  -0.005123  0.016336  -0.009303  -0.00152  0.011369  3.95887  0.013
C  C104  1  0.75355158  0.65371598  0.62467486  1  0.063453  0.00068  -0.070319  -0.104813  0.000542  3.903598  0.0
C  C105  1  0.75355043  0.34627697  0.37533987  1  0.014801  0.003125  -0.070232  -0.104457  0.002099  3.903411  0.002
C  C106  1  0.24627418  0.97157546  0.62457414  1  -0.009554  0.003518  -0.070136  -0.104234  0.002345  3.902685  0.002
C  C107  1  0.24633300  0.02843147  0.37541658  1  -0.010736  0.001086  -0.070332  -0.104844  0.000803  3.902588  0.0
C  C108  1  0.80587861  0.68363921  0.72259876  1  0.043567  0.001454  -0.070091  -0.156104  0.001046  3.910782  0.001
C  C109  1  0.80583376  0.31634072  0.27740992  1  0.046193  0.001787  -0.070079  -0.155972  0.001262  3.910451  0.001
C  C110  1  0.19347418  0.03990780  0.72250316  1  -0.001012  0.002124  -0.069636  -0.156103  0.001471  3.909468  0.001
C  C111  1  0.19351568  0.96010331  0.27748315  1  -0.000941  0.001806  -0.069951  -0.15686  0.001268  3.909709  0.001
C  C112  1  0.25405497  0.65655191  0.62479183  1  -5.7e-05  -0.000571  -0.069666  -0.104172  -0.000268  3.892507  -0.001
C  C113  1  0.25405822  0.34347733  0.37520899  1  -0.000256  0.002046  -0.06968  -0.104181  0.001368  3.892622  0.002
C  C114  1  0.74707034  0.96750000  0.62203765  1  0.02126  0.002043  -0.072436  -0.107058  0.001387  3.903256  0.002
C  C115  1  0.74716714  0.03249198  0.37803879  1  -0.05003  -0.000382  -0.072475  -0.107518  -0.000142  3.902958  0.0
C  C116  1  0.19207443  0.67242161  0.71819416  1  0.009027  0.000582  -0.075052  -0.168274  0.000456  3.914058  0.0
C  C117  1  0.19207816  0.32758743  0.28179768  1  0.007613  0.000962  -0.074918  -0.168083  0.000708  3.913764  0.001
C  C118  1  0.80995197  0.04402879  0.71572440  1  -0.011859  0.000806  -0.073074  -0.165905  0.000605  3.904761  0.001
C  C119  1  0.80997672  0.95600056  0.28432355  1  -0.009165  0.000543  -0.073238  -0.166544  0.000432  3.904983  0.0
C  C120  1  0.69402798  0.60212325  0.62765651  1  -0.014866  9.2e-05  -0.008625  -0.001173  -8.1e-05  3.973053  0.0
C  C121  1  0.69401340  0.39787030  0.37235640  1  -0.014595  0.001352  -0.008544  -0.001212  0.000829  3.973087  0.001
C  C122  1  0.30490677  0.02660756  0.62757621  1  0.0066  0.001218  -0.008968  -0.002523  0.000766  3.975315  0.001
C  C123  1  0.30492644  0.97336858  0.37241144  1  0.007403  8.5e-05  -0.00897  -0.002239  -0.000103  3.975597  0.0
C  C124  1  0.74718266  0.63136743  0.72485524  1  0.252422  0.001368  0.102491  0.157489  0.000868  4.034425  0.001
C  C125  1  0.74714590  0.36862662  0.27515900  1  0.251035  1.7e-05  0.102533  0.157234  -9.5e-05  4.034903  0.0
C  C126  1  0.25142789  0.09474862  0.72473868  1  0.277902  -3.3e-05  0.102405  0.155971  -0.000134  4.040148  0.0
C  C127  1  0.25144539  0.90524576  0.27524429  1  0.277561  0.001323  0.102574  0.15671  0.000838  4.039294  0.001
C  C128  1  0.31315734  0.60286403  0.62449876  1  0.018667  0.000954  -0.009013  -0.00185  0.00055  3.963677  0.001
C  C129  1  0.31317090  0.39715628  0.37548930  1  0.016887  0.000935  -0.009072  -0.002332  0.000511  3.964233  0.001
C  C130  1  0.68713857  0.02120581  0.62319417  1  -0.045918  0.001055  -0.010738  -0.00401  0.000567  3.971926  0.001
C  C131  1  0.68720128  0.97878521  0.37685686  1  0.025107  0.000951  -0.010456  -0.003355  0.000537  3.971257  0.001
C  C132  1  0.25014975  0.61784742  0.71679769  1  0.284996  0.001614  0.10146  0.155219  0.001037  4.035935  0.001
C  C133  1  0.25014804  0.38216156  0.28318753  1  0.342171  0.000241  0.101457  0.155077  7.1e-05  4.035289  0.0
C  C134  1  0.75090555  0.09746672  0.71576609  1  0.290326  0.000196  0.101909  0.155131  4.9e-05  4.034424  0.0
C  C135  1  0.75090922  0.90256323  0.28426323  1  0.28997  0.001561  0.102067  0.155671  0.001005  4.034208  0.001
C  C136  1  0.63012154  0.56097685  0.57807455  1  1.546001  0.000944  0.216169  0.57747  0.000637  4.165736  0.001
C  C137  1  0.63011716  0.43902203  0.42193888  1  1.545782  -0.000564  0.21648  0.578109  -0.000652  4.164891  -0.001
C  C138  1  0.36875797  0.01807052  0.57809995  1  1.54627  -0.000645  0.21601  0.577742  -0.000741  4.167279  -0.001
C  C139  1  0.36877679  0.98190810  0.42189416  1  1.546874  0.001022  0.215799  0.577564  0.000717  4.168458  0.001
C  C140  1  0.69198317  0.58976365  0.67735036  1  0.044334  0.001435  -0.074944  -0.169751  0.000868  3.913324  0.001
C  C141  1  0.69195937  0.41022992  0.32266566  1  0.04566  0.000182  -0.074951  -0.169807  0.000135  3.914112  0.0
C  C142  1  0.30638931  0.08896930  0.67728783  1  0.011657  0.000666  -0.074327  -0.168059  0.00045  3.912416  0.0
C  C143  1  0.30638660  0.91101255  0.32270180  1  0.012243  0.00192  -0.074242  -0.16829  0.00119  3.912601  0.001
C  C144  1  0.38025731  0.56471293  0.57578035  1  1.526935  -0.000418  0.217464  0.589293  -0.000561  4.149004  -0.001
C  C145  1  0.38025819  0.43531243  0.42421197  1  1.527849  0.000829  0.217654  0.59005  0.00058  4.148057  0.001
C  C146  1  0.61902449  0.01115561  0.57522728  1  1.543029  0.000783  0.216887  0.589176  0.00056  4.153274  0.001
C  C147  1  0.61906686  0.98884443  0.42481686  1  1.542862  -0.00035  0.216537  0.588836  -0.000526  4.153527  -0.001
C  C148  1  0.31032867  0.58279921  0.67008664  1  0.015713  -0.000334  -0.072411  -0.15786  -0.000307  3.916228  0.0
C  C149  1  0.31032934  0.41721488  0.32990159  1  -0.03932  -0.000996  -0.072271  -0.157397  -0.000667  3.915821  -0.001
C  C150  1  0.68990048  0.08644833  0.66957496  1  0.021931  -0.001032  -0.072814  -0.157904  -0.000695  3.919037  -0.001
C  C151  1  0.68992171  0.91356453  0.33045701  1  0.034629  -0.000307  -0.073108  -0.158124  -0.000295  3.919286  0.0
C  C152  1  0.66907754  0.59825537  0.79769322  1  0.254328  -3e-06  0.020868  -0.153152  1.3e-05  3.879264  0.0
C  C153  1  0.66905628  0.40176290  0.20232663  1  0.253986  6e-05  0.020832  -0.153233  3.7e-05  3.879067  0.0
C  C154  1  0.33014478  0.20027499  0.79787906  1  0.320278  5.4e-05  0.02081  -0.154503  3.2e-05  3.881632  0.0
C  C155  1  0.33014393  0.79971859  0.20208875  1  0.322074  -1e-05  0.020799  -0.154353  8e-06  3.88183  0.0
C  C156  1  0.17219734  0.59673164  0.79622784  1  0.30655  4.9e-05  0.021351  -0.153786  3.2e-05  3.874399  0.0
C  C157  1  0.17220837  0.40329531  0.20375811  1  0.306814  -5.7e-05  0.021446  -0.153534  -5.2e-05  3.874441  0.0
C  C158  1  0.82790427  0.19817192  0.79629847  1  0.350046  -5.7e-05  0.02292  -0.152623  -5.1e-05  3.870495  0.0
C  C159  1  0.82786110  0.80187077  0.20370820  1  0.349012  5.3e-05  0.022823  -0.152874  3.6e-05  3.871333  0.0
C  C160  1  0.70214984  0.60024299  0.84947011  1  0.475788  0.000122  0.089355  0.105636  9e-05  4.076257  0.0
C  C161  1  0.70213627  0.39978641  0.15055442  1  0.474905  -4.1e-05  0.089246  0.105408  -2.8e-05  4.076764  0.0
C  C162  1  0.29749213  0.25017179  0.84985528  1  0.441686  -3.9e-05  0.089004  0.106183  -2.6e-05  4.079745  0.0
C  C163  1  0.29748987  0.74982993  0.15011407  1  0.440411  0.000128  0.088779  0.105699  9.5e-05  4.080125  0.0
C  C164  1  0.20627176  0.56470968  0.83014319  1  0.437627  6.7e-05  0.089259  0.104389  5.5e-05  4.076733  0.0
C  C165  1  0.20628222  0.43532629  0.16985339  1  0.437803  7.5e-05  0.089079  0.104342  5.5e-05  4.07623  0.0
C  C166  1  0.79348801  0.26428225  0.83015008  1  0.416851  6.9e-05  0.089358  0.104107  5e-05  4.076943  0.0
C  C167  1  0.79343626  0.73576444  0.16984535  1  0.418188  5.6e-05  0.089672  0.104496  4.6e-05  4.07652  0.0
C  C168  1  0.65236051  0.57895199  0.88967655  1  0.012818  3.4e-05  -0.014104  0.046767  2.1e-05  4.048234  0.0
C  C169  1  0.65235147  0.42106906  0.11034050  1  0.012508  -9e-06  -0.014293  0.0467  -6e-06  4.048693  0.0
C  C170  1  0.34822291  0.31120942  0.89019574  1  0.016099  -9e-06  -0.014247  0.046607  -6e-06  4.052173  0.0
C  C171  1  0.34820800  0.68878346  0.10976701  1  0.015389  3.4e-05  -0.014023  0.047088  2.1e-05  4.051921  0.0
C  C172  1  0.15613599  0.54943895  0.87361811  1  0.02377  1e-06  -0.012931  0.0482  1e-06  4.04935  0.0
C  C173  1  0.15614100  0.45060326  0.12637949  1  0.02237  -2e-06  -0.013139  0.048171  -2e-06  4.04889  0.0
C  C174  1  0.84335467  0.32340853  0.87371401  1  0.027961  -3e-06  -0.01291  0.048099  -2e-06  4.048389  0.0
C  C175  1  0.84330797  0.67663401  0.12627993  1  0.025732  0.0  -0.012934  0.048262  0.0  4.048443  0.0
C  C176  1  0.69497518  0.58429977  0.94098821  1  -0.105874  6.3e-05  -0.087671  -0.11044  4.1e-05  3.955038  0.0
C  C177  1  0.69497253  0.41570730  0.05902623  1  -0.102695  -1.9e-05  -0.087747  -0.110681  -1.3e-05  3.954788  0.0
C  C178  1  0.30631404  0.35758608  0.94172377  1  -0.027411  -1.7e-05  -0.087806  -0.110988  -1.2e-05  3.955484  0.0
C  C179  1  0.30629476  0.64239577  0.05824476  1  -0.026078  6.6e-05  -0.087727  -0.110886  4.3e-05  3.955265  0.0
C  C180  1  0.55940424  0.55086604  0.87674302  1  -0.009339  3.6e-05  -0.092159  -0.121777  2.3e-05  3.985902  0.0
C  C181  1  0.55939266  0.44914189  0.12326193  1  -0.009506  -1.2e-05  -0.092066  -0.121879  -8e-06  3.985864  0.0
C  C182  1  0.44138322  0.32547075  0.87699064  1  -0.086098  -1.1e-05  -0.091895  -0.121824  -7e-06  3.987867  0.0
C  C183  1  0.44137087  0.67452795  0.12297818  1  -0.085544  4e-05  -0.092191  -0.122819  2.5e-05  3.988414  0.0
C  C184  1  0.06652024  0.57969556  0.89478405  1  -0.03106  1.7e-05  -0.091852  -0.122345  1.1e-05  3.983508  0.0
C  C185  1  0.06651098  0.42036681  0.10522230  1  -0.033055  2.4e-05  -0.091883  -0.122715  1.5e-05  3.984099  0.0
C  C186  1  0.93275516  0.31442899  0.89508806  1  -0.059672  2.2e-05  -0.090953  -0.120852  1.4e-05  3.981816  0.0
C  C187  1  0.93270428  0.68562098  0.10491401  1  -0.060828  1.3e-05  -0.091008  -0.121327  8e-06  3.981876  0.0
C  C188  1  0.19497189  0.50302210  0.89439548  1  -0.09062  3.1e-05  -0.087341  -0.110852  2e-05  3.957579  0.0
C  C189  1  0.19499223  0.49700930  0.10559390  1  -0.091416  3.3e-05  -0.087289  -0.110841  2.2e-05  3.95762  0.0
C  C190  1  0.80480625  0.39084975  0.89422310  1  -0.054686  3e-05  -0.088038  -0.111759  1.9e-05  3.957585  0.0
C  C191  1  0.80477674  0.60918589  0.10577418  1  -0.054686  2.6e-05  -0.087746  -0.111556  1.7e-05  3.958028  0.0
C  C192  1  0.64841109  0.55861740  0.97648598  1  0.001774  -6e-06  -0.094114  -0.13126  -4e-06  3.985411  0.0
C  C193  1  0.64840659  0.44137765  0.02351975  1  -0.000816  3e-06  -0.093942  -0.130962  2e-06  3.985079  0.0
C  C194  1  0.35382086  0.41854385  0.97716123  1  -0.055962  2e-06  -0.093781  -0.12975  1e-06  3.986786  0.0
C  C195  1  0.35381139  0.58143387  0.02281243  1  -0.058399  -8e-06  -0.094118  -0.130461  -5e-06  3.986884  0.0
C  C196  1  0.51370940  0.52558195  0.91220069  1  -0.05624  6e-06  -0.09042  -0.121386  4e-06  3.999733  0.0
C  C197  1  0.51369742  0.47441915  0.08779540  1  -0.056203  1e-06  -0.090345  -0.12128  1e-06  3.999331  0.0
C  C198  1  0.48805379  0.38597296  0.91243255  1  -0.054686  1e-06  -0.090874  -0.121303  1e-06  4.001546  0.0
C  C199  1  0.48804118  0.61401902  0.08754285  1  -0.054064  5e-06  -0.090815  -0.121009  4e-06  4.001874  0.0
C  C200  1  0.01882075  0.56508885  0.93612737  1  -0.070102  -2e-06  -0.090389  -0.122605  -1e-06  3.99456  0.0
C  C201  1  0.01881837  0.43497921  0.06387751  1  -0.064311  -7e-06  -0.090316  -0.122446  -5e-06  3.99554  0.0
C  C202  1  0.98055196  0.37070437  0.93633508  1  -0.056277  -7e-06  -0.090559  -0.122895  -5e-06  3.996106  0.0
C  C203  1  0.98052264  0.62934980  0.06367538  1  -0.058747  -2e-06  -0.090593  -0.123288  -1e-06  3.99598  0.0
C  C204  1  0.14654588  0.48869969  0.93587141  1  0.003553  -6e-06  -0.094247  -0.130312  -4e-06  3.99293  0.0
C  C205  1  0.14656448  0.51134001  0.06412168  1  0.003198  -7e-06  -0.09416  -0.13029  -5e-06  3.993179  0.0
C  C206  1  0.85326144  0.44695073  0.93567765  1  -0.005047  -6e-06  -0.093806  -0.13066  -4e-06  3.993906  0.0
C  C207  1  0.85324703  0.55308858  0.06432003  1  -0.011798  -5e-06  -0.093551  -0.130276  -3e-06  3.993616  0.0
C  C208  1  0.55863710  0.52655963  0.96171539  1  -0.06328  9.9e-05  -0.002467  0.068933  6.4e-05  3.908128  0.0
C  C209  1  0.55862785  0.47342956  0.03827766  1  -0.062518  -3.2e-05  -0.002559  0.06883  -2.2e-05  3.908063  0.0
C  C210  1  0.44375007  0.43503539  0.96205183  1  -0.00958  -2.8e-05  -0.003186  0.067692  -2e-05  3.91326  0.0
C  C211  1  0.44374476  0.56494820  0.03792708  1  -0.00905  0.000104  -0.003111  0.068109  6.8e-05  3.912778  0.0
C  C212  1  0.05870737  0.52032008  0.95836656  1  -0.040318  3.2e-05  -0.002905  0.067789  2.1e-05  3.906663  0.0
C  C213  1  0.05870882  0.47974238  0.04163854  1  -0.040279  4e-05  -0.003014  0.068034  2.6e-05  3.907412  0.0
C  C214  1  0.94086393  0.43789226  0.95836780  1  -0.051423  3.6e-05  -0.003786  0.067398  2.3e-05  3.907903  0.0
C  C215  1  0.94084455  0.56215762  0.04163710  1  -0.043919  2.5e-05  -0.004201  0.067367  1.6e-05  3.907552  0.0
C  C216  1  0.50139173  0.49999053  0.99999214  1  0.038317  1e-06  0.013705  0.00037  1e-06  3.802243  0.0
C  C217  1  0.99981270  0.50003108  0.00000189  1  0.052376  2e-06  0.01379  0.001586  1e-06  3.794363  0.0
N  N218  1  0.74339073  0.62188055  0.77639200  1  -0.853994  0.000394  -0.123913  0.112309  0.00024  3.820712  0.0
N  N219  1  0.74336485  0.37812812  0.22362993  1  -0.853494  4.1e-05  -0.124003  0.112641  -4e-06  3.819956  0.0
N  N220  1  0.25523209  0.15590011  0.77635054  1  -0.881055  4.7e-05  -0.124874  0.112157  -1e-06  3.826474  0.0
N  N221  1  0.25524574  0.84409683  0.22362555  1  -0.87986  0.000409  -0.124809  0.112081  0.000248  3.826265  0.0
N  N222  1  0.24737848  0.59576345  0.76199631  1  -0.855253  0.000384  -0.123026  0.113798  0.000227  3.81774  0.0
N  N223  1  0.24738032  0.40424971  0.23799031  1  -0.855596  8.1e-05  -0.123066  0.113609  3.5e-05  3.817648  0.0
N  N224  1  0.75313022  0.16458769  0.76170867  1  -0.854454  6.7e-05  -0.122681  0.114903  2.8e-05  3.810647  0.0
N  N225  1  0.75310111  0.83545421  0.23830798  1  -0.854959  0.000365  -0.122748  0.114912  0.000216  3.811298  0.0
N  N226  1  0.82022281  0.63809617  0.81319850  1  -0.097038  0.000184  -0.105789  -0.131954  0.000102  3.140593  0.0
N  N227  1  0.82020581  0.36192683  0.18683179  1  -0.097742  -7.8e-05  -0.105782  -0.131782  -6.9e-05  3.140533  0.0
N  N228  1  0.17847639  0.17685860  0.81317047  1  -0.088507  -7.7e-05  -0.103947  -0.128681  -6.8e-05  3.138945  0.0
N  N229  1  0.17847757  0.82314485  0.18680869  1  -0.090282  0.000189  -0.104146  -0.128921  0.000105  3.138655  0.0
N  N230  1  0.32552258  0.56470276  0.77402342  1  -0.107412  0.000141  -0.104829  -0.131712  0.000109  3.147322  0.0
N  N231  1  0.32552061  0.43532627  0.22598071  1  -0.107921  9.9e-05  -0.104948  -0.131803  5.3e-05  3.147097  0.0
N  N232  1  0.67484015  0.20767848  0.77354533  1  -0.079692  8.9e-05  -0.104896  -0.132198  4.5e-05  3.149208  0.0
N  N233  1  0.67480771  0.79236733  0.22647193  1  -0.079099  0.000126  -0.104694  -0.132118  0.0001  3.149267  0.0
N  N234  1  0.79496619  0.62479651  0.85674979  1  -0.547821  0.000322  -0.199896  -0.20564  0.000201  3.245342  0.0
N  N235  1  0.79495744  0.37523611  0.14328344  1  -0.545361  -2.8e-05  -0.199635  -0.205646  -1.9e-05  3.24557  0.0
N  N236  1  0.20435826  0.23352601  0.85702703  1  -0.549324  -2e-05  -0.199803  -0.206823  -1.4e-05  3.245348  0.0
N  N237  1  0.20435365  0.76647822  0.14294848  1  -0.548435  0.00034  -0.199652  -0.206503  0.000212  3.245213  0.0
N  N238  1  0.30043597  0.54644350  0.81494569  1  -0.536683  0.000323  -0.196816  -0.202961  0.0002  3.249797  0.0
N  N239  1  0.30044004  0.45359985  0.18506416  1  -0.536811  8.7e-05  -0.196757  -0.203107  5.6e-05  3.249539  0.0
N  N240  1  0.69948688  0.26711535  0.81463941  1  -0.563714  7e-05  -0.196574  -0.202796  4.5e-05  3.252117  0.0
N  N241  1  0.69944456  0.73293437  0.18536900  1  -0.563854  0.000306  -0.196926  -0.203007  0.000189  3.252139  0.0
O  O242  1  0.90546369  0.74130755  0.62086975  1  -1.09473  0.09384  -0.316088  -0.524577  0.060559  2.319029  0.085
O  O243  1  0.90544859  0.25866668  0.37912747  1  -1.095303  0.093768  -0.316212  -0.524648  0.060538  2.319477  0.085
O  O244  1  0.09569957  0.87942236  0.62080163  1  -1.099893  0.097151  -0.313977  -0.516987  0.062662  2.319063  0.088
O  O245  1  0.09584712  0.12062671  0.37920606  1  -1.098988  0.097163  -0.313851  -0.516818  0.062631  2.319693  0.088
O  O246  1  0.10658199  0.74696155  0.62327888  1  -1.086384  0.097984  -0.308737  -0.511604  0.062861  2.308096  0.089
O  O247  1  0.10658132  0.25308533  0.37673250  1  -1.087347  0.097987  -0.308689  -0.511361  0.062884  2.308175  0.089
O  O248  1  0.89575033  0.87396421  0.61898448  1  -1.109352  0.097458  -0.319423  -0.541178  0.062801  2.306628  0.088
O  O249  1  0.89587482  0.12601846  0.38107724  1  -1.109466  0.097385  -0.32012  -0.542168  0.062722  2.30758  0.088
O  O250  1  0.01056760  0.75506524  0.51741408  1  -1.172862  -0.001714  -0.562068  -0.728999  -0.000817  1.99136  0.0
O  O251  1  0.00978469  0.24464367  0.48263834  1  -1.156916  -0.001708  -0.562064  -0.728975  -0.000817  1.990506  0.0
O  O252  1  0.89642244  0.79776503  0.71853347  1  -1.103697  0.092815  -0.318833  -0.524508  0.059879  2.343022  0.085
O  O253  1  0.89642196  0.20222126  0.28146463  1  -1.103709  0.093154  -0.318916  -0.524674  0.060089  2.342623  0.085
O  O254  1  0.10553117  0.92087871  0.71840915  1  -1.093324  0.094756  -0.318154  -0.520872  0.061038  2.341637  0.086
O  O255  1  0.10553144  0.07912548  0.28158994  1  -1.093873  0.094481  -0.317967  -0.52051  0.060868  2.341184  0.086
O  O256  1  0.09265108  0.78828260  0.72054089  1  -1.102908  0.098034  -0.320835  -0.542866  0.063102  2.324692  0.089
O  O257  1  0.09267814  0.21171443  0.27946493  1  -1.104004  0.098375  -0.320871  -0.542756  0.063307  2.324377  0.09
O  O258  1  0.90888654  0.93075057  0.71625892  1  -1.096207  0.098258  -0.310856  -0.513778  0.0632  2.324577  0.089
O  O259  1  0.90891882  0.06926997  0.28379956  1  -1.095517  0.097904  -0.310957  -0.514058  0.062992  2.323941  0.089
O  O260  1  0.99537651  0.91729929  0.82202142  1  -1.171414  -0.001706  -0.562306  -0.729808  -0.000817  1.988326  0.0
O  O261  1  0.99522621  0.08263082  0.17802215  1  -1.166268  -0.001698  -0.562356  -0.730227  -0.000813  1.988332  0.0
O  O262  1  0.60940588  0.58892408  0.54389507  1  -1.10317  0.081673  -0.311921  -0.517498  0.052925  2.320015  0.074
O  O263  1  0.60940552  0.41107866  0.45611742  1  -1.102917  -0.081363  -0.312147  -0.517733  -0.05522  2.319835  -0.073
O  O264  1  0.38968167  0.95575151  0.54389723  1  -1.102937  -0.081193  -0.311614  -0.518242  -0.055013  2.321694  -0.073
O  O265  1  0.38971645  0.04421752  0.45608882  1  -1.102367  0.081434  -0.311435  -0.518034  0.052684  2.322469  0.073
O  O266  1  0.60043731  0.50245791  0.57526662  1  -1.098057  -0.091939  -0.316061  -0.515909  -0.062284  2.320139  -0.083
O  O267  1  0.60045037  0.49755793  0.42475766  1  -1.097769  0.092454  -0.316199  -0.51628  0.059865  2.319908  0.083
O  O268  1  0.39824345  0.07385000  0.57537499  1  -1.090887  0.093079  -0.315909  -0.514594  0.0602  2.321847  0.084
O  O269  1  0.39825790  0.92611947  0.42461876  1  -1.092002  -0.092585  -0.315784  -0.514721  -0.062646  2.322028  -0.084
O  O270  1  0.40871984  0.59638422  0.54567395  1  -1.091904  0.087388  -0.315479  -0.524833  0.056701  2.310303  0.079
O  O271  1  0.40870674  0.40364502  0.45431972  1  -1.092594  -0.087039  -0.315537  -0.525281  -0.059122  2.310103  -0.078
O  O272  1  0.59049757  0.94923936  0.54485688  1  -1.105921  -0.086263  -0.317338  -0.527214  -0.058608  2.316512  -0.078
O  O273  1  0.59054858  0.05075420  0.45518541  1  -1.10604  0.086574  -0.316933  -0.526739  0.056173  2.317215  0.078
O  O274  1  0.40471643  0.50370345  0.56959258  1  -1.102384  -0.083183  -0.319787  -0.5423  -0.056601  2.350597  -0.075
O  O275  1  0.40472334  0.49632791  0.43040997  1  -1.102644  0.083694  -0.320023  -0.542723  0.054425  2.350213  0.076
O  O276  1  0.59404308  0.06628831  0.56980647  1  -1.102396  0.08313  -0.320954  -0.543332  0.054005  2.351045  0.075
O  O277  1  0.59404820  0.93370573  0.43022822  1  -1.103015  -0.08257  -0.320904  -0.543414  -0.056131  2.350642  -0.075
O  O278  1  0.49745553  0.64026338  0.45592866  1  -1.185613  -0.001236  -0.565512  -0.735564  -0.000697  1.973784  0.0
O  O279  1  0.49737217  0.35974309  0.54406552  1  -1.184447  0.001246  -0.565782  -0.736425  0.000676  1.973086  0.0
O  O280  1  0.50021368  0.81541894  0.45560459  1  -1.152114  0.001142  -0.564907  -0.733942  0.00061  1.978923  0.0
O  O281  1  0.50008917  0.18454585  0.54437495  1  -1.150957  -0.001134  -0.565541  -0.734206  -0.000631  1.978929  0.0
