# generated using pymatgen
data_Tc2H12C8IO8
_symmetry_space_group_name_H-M   'P 1'
_cell_length_a   7.25755047
_cell_length_b   7.27329543
_cell_length_c   8.06690046
_cell_angle_alpha   63.19822671
_cell_angle_beta   80.29226871
_cell_angle_gamma   67.99381381
_symmetry_Int_Tables_number   1
_chemical_formula_structural   Tc2H12C8IO8
_chemical_formula_sum   'Tc2 H12 C8 I1 O8'
_cell_volume   352.38552504
_cell_formula_units_Z   1
loop_
 _symmetry_equiv_pos_site_id
 _symmetry_equiv_pos_as_xyz
  1  'x, y, z'
loop_
 _atom_site_type_symbol
 _atom_site_label
 _atom_site_symmetry_multiplicity
 _atom_site_fract_x
 _atom_site_fract_y
 _atom_site_fract_z
 _atom_site_occupancy
 _atom_site_pbe_cm5_charge
 _atom_site_pbe_ddec_charge
 _atom_site_pbe_ddec_spin_density
 _atom_site_pbe_ddec_sum_bond_order
 _atom_site_pbe_magmom
Tc  Tc0  1  0.86958649  0.63192915  0.00005756  1  0.702164  0.765038  0.465511  4.483366  0.429
Tc  Tc1  1  0.13040801  0.36807596  0.99994536  1  0.70229  0.765295  0.465573  4.483305  0.429
H  H2  1  0.18735361  0.72214461  0.38484176  1  0.099721  0.160997  -0.00016  1.018848  0.0
H  H3  1  0.81305696  0.89271218  0.38473353  1  0.099815  0.161513  -0.00016  1.019244  0.0
H  H4  1  0.81265276  0.27785308  0.61515705  1  0.09973  0.161032  -0.00016  1.01886  0.0
H  H5  1  0.18694003  0.10728518  0.61526897  1  0.099813  0.1615  -0.00016  1.019219  0.0
H  H6  1  0.41979733  0.53531361  0.35063544  1  0.103198  0.171031  -0.000364  1.015371  0.0
H  H7  1  0.58061198  0.11387147  0.35034825  1  0.102971  0.170891  -0.000364  1.015133  0.0
H  H8  1  0.58020952  0.46468549  0.64936029  1  0.10319  0.171012  -0.000364  1.015417  0.0
H  H9  1  0.41938310  0.88612963  0.64965214  1  0.102971  0.170922  -0.000364  1.015167  0.0
H  H10  1  0.25537292  0.43488046  0.53013122  1  0.104209  0.165364  -0.000616  1.011048  -0.001
H  H11  1  0.74492087  0.03466646  0.53002078  1  0.103752  0.164935  -0.000618  1.011963  -0.001
H  H12  1  0.74463485  0.56511702  0.46986778  1  0.104239  0.165384  -0.000616  1.010962  -0.001
H  H13  1  0.25507611  0.96533337  0.46997923  1  0.103762  0.16495  -0.000618  1.011944  -0.001
C  C14  1  0.16613700  0.53348391  0.25520730  1  0.229137  0.670124  -0.011154  4.013962  -0.009
C  C15  1  0.83424330  0.21109168  0.25530837  1  0.228359  0.670009  -0.011163  4.014702  -0.009
C  C16  1  0.83386510  0.46651490  0.74479534  1  0.229098  0.670056  -0.011153  4.014016  -0.009
C  C17  1  0.16575128  0.78891171  0.74469136  1  0.22836  0.670051  -0.011163  4.014689  -0.009
C  C18  1  0.26303424  0.55900682  0.38855503  1  -0.24308  -0.532492  -0.000546  3.864414  0.0
C  C19  1  0.73737971  0.05215469  0.38840517  1  -0.242114  -0.532239  -0.000543  3.866526  0.0
C  C20  1  0.73697213  0.44098963  0.61144502  1  -0.243104  -0.532506  -0.000546  3.864348  0.0
C  C21  1  0.26261867  0.94784493  0.61159505  1  -0.242103  -0.532256  -0.000543  3.866519  0.0
I  I22  1  0.49999813  0.00000575  0.99999617  1  -0.177812  -0.348166  -0.016616  1.270687  -0.008
O  O23  1  0.98810478  0.66015486  0.19867155  1  -0.300149  -0.467077  0.016945  2.410899  0.019
O  O24  1  0.01219463  0.14107825  0.19873287  1  -0.299868  -0.46689  0.016899  2.410368  0.019
O  O25  1  0.01189633  0.33984606  0.80133225  1  -0.300158  -0.467092  0.016944  2.410984  0.019
O  O26  1  0.98780465  0.85892222  0.80126812  1  -0.299832  -0.46683  0.016896  2.410534  0.019
O  O27  1  0.26150785  0.38391475  0.19838270  1  -0.300025  -0.464187  0.017304  2.410274  0.019
O  O28  1  0.73882571  0.41750656  0.19864745  1  -0.299227  -0.463033  0.017308  2.407937  0.019
O  O29  1  0.73849101  0.61608505  0.80161569  1  -0.300013  -0.464162  0.017302  2.410286  0.019
O  O30  1  0.26116897  0.58249140  0.80135282  1  -0.299296  -0.463174  0.017312  2.407854  0.019
