# generated using pymatgen
data_Fe3Cu2TeH10C21N2O9
_symmetry_space_group_name_H-M   'P 1'
_cell_length_a   10.04914661
_cell_length_b   11.09859741
_cell_length_c   11.97312533
_cell_angle_alpha   75.17707040
_cell_angle_beta   75.94795769
_cell_angle_gamma   76.70697894
_symmetry_Int_Tables_number   1
_chemical_formula_structural   Fe3Cu2TeH10C21N2O9
_chemical_formula_sum   'Fe6 Cu4 Te2 H20 C42 N4 O18'
_cell_volume   1232.09555440
_cell_formula_units_Z   2
loop_
 _symmetry_equiv_pos_site_id
 _symmetry_equiv_pos_as_xyz
  1  'x, y, z'
loop_
 _atom_site_type_symbol
 _atom_site_label
 _atom_site_symmetry_multiplicity
 _atom_site_fract_x
 _atom_site_fract_y
 _atom_site_fract_z
 _atom_site_occupancy
 _atom_site_hle17_bader_spin_density
 _atom_site_hle17_ddec_charge
 _atom_site_hle17_ddec_spin_density
 _atom_site_hle17_ddec_sum_bond_order
 _atom_site_hle17_magmom
 _atom_site_hse06_10hf_bader_spin_density
 _atom_site_hse06_10hf_ddec_charge
 _atom_site_hse06_10hf_ddec_spin_density
 _atom_site_hse06_10hf_ddec_sum_bond_order
 _atom_site_hse06_10hf_magmom
 _atom_site_hse06_bader_spin_density
 _atom_site_hse06_ddec_charge
 _atom_site_hse06_ddec_spin_density
 _atom_site_hse06_ddec_sum_bond_order
 _atom_site_hse06_magmom
 _atom_site_pbe_bader_spin_density
 _atom_site_pbe_cm5_charge
 _atom_site_pbe_ddec_charge
 _atom_site_pbe_ddec_spin_density
 _atom_site_pbe_ddec_sum_bond_order
 _atom_site_pbe_magmom
Fe  Fe0  1  0.64974919  0.17559128  0.24371397  1  0  -0.452931  0  5.066317  0  0  -0.382525  0  5.527274  0  0  -0.433876  0  5.561275  0  0  0.254412  -0.346886  0  5.501892  0
Fe  Fe1  1  0.35025120  0.82441132  0.75628821  1  0  -0.452985  0  5.066434  0  0  -0.382608  0  5.527396  0  0  -0.43391  0  5.561386  0  0  0.254406  -0.346935  0  5.502022  0
Fe  Fe2  1  0.90368364  0.20266496  0.26742250  1  0  -0.452408  0  5.091077  0  0  -0.377304  0  5.544585  0  0  -0.424546  0  5.573204  0  0  0.256914  -0.344346  0  5.522556  0
Fe  Fe3  1  0.09631694  0.79733669  0.73257904  1  0  -0.452451  0  5.09117  0  0  -0.37731  0  5.544607  0  0  -0.424548  0  5.573287  0  0  0.256902  -0.344323  0  5.522586  0
Fe  Fe4  1  0.68249742  0.24001022  0.43716571  1  0  -0.400358  0  5.005339  0  0  -0.351762  0  5.50911  0  0  -0.399859  0  5.544347  0  0  0.274555  -0.317005  0  5.481063  0
Fe  Fe5  1  0.31749970  0.75999329  0.56283610  1  0  -0.400132  0  5.005381  0  0  -0.351538  0  5.509164  0  0  -0.399645  0  5.544446  0  0  0.274665  -0.316741  0  5.481113  0
Cu  Cu6  1  0.82476639  0.25657325  0.07293881  1  0  0.372692  0  1.822829  0  0  0.25676  0  2.250666  0  0  0.253472  0  2.213682  0  0  0.386921  0.260611  0  2.274599  0
Cu  Cu7  1  0.17523460  0.74342650  0.92706310  1  0  0.3726  0  1.822835  0  0  0.256674  0  2.250679  0  0  0.253366  0  2.213708  0  0  0.3869  0.260521  0  2.274619  0
Cu  Cu8  1  0.70008491  0.38990600  0.24200030  1  0  0.291514  0  2.261892  0  0  0.199883  0  2.72584  0  0  0.17996  0  2.710558  0  0  0.388547  0.212799  0  2.738259  0
Cu  Cu9  1  0.29991811  0.61009376  0.75799868  1  0  0.291447  0  2.261941  0  0  0.199798  0  2.72591  0  0  0.179954  0  2.710616  0  0  0.388532  0.212701  0  2.738343  0
Te  Te10  1  0.77983013  0.02818135  0.39271711  1  0  0.333054  0  2.473924  0  0  0.243311  0  2.899335  0  0  0.214046  0  2.915543  0  0  0.059024  0.253517  0  2.892336  0
Te  Te11  1  0.22016740  0.97182028  0.60728756  1  0  0.333042  0  2.473991  0  0  0.243308  0  2.899384  0  0  0.214023  0  2.915627  0  0  0.059016  0.253507  0  2.892399  0
H  H12  1  0.08197449  0.20357856  0.90429561  1  0  0.078042  0  0.962691  0  0  0.08606  0  1.030029  0  0  0.088199  0  1.027943  0  0  0.114582  0.084339  0  1.031778  0
H  H13  1  0.91802771  0.79642023  0.09570294  1  0  0.07812  0  0.96281  0  0  0.086136  0  1.030123  0  0  0.088275  0  1.028038  0  0  0.11463  0.08442  0  1.031871  0
H  H14  1  0.17175000  0.28034158  0.69176550  1  0  0.116821  0  0.950638  0  0  0.125329  0  1.013876  0  0  0.128694  0  1.01272  0  0  0.109697  0.123073  0  1.014361  0
H  H15  1  0.82824175  0.71965803  0.30823167  1  0  0.116772  0  0.950664  0  0  0.125335  0  1.013868  0  0  0.128704  0  1.012707  0  0  0.109697  0.123079  0  1.014355  0
H  H16  1  0.76575851  0.51486984  0.67151978  1  0  0.111102  0  0.93583  0  0  0.125948  0  0.987412  0  0  0.128222  0  0.987953  0  0  0.113481  0.123977  0  0.987834  0
H  H17  1  0.23423162  0.48512790  0.32848570  1  0  0.111049  0  0.935973  0  0  0.125911  0  0.987505  0  0  0.128184  0  0.988046  0  0  0.113455  0.123942  0  0.987925  0
H  H18  1  0.69293586  0.42988186  0.88353342  1  0  0.08023  0  0.964806  0  0  0.087239  0  1.034098  0  0  0.089689  0  1.031728  0  0  0.113738  0.085446  0  1.035838  0
H  H19  1  0.30706698  0.57011888  0.11647121  1  0  0.080254  0  0.96464  0  0  0.087261  0  1.033952  0  0  0.089709  0  1.031585  0  0  0.113796  0.085468  0  1.035687  0
H  H20  1  0.13787182  0.40441280  0.50518301  1  0  0.100029  0  0.954054  0  0  0.10993  0  1.017714  0  0  0.113328  0  1.014998  0  0  0.107121  0.107405  0  1.019904  0
H  H21  1  0.86211805  0.59558108  0.49481428  1  0  0.09995  0  0.954058  0  0  0.109823  0  1.017751  0  0  0.11322  0  1.015036  0  0  0.107061  0.107313  0  1.019924  0
H  H22  1  0.80912830  0.54918889  0.01431597  1  0  0.075238  0  0.986225  0  0  0.079478  0  1.062291  0  0  0.082828  0  1.057963  0  0  0.111713  0.076849  0  1.065812  0
H  H23  1  0.19087637  0.45081278  0.98568137  1  0  0.07526  0  0.986259  0  0  0.079527  0  1.062269  0  0  0.082877  0  1.057943  0  0  0.111724  0.076911  0  1.065786  0
H  H24  1  0.74991400  0.76813172  0.90388209  1  0  0.110385  0  0.943695  0  0  0.124008  0  0.997955  0  0  0.125778  0  0.999185  0  0  0.111135  0.122738  0  0.997085  0
H  H25  1  0.25008637  0.23187086  0.09611592  1  0  0.110361  0  0.943683  0  0  0.123984  0  0.997944  0  0  0.125758  0  0.999169  0  0  0.111145  0.122722  0  0.997066  0
H  H26  1  0.41687646  0.83339976  0.20001065  1  0  0.112975  0  0.968952  0  0  0.122542  0  1.028779  0  0  0.125145  0  1.028589  0  0  0.110447  0.120519  0  1.029225  0
H  H27  1  0.58312346  0.16659522  0.79999013  1  0  0.112981  0  0.968877  0  0  0.122547  0  1.028713  0  0  0.125151  0  1.028521  0  0  0.110453  0.120516  0  1.029167  0
H  H28  1  0.49005848  0.61244826  0.29858897  1  0  0.079621  0  0.938201  0  0  0.091383  0  0.998766  0  0  0.092703  0  0.997751  0  0  0.117362  0.090098  0  0.999905  0
H  H29  1  0.50994347  0.38754671  0.70140638  1  0  0.079649  0  0.938084  0  0  0.091424  0  0.998636  0  0  0.092744  0  0.997624  0  0  0.11738  0.090132  0  0.999798  0
H  H30  1  0.61281514  0.97533841  0.89118606  1  0  0.096214  0  0.956269  0  0  0.106321  0  1.020181  0  0  0.109002  0  1.019016  0  0  0.106472  0.103991  0  1.021805  0
H  H31  1  0.38718277  0.02466130  0.10881483  1  0  0.09621  0  0.956152  0  0  0.10632  0  1.020079  0  0  0.109004  0  1.018911  0  0  0.106444  0.103985  0  1.021706  0
C  C32  1  0.49383274  0.11694048  0.29550311  1  0  0.28169  0  3.457533  0  0  0.235392  0  3.796348  0  0  0.273088  0  3.794883  0  0  0.013871  0.211339  0  3.793962  0
C  C33  1  0.50616823  0.88305926  0.70449630  1  0  0.281648  0  3.457611  0  0  0.235353  0  3.796423  0  0  0.273043  0  3.794962  0  0  0.01379  0.211286  0  3.794044  0
C  C34  1  0.72546730  0.07560768  0.14340201  1  0  0.204411  0  3.58506  0  0  0.170986  0  3.936397  0  0  0.212807  0  3.927637  0  0  -0.030126  0.143415  0  3.940282  0
C  C35  1  0.27453696  0.92439118  0.85660278  1  0  0.204533  0  3.585221  0  0  0.171114  0  3.936556  0  0  0.21293  0  3.9278  0  0  -0.03018  0.143534  0  3.940448  0
C  C36  1  0.56533462  0.31858781  0.16190929  1  0  0.16575  0  3.604236  0  0  0.129107  0  3.984164  0  0  0.172143  0  3.971934  0  0  -0.060543  0.099995  0  3.991212  0
C  C37  1  0.43466370  0.68141003  0.83809615  1  0  0.165864  0  3.604222  0  0  0.129224  0  3.984145  0  0  0.172241  0  3.971932  0  0  -0.060486  0.100101  0  3.991208  0
C  C38  1  0.02475857  0.09465396  0.19131432  1  0  0.222845  0  3.518997  0  0  0.17848  0  3.869006  0  0  0.21994  0  3.860005  0  0  -0.006281  0.152024  0  3.871638  0
C  C39  1  0.97524134  0.90534100  0.80868230  1  0  0.222852  0  3.5189  0  0  0.178471  0  3.868932  0  0  0.219933  0  3.859938  0  0  -0.006334  0.152003  0  3.871562  0
C  C40  1  0.93736785  0.35176987  0.18032548  1  0  0.159424  0  3.613855  0  0  0.124662  0  3.985735  0  0  0.168227  0  3.971007  0  0  -0.065276  0.095314  0  3.994277  0
C  C41  1  0.06263225  0.64821942  0.81967748  1  0  0.159601  0  3.613947  0  0  0.124812  0  3.985775  0  0  0.168364  0  3.971045  0  0  -0.065012  0.095482  0  3.99433  0
C  C42  1  0.00401715  0.20913110  0.36536808  1  0  0.281119  0  3.474887  0  0  0.230858  0  3.817015  0  0  0.264972  0  3.818913  0  0  0.015289  0.208156  0  3.812981  0
C  C43  1  0.99598753  0.79087060  0.63463259  1  0  0.28111  0  3.474851  0  0  0.230852  0  3.81697  0  0  0.26496  0  3.818885  0  0  0.015255  0.208133  0  3.81295  0
C  C44  1  0.67098317  0.40541583  0.42325322  1  0  0.189267  0  3.561905  0  0  0.144932  0  3.951888  0  0  0.187094  0  3.942815  0  0  -0.053039  0.11683  0  3.956377  0
C  C45  1  0.32902523  0.59459254  0.57674340  1  0  0.189311  0  3.561381  0  0  0.14498  0  3.951359  0  0  0.187137  0  3.942309  0  0  -0.053024  0.116869  0  3.955841  0
C  C46  1  0.75144695  0.20067455  0.56526925  1  0  0.258457  0  3.478452  0  0  0.216321  0  3.823091  0  0  0.256118  0  3.817698  0  0  0.008819  0.19089  0  3.823056  0
C  C47  1  0.24855429  0.79933375  0.43472970  1  0  0.258231  0  3.478388  0  0  0.216078  0  3.82307  0  0  0.255893  0  3.81766  0  0  0.008679  0.190656  0  3.823032  0
C  C48  1  0.50981864  0.22573502  0.50398986  1  0  0.252472  0  3.487018  0  0  0.197938  0  3.85111  0  0  0.237609  0  3.846611  0  0  0.006156  0.171815  0  3.851459  0
C  C49  1  0.49017710  0.77427513  0.49601228  1  0  0.252374  0  3.486918  0  0  0.197858  0  3.850979  0  0  0.237502  0  3.84652  0  0  0.006102  0.171718  0  3.851345  0
C  C50  1  0.01528675  0.27292390  0.84987309  1  0  0.135311  0  3.681074  0  0  0.101861  0  3.931432  0  0  0.109736  0  3.9478  0  0  0.043231  0.096385  0  3.920719  0
C  C51  1  0.98471094  0.72707674  0.15012428  1  0  0.135074  0  3.681406  0  0  0.101662  0  3.931764  0  0  0.109538  0  3.948133  0  0  0.043177  0.09619  0  3.921055  0
C  C52  1  0.06462429  0.31595001  0.73086322  1  0  -0.148115  0  3.658135  0  0  -0.167055  0  3.904136  0  0  -0.17493  0  3.924595  0  0  -0.076646  -0.161309  0  3.889786  0
C  C53  1  0.93537175  0.68404870  0.26913329  1  0  -0.147983  0  3.65811  0  0  -0.166999  0  3.904112  0  0  -0.174873  0  3.924574  0  0  -0.076647  -0.161253  0  3.889761  0
C  C54  1  0.97784779  0.40651514  0.66131302  1  0  0.148944  0  3.766181  0  0  0.164689  0  3.99612  0  0  0.170844  0  4.018677  0  0  0.016419  0.160363  0  3.981  0
C  C55  1  0.02214622  0.59348357  0.33868808  1  0  0.148901  0  3.766129  0  0  0.164611  0  3.996126  0  0  0.170762  0  4.018684  0  0  0.016376  0.160287  0  3.98101  0
C  C56  1  0.84065813  0.44665896  0.71896393  1  0  -0.147851  0  3.677835  0  0  -0.165934  0  3.918877  0  0  -0.175199  0  3.942669  0  0  -0.076993  -0.160336  0  3.904155  0
C  C57  1  0.15933425  0.55333786  0.28104214  1  0  -0.147705  0  3.677865  0  0  -0.16577  0  3.918887  0  0  -0.175032  0  3.942679  0  0  -0.076866  -0.160175  0  3.904167  0
C  C58  1  0.79837236  0.39899701  0.83805821  1  0  0.116346  0  3.699779  0  0  0.083778  0  3.952334  0  0  0.090341  0  3.970675  0  0  0.039783  0.07906  0  3.940958  0
C  C59  1  0.20162248  0.60100268  0.16194582  1  0  0.11623  0  3.699554  0  0  0.083659  0  3.952152  0  0  0.090222  0  3.970493  0  0  0.039647  0.078947  0  3.940775  0
C  C60  1  0.03320295  0.45256969  0.53717654  1  0  -0.087554  0  3.691463  0  0  -0.111336  0  3.947065  0  0  -0.114807  0  3.968125  0  0  -0.07519  -0.109536  0  3.9339  0
C  C61  1  0.96678307  0.54742797  0.46282397  1  0  -0.087413  0  3.691354  0  0  -0.111131  0  3.946946  0  0  -0.114596  0  3.968005  0  0  -0.075057  -0.10934  0  3.933769  0
C  C62  1  0.72312671  0.61478408  0.05308242  1  0  0.126533  0  3.69201  0  0  0.093185  0  3.944931  0  0  0.101302  0  3.959647  0  0  0.040388  0.087567  0  3.936027  0
C  C63  1  0.27687836  0.38521570  0.94691447  1  0  0.126374  0  3.691865  0  0  0.093032  0  3.944782  0  0  0.101146  0  3.959502  0  0  0.040327  0.087399  0  3.935869  0
C  C64  1  0.68992403  0.73824840  0.99180042  1  0  -0.149416  0  3.678713  0  0  -0.166894  0  3.922094  0  0  -0.175763  0  3.944896  0  0  -0.079034  -0.161559  0  3.907569  0
C  C65  1  0.31007776  0.26175228  0.00819608  1  0  -0.149323  0  3.678736  0  0  -0.166813  0  3.922121  0  0  -0.175678  0  3.944925  0  0  -0.079054  -0.161482  0  3.907597  0
C  C66  1  0.57973683  0.82347219  0.04261484  1  0  0.144834  0  3.786113  0  0  0.159511  0  4.017364  0  0  0.165486  0  4.039988  0  0  0.014629  0.155383  0  4.002435  0
C  C67  1  0.42026394  0.17652848  0.95738272  1  0  0.144841  0  3.786134  0  0  0.159529  0  4.017387  0  0  0.165488  0  4.04003  0  0  0.014637  0.1554  0  4.002447  0
C  C68  1  0.50583151  0.77504721  0.15530938  1  0  -0.155912  0  3.676822  0  0  -0.171109  0  3.91412  0  0  -0.179991  0  3.937423  0  0  -0.079456  -0.165148  0  3.898581  0
C  C69  1  0.49416782  0.22495061  0.84469084  1  0  -0.155983  0  3.676715  0  0  -0.171174  0  3.914027  0  0  -0.180053  0  3.937333  0  0  -0.079484  -0.165203  0  3.898485  0
C  C70  1  0.54538402  0.65056799  0.21100604  1  0  0.122681  0  3.690171  0  0  0.091199  0  3.939369  0  0  0.097899  0  3.957525  0  0  0.039341  0.086813  0  3.927071  0
C  C71  1  0.45461735  0.34942984  0.78899125  1  0  0.12274  0  3.690007  0  0  0.09124  0  3.939235  0  0  0.097937  0  3.957397  0  0  0.039323  0.086846  0  3.926932  0
C  C72  1  0.54860422  0.95373494  0.97894413  1  0  -0.084236  0  3.6924  0  0  -0.107885  0  3.948559  0  0  -0.110994  0  3.968682  0  0  -0.07609  -0.106587  0  3.936506  0
C  C73  1  0.45139553  0.04626572  0.02105280  1  0  -0.084261  0  3.692283  0  0  -0.107918  0  3.948439  0  0  -0.111022  0  3.968563  0  0  -0.076051  -0.106614  0  3.93638  0
N  N74  1  0.88390402  0.31364312  0.90455680  1  0  -0.275865  0  3.35359  0  0  -0.190325  0  3.6424  0  0  -0.203597  0  3.651565  0  0  -0.372919  -0.18229  0  3.636365  0
N  N75  1  0.11609145  0.68635847  0.09544664  1  0  -0.275673  0  3.353705  0  0  -0.190162  0  3.642514  0  0  -0.203432  0  3.65168  0  0  -0.372846  -0.182136  0  3.636489  0
N  N76  1  0.65374857  0.57010920  0.16212225  1  0  -0.271064  0  3.341603  0  0  -0.187224  0  3.613807  0  0  -0.198555  0  3.626548  0  0  -0.363623  -0.180047  0  3.605249  0
N  N77  1  0.34625830  0.42988679  0.83787351  1  0  -0.271034  0  3.341358  0  0  -0.187185  0  3.613559  0  0  -0.198531  0  3.626323  0  0  -0.36358  -0.180003  0  3.605004  0
O  O78  1  0.38911130  0.07829607  0.32148106  1  0  -0.243673  0  2.181947  0  0  -0.190015  0  2.400827  0  0  -0.206839  0  2.395257  0  0  -0.168958  -0.178051  0  2.40253  0
O  O79  1  0.61089005  0.92170174  0.67851373  1  0  -0.24365  0  2.182011  0  0  -0.189978  0  2.400873  0  0  -0.206795  0  2.395301  0  0  -0.168886  -0.177997  0  2.402569  0
O  O80  1  0.77112217  0.99647757  0.08853437  1  0  -0.22852  0  2.240627  0  0  -0.180764  0  2.465853  0  0  -0.200917  0  2.460649  0  0  -0.167492  -0.16687  0  2.468186  0
O  O81  1  0.22888272  0.00351850  0.91147849  1  0  -0.228668  0  2.240725  0  0  -0.180909  0  2.465942  0  0  -0.201069  0  2.46075  0  0  -0.167468  -0.167012  0  2.468285  0
O  O82  1  0.49110911  0.39374013  0.10439173  1  0  -0.23915  0  2.213109  0  0  -0.19462  0  2.444838  0  0  -0.21548  0  2.439119  0  0  -0.183712  -0.180129  0  2.447622  0
O  O83  1  0.50888675  0.60625956  0.89560875  1  0  -0.23917  0  2.2132  0  0  -0.194628  0  2.444918  0  0  -0.21549  0  2.439205  0  0  -0.183704  -0.180127  0  2.447703  0
O  O84  1  0.10849424  0.02087393  0.14579336  1  0  -0.215949  0  2.220217  0  0  -0.171351  0  2.450685  0  0  -0.188667  0  2.442271  0  0  -0.163335  -0.159311  0  2.45461  0
O  O85  1  0.89150116  0.97911815  0.85420906  1  0  -0.216001  0  2.219881  0  0  -0.171387  0  2.450337  0  0  -0.1887  0  2.441916  0  0  -0.163346  -0.159333  0  2.454259  0
O  O86  1  0.98986270  0.44049818  0.12868767  1  0  -0.24497  0  2.238438  0  0  -0.198022  0  2.473926  0  0  -0.219103  0  2.468809  0  0  -0.182839  -0.183189  0  2.476223  0
O  O87  1  0.01015609  0.55950458  0.87130232  1  0  -0.244864  0  2.238964  0  0  -0.197889  0  2.47448  0  0  -0.218957  0  2.469356  0  0  -0.182859  -0.183075  0  2.476789  0
O  O88  1  0.07664355  0.21790977  0.42458496  1  0  -0.237739  0  2.215773  0  0  -0.183696  0  2.442405  0  0  -0.200727  0  2.440155  0  0  -0.166483  -0.171551  0  2.442313  0
O  O89  1  0.92335683  0.78209281  0.57541472  1  0  -0.237801  0  2.215665  0  0  -0.183761  0  2.442299  0  0  -0.20079  0  2.440044  0  0  -0.166516  -0.17161  0  2.442213  0
O  O90  1  0.66325794  0.50506605  0.44510698  1  0  -0.252519  0  2.185096  0  0  -0.206563  0  2.419647  0  0  -0.226331  0  2.413072  0  0  -0.186496  -0.192587  0  2.423043  0
O  O91  1  0.33675935  0.49492907  0.55488183  1  0  -0.252763  0  2.184498  0  0  -0.206826  0  2.419065  0  0  -0.226601  0  2.412498  0  0  -0.18664  -0.192827  0  2.422449  0
O  O92  1  0.79444955  0.17727772  0.65227565  1  0  -0.235326  0  2.19623  0  0  -0.186744  0  2.415303  0  0  -0.203017  0  2.408981  0  0  -0.166468  -0.175291  0  2.418033  0
O  O93  1  0.20555905  0.82272971  0.34772200  1  0  -0.235158  0  2.196172  0  0  -0.186554  0  2.415214  0  0  -0.20283  0  2.408886  0  0  -0.166345  -0.175095  0  2.417943  0
O  O94  1  0.39574699  0.21505269  0.55249257  1  0  -0.244436  0  2.216415  0  0  -0.190004  0  2.448522  0  0  -0.205518  0  2.44104  0  0  -0.173123  -0.178772  0  2.452513  0
O  O95  1  0.60424530  0.78496406  0.44750786  1  0  -0.244373  0  2.21625  0  0  -0.189943  0  2.448355  0  0  -0.205468  0  2.440893  0  0  -0.173058  -0.1787  0  2.452353  0
