# generated using pymatgen
data_CdH8C6S2Br2(N2O)2
_symmetry_space_group_name_H-M   'P 1'
_cell_length_a   7.77100180
_cell_length_b   7.87523073
_cell_length_c   10.89413695
_cell_angle_alpha   92.90438695
_cell_angle_beta   90.00067371
_cell_angle_gamma   90.00073542
_symmetry_Int_Tables_number   1
_chemical_formula_structural   CdH8C6S2Br2(N2O)2
_chemical_formula_sum   'Cd2 H16 C12 S4 Br4 N8 O4'
_cell_volume   665.84770692
_cell_formula_units_Z   2
loop_
 _symmetry_equiv_pos_site_id
 _symmetry_equiv_pos_as_xyz
  1  'x, y, z'
loop_
 _atom_site_type_symbol
 _atom_site_label
 _atom_site_symmetry_multiplicity
 _atom_site_fract_x
 _atom_site_fract_y
 _atom_site_fract_z
 _atom_site_occupancy
 _atom_site_hle17_bader_spin_density
 _atom_site_hle17_ddec_charge
 _atom_site_hle17_ddec_spin_density
 _atom_site_hle17_ddec_sum_bond_order
 _atom_site_hle17_magmom
 _atom_site_hse06_10hf_bader_spin_density
 _atom_site_hse06_10hf_ddec_charge
 _atom_site_hse06_10hf_ddec_spin_density
 _atom_site_hse06_10hf_ddec_sum_bond_order
 _atom_site_hse06_10hf_magmom
 _atom_site_hse06_bader_spin_density
 _atom_site_hse06_ddec_charge
 _atom_site_hse06_ddec_spin_density
 _atom_site_hse06_ddec_sum_bond_order
 _atom_site_hse06_magmom
 _atom_site_pbe_bader_spin_density
 _atom_site_pbe_cm5_charge
 _atom_site_pbe_ddec_charge
 _atom_site_pbe_ddec_spin_density
 _atom_site_pbe_ddec_sum_bond_order
 _atom_site_pbe_magmom
Cd  Cd0  1  0.99999681  0.99999127  0.00000300  1  0  0.821206  0  2.098238  0  0  0.689384  0  2.553663  0  0  0.736458  0  2.51433  0  0  0.453095  0.654988  0  2.581975  0
Cd  Cd1  1  0.50000806  0.49998865  0.00000030  1  0  0.82125  0  2.098384  0  0  0.689444  0  2.553819  0  0  0.736526  0  2.514473  0  0  0.453114  0.655053  0  2.582129  0
H  H2  1  0.36678202  0.08737003  0.86807198  1  0  0.298819  0  0.917735  0  0  0.27557  0  0.992612  0  0  0.284083  0  0.985978  0  0  0.288032  0.269524  0  0.997402  0
H  H3  1  0.86677202  0.41265382  0.13193744  1  0  0.298814  0  0.917839  0  0  0.27556  0  0.992718  0  0  0.284058  0  0.986128  0  0  0.288092  0.269519  0  0.997498  0
H  H4  1  0.63323888  0.91262833  0.13193654  1  0  0.298835  0  0.917685  0  0  0.275528  0  0.992651  0  0  0.284029  0  0.986064  0  0  0.288023  0.269486  0  0.997417  0
H  H5  1  0.13322829  0.58736237  0.86806813  1  0  0.298858  0  0.917723  0  0  0.275607  0  0.992623  0  0  0.284108  0  0.986033  0  0  0.288039  0.269567  0  0.997389  0
H  H6  1  0.61819014  0.89054634  0.78346221  1  0  0.120441  0  0.94368  0  0  0.131502  0  1.011042  0  0  0.134221  0  1.009118  0  0  0.102373  0.129413  0  1.012707  0
H  H7  1  0.11817023  0.60946831  0.21654237  1  0  0.120419  0  0.943648  0  0  0.131471  0  1.011049  0  0  0.134177  0  1.009134  0  0  0.102373  0.129388  0  1.012708  0
H  H8  1  0.38182304  0.10942923  0.21653345  1  0  0.120521  0  0.943753  0  0  0.13159  0  1.011081  0  0  0.134296  0  1.009168  0  0  0.102426  0.129508  0  1.012735  0
H  H9  1  0.88181722  0.39055807  0.78346086  1  0  0.120508  0  0.943667  0  0  0.131597  0  1.011018  0  0  0.134319  0  1.009097  0  0  0.10243  0.129507  0  1.012683  0
H  H10  1  0.61215969  0.08279623  0.70230439  1  0  0.126364  0  0.900711  0  0  0.139119  0  0.960985  0  0  0.14163  0  0.959128  0  0  0.117965  0.137161  0  0.962598  0
H  H11  1  0.11215628  0.41722404  0.29769611  1  0  0.12639  0  0.900705  0  0  0.139175  0  0.960952  0  0  0.141682  0  0.959095  0  0  0.117968  0.137225  0  0.962556  0
H  H12  1  0.38785478  0.91719072  0.29769907  1  0  0.126324  0  0.90083  0  0  0.139095  0  0.961087  0  0  0.141598  0  0.959238  0  0  0.117975  0.137142  0  0.962694  0
H  H13  1  0.88784532  0.58279355  0.70229300  1  0  0.12635  0  0.900743  0  0  0.139124  0  0.961039  0  0  0.141644  0  0.959176  0  0  0.117961  0.137169  0  0.962646  0
H  H14  1  0.21825498  0.80904763  0.55553579  1  0  0.357279  0  0.889167  0  0  0.334194  0  0.954467  0  0  0.344267  0  0.944927  0  0  0.31977  0.327147  0  0.961133  0
H  H15  1  0.71825590  0.69095953  0.44447033  1  0  0.357304  0  0.889184  0  0  0.334217  0  0.954475  0  0  0.344292  0  0.944941  0  0  0.319759  0.327167  0  0.961143  0
H  H16  1  0.78173118  0.19097110  0.44446989  1  0  0.357263  0  0.889098  0  0  0.334128  0  0.954476  0  0  0.344205  0  0.944939  0  0  0.319733  0.327078  0  0.961143  0
H  H17  1  0.28173926  0.30904657  0.55552381  1  0  0.357215  0  0.889163  0  0  0.334125  0  0.95448  0  0  0.3442  0  0.944945  0  0  0.319705  0.327078  0  0.961146  0
C  C18  1  0.53736793  0.97049894  0.72610404  1  0  -0.109926  0  3.624713  0  0  -0.169635  0  3.868972  0  0  -0.170138  0  3.876841  0  0  -0.053707  -0.169292  0  3.863995  0
C  C19  1  0.03737235  0.52952213  0.27390740  1  0  -0.109878  0  3.624562  0  0  -0.169703  0  3.868936  0  0  -0.170186  0  3.876801  0  0  -0.053688  -0.169346  0  3.863967  0
C  C20  1  0.46263238  0.02949442  0.27389326  1  0  -0.109875  0  3.625016  0  0  -0.169623  0  3.869197  0  0  -0.170106  0  3.87708  0  0  -0.053692  -0.16928  0  3.864207  0
C  C21  1  0.96263311  0.47049281  0.72609445  1  0  -0.10999  0  3.624766  0  0  -0.169787  0  3.869251  0  0  -0.170308  0  3.877127  0  0  -0.053697  -0.169417  0  3.864295  0
C  C22  1  0.24009471  0.95773446  0.72378023  1  0  0.462416  0  3.793688  0  0  0.410416  0  4.100489  0  0  0.439797  0  4.106516  0  0  0.242057  0.390901  0  4.095348  0
C  C23  1  0.74009265  0.54228461  0.27620639  1  0  0.462462  0  3.793859  0  0  0.410422  0  4.100698  0  0  0.439806  0  4.106732  0  0  0.242171  0.390903  0  4.095571  0
C  C24  1  0.75990045  0.04228304  0.27621989  1  0  0.46226  0  3.794371  0  0  0.410311  0  4.101089  0  0  0.439696  0  4.107125  0  0  0.242015  0.390784  0  4.095956  0
C  C25  1  0.25990380  0.45771764  0.72379128  1  0  0.462618  0  3.793646  0  0  0.410565  0  4.100499  0  0  0.439948  0  4.106534  0  0  0.242189  0.39105  0  4.095357  0
C  C26  1  0.47578113  0.87157007  0.61169988  1  0  0.610206  0  3.760002  0  0  0.566414  0  4.052819  0  0  0.596027  0  4.050313  0  0  0.259331  0.546487  0  4.054044  0
C  C27  1  0.97576245  0.62844844  0.38830174  1  0  0.609989  0  3.759934  0  0  0.56629  0  4.05265  0  0  0.595904  0  4.050144  0  0  0.259143  0.546332  0  4.053925  0
C  C28  1  0.52422047  0.12843865  0.38828428  1  0  0.610024  0  3.760164  0  0  0.566276  0  4.052887  0  0  0.595873  0  4.05042  0  0  0.259329  0.546345  0  4.054114  0
C  C29  1  0.02423400  0.37156390  0.61170735  1  0  0.610433  0  3.759599  0  0  0.566486  0  4.052703  0  0  0.596112  0  4.050185  0  0  0.259406  0.546478  0  4.054052  0
S  S30  1  0.02943497  0.97623522  0.75694758  1  0  -0.361145  0  2.030099  0  0  -0.343697  0  2.365852  0  0  -0.364337  0  2.360137  0  0  -0.168055  -0.329108  0  2.369112  0
S  S31  1  0.52943348  0.52376798  0.24305664  1  0  -0.361086  0  2.030233  0  0  -0.343651  0  2.366032  0  0  -0.364294  0  2.36031  0  0  -0.16803  -0.329056  0  2.369302  0
S  S32  1  0.97055247  0.02377833  0.24306891  1  0  -0.361056  0  2.030352  0  0  -0.343621  0  2.366019  0  0  -0.364265  0  2.3603  0  0  -0.167999  -0.329022  0  2.36929  0
S  S33  1  0.47057198  0.47623423  0.75694653  1  0  -0.361199  0  2.030049  0  0  -0.343753  0  2.365866  0  0  -0.364395  0  2.360147  0  0  -0.168066  -0.329163  0  2.369127  0
Br  Br34  1  0.23073792  0.26984659  0.03672947  1  0  -0.545981  0  1.152924  0  0  -0.486857  0  1.468854  0  0  -0.507348  0  1.447335  0  0  -0.271686  -0.471578  0  1.484399  0
Br  Br35  1  0.73070964  0.23011439  0.96326329  1  0  -0.545922  0  1.152827  0  0  -0.486838  0  1.468852  0  0  -0.507347  0  1.447363  0  0  -0.271678  -0.471517  0  1.484316  0
Br  Br36  1  0.76928813  0.73011629  0.96326200  1  0  -0.545903  0  1.152845  0  0  -0.486814  0  1.468905  0  0  -0.507312  0  1.447407  0  0  -0.271652  -0.471479  0  1.484342  0
Br  Br37  1  0.26927395  0.76984346  0.03671971  1  0  -0.545988  0  1.152916  0  0  -0.486852  0  1.468853  0  0  -0.50735  0  1.447346  0  0  -0.271688  -0.471597  0  1.484428  0
N  N38  1  0.37655451  0.01765230  0.78639675  1  0  -0.359033  0  3.351956  0  0  -0.292531  0  3.592683  0  0  -0.313401  0  3.603859  0  0  -0.398608  -0.278626  0  3.584947  0
N  N39  1  0.87655814  0.48235646  0.21360848  1  0  -0.358929  0  3.351989  0  0  -0.292382  0  3.592751  0  0  -0.313265  0  3.603917  0  0  -0.398613  -0.278494  0  3.585046  0
N  N40  1  0.62345223  0.98234734  0.21360999  1  0  -0.35899  0  3.352154  0  0  -0.292465  0  3.592825  0  0  -0.313304  0  3.603888  0  0  -0.398626  -0.278579  0  3.585163  0
N  N41  1  0.12344603  0.51764325  0.78638999  1  0  -0.359008  0  3.352075  0  0  -0.292461  0  3.592811  0  0  -0.3133  0  3.60389  0  0  -0.398602  -0.278575  0  3.585119  0
N  N42  1  0.29898415  0.87112399  0.61831944  1  0  -0.47256  0  3.246607  0  0  -0.406684  0  3.479811  0  0  -0.43146  0  3.482107  0  0  -0.379433  -0.390031  0  3.477736  0
N  N43  1  0.79897310  0.62887166  0.38168053  1  0  -0.472646  0  3.246861  0  0  -0.406774  0  3.480023  0  0  -0.431535  0  3.482266  0  0  -0.379442  -0.390096  0  3.477941  0
N  N44  1  0.70101102  0.12887698  0.38168000  1  0  -0.47244  0  3.2469  0  0  -0.406526  0  3.48  0  0  -0.43128  0  3.482255  0  0  -0.379327  -0.389867  0  3.477931  0
N  N45  1  0.20101820  0.37113824  0.61831653  1  0  -0.472639  0  3.246725  0  0  -0.406673  0  3.479952  0  0  -0.431451  0  3.482226  0  0  -0.379406  -0.389992  0  3.477899  0
O  O46  1  0.56190285  0.80478805  0.52777530  1  0  -0.53755  0  1.980841  0  0  -0.502531  0  2.204467  0  0  -0.521605  0  2.195985  0  0  -0.284627  -0.489543  0  2.209908  0
O  O47  1  0.06190704  0.69520800  0.47222709  1  0  -0.53747  0  1.980666  0  0  -0.502475  0  2.20423  0  0  -0.521542  0  2.195748  0  0  -0.284582  -0.489479  0  2.20969  0
O  O48  1  0.43808202  0.19520022  0.47222179  1  0  -0.53757  0  1.980576  0  0  -0.502581  0  2.204174  0  0  -0.521651  0  2.195708  0  0  -0.284745  -0.48959  0  2.209617  0
O  O49  1  0.93808298  0.30477767  0.52777724  1  0  -0.537782  0  1.980423  0  0  -0.502694  0  2.204154  0  0  -0.521775  0  2.195665  0  0  -0.284823  -0.489674  0  2.209643  0
