# generated using pymatgen
data_Mo2H26C24N4O7
_symmetry_space_group_name_H-M   'P 1'
_cell_length_a   5.95641656
_cell_length_b   7.04112563
_cell_length_c   14.36101438
_cell_angle_alpha   77.80667976
_cell_angle_beta   84.44727243
_cell_angle_gamma   88.91653974
_symmetry_Int_Tables_number   1
_chemical_formula_structural   Mo2H26C24N4O7
_chemical_formula_sum   'Mo2 H26 C24 N4 O7'
_cell_volume   585.94841778
_cell_formula_units_Z   1
loop_
 _symmetry_equiv_pos_site_id
 _symmetry_equiv_pos_as_xyz
  1  'x, y, z'
loop_
 _atom_site_type_symbol
 _atom_site_label
 _atom_site_symmetry_multiplicity
 _atom_site_fract_x
 _atom_site_fract_y
 _atom_site_fract_z
 _atom_site_occupancy
 _atom_site_pbe_bader_spin_density
 _atom_site_pbe_cm5_charge
 _atom_site_pbe_ddec_charge
 _atom_site_pbe_ddec_spin_density
 _atom_site_pbe_ddec_sum_bond_order
 _atom_site_pbe_magmom
Mo  Mo0  1  0.78801035  0.37999549  0.97847213  1  0  1.518604  2.115827  0  4.741493  0
Mo  Mo1  1  0.21199692  0.62000494  0.02152726  1  0  1.51858  2.11577  0  4.741546  0
H  H2  1  0.64738245  0.74833882  0.88802227  1  0  0.298896  0.301597  0  0.955604  0
H  H3  1  0.35262139  0.25166455  0.11197973  1  0  0.298917  0.301653  0  0.955581  0
H  H4  1  0.93069540  0.77101395  0.87007396  1  0  0.290119  0.296063  0  0.986029  0
H  H5  1  0.06930685  0.22898353  0.12992385  1  0  0.290115  0.296055  0  0.986051  0
H  H6  1  0.43899169  0.60350208  0.77700278  1  0  0.104873  0.120742  0  1.002582  0
H  H7  1  0.56099871  0.39650265  0.22299608  1  0  0.104905  0.120803  0  1.002569  0
H  H8  1  0.71929342  0.96820310  0.12402200  1  0  0.298396  0.330461  0  0.960748  0
H  H9  1  0.28071049  0.03180166  0.87597567  1  0  0.298379  0.330403  0  0.960827  0
H  H10  1  0.51300673  0.79483179  0.14506089  1  0  0.300697  0.325261  0  0.964045  0
H  H11  1  0.48699884  0.20517009  0.85493911  1  0  0.300659  0.325188  0  0.964116  0
H  H12  1  0.78301318  0.72840724  0.12284213  1  0  0.299581  0.333131  0  0.95485  0
H  H13  1  0.21699576  0.27159466  0.87715775  1  0  0.299604  0.333132  0  0.954824  0
H  H14  1  0.04131846  0.68644023  0.25076274  1  0  0.103709  0.126467  0  1.037797  0
H  H15  1  0.95868876  0.31357039  0.74923696  1  0  0.103715  0.126453  0  1.037864  0
H  H16  1  0.39676925  0.86413356  0.46205701  1  0  0.097294  0.092934  0  1.049436  0
H  H17  1  0.60323130  0.13586102  0.53794257  1  0  0.097285  0.092922  0  1.049398  0
H  H18  1  0.07275028  0.64556348  0.42476743  1  0  0.099544  0.10069  0  1.031369  0
H  H19  1  0.92725024  0.35443983  0.57523191  1  0  0.099542  0.100709  0  1.03136  0
H  H20  1  0.09458180  0.83863249  0.54332462  1  0  0.095404  0.089134  0  1.051193  0
H  H21  1  0.90541533  0.16135632  0.45667849  1  0  0.095401  0.08909  0  1.051156  0
H  H22  1  0.36304599  0.89920368  0.28933213  1  0  0.105823  0.117508  0  1.013695  0
H  H23  1  0.63695620  0.10079674  0.71066815  1  0  0.10582  0.11753  0  1.013658  0
H  H24  1  0.41492933  0.61788157  0.60462982  1  0  0.097382  0.096989  0  1.03722  0
H  H25  1  0.58506613  0.38211883  0.39537002  1  0  0.097402  0.097049  0  1.03723  0
H  H26  1  0.12104087  0.81886479  0.71551685  1  0  0.101798  0.114896  0  1.019994  0
H  H27  1  0.87895288  0.18112982  0.28448576  1  0  0.101835  0.114969  0  1.020069  0
C  C28  1  0.58304170  0.65374357  0.72527129  1  0  -0.100442  -0.184018  0  3.963733  0
C  C29  1  0.41695373  0.34625685  0.27473063  1  0  -0.100533  -0.184172  0  3.963702  0
C  C30  1  0.73599025  0.74994693  0.45699419  1  0  -0.00997  0.055278  0  4.013495  0
C  C31  1  0.26401199  0.25005055  0.54300432  1  0  -0.009993  0.055252  0  4.013485  0
C  C32  1  0.70013394  0.79357409  0.26029367  1  0  0.081303  0.240912  0  3.961615  0
C  C33  1  0.29986823  0.20643216  0.73970669  1  0  0.081323  0.240872  0  3.961647  0
C  C34  1  0.90023108  0.72393761  0.29782217  1  0  -0.092232  -0.172209  0  3.959992  0
C  C35  1  0.09977281  0.27607006  0.70217588  1  0  -0.092263  -0.172234  0  3.960121  0
C  C36  1  0.75311206  0.73088829  0.56048016  1  0  -0.022139  0.031553  0  4.032714  0
C  C37  1  0.24687664  0.26910484  0.43952210  1  0  -0.022157  0.031493  0  4.032534  0
C  C38  1  0.53683940  0.82037328  0.41675202  1  0  -0.08811  -0.114426  0  3.980659  0
C  C39  1  0.46316108  0.17962571  0.58324988  1  0  -0.088092  -0.114369  0  3.980611  0
C  C40  1  0.78120083  0.70988442  0.75774444  1  0  0.085761  0.283972  0  4.041175  0
C  C41  1  0.21879289  0.29011602  0.24225825  1  0  0.085783  0.284013  0  4.040987  0
C  C42  1  0.91716252  0.70294501  0.39563934  1  0  -0.088657  -0.116718  0  3.973513  0
C  C43  1  0.08284137  0.29705831  0.60435988  1  0  -0.088627  -0.116701  0  3.973513  0
C  C44  1  0.95155515  0.78299974  0.59435110  1  0  -0.091794  -0.115666  0  4.00676  0
C  C45  1  0.04844370  0.21699340  0.40564939  1  0  -0.091781  -0.115545  0  4.006546  0
C  C46  1  0.51800955  0.84248417  0.31929581  1  0  -0.090562  -0.168128  0  3.981007  0
C  C47  1  0.48199267  0.15751914  0.68070277  1  0  -0.090566  -0.168164  0  3.981038  0
C  C48  1  0.56956382  0.66461965  0.62819154  1  0  -0.090914  -0.114061  0  3.994692  0
C  C49  1  0.43043500  0.33537932  0.37180972  1  0  -0.090892  -0.114075  0  3.994625  0
C  C50  1  0.96675877  0.77292180  0.69137741  1  0  -0.100886  -0.184107  0  3.959043  0
C  C51  1  0.03323502  0.22707278  0.30862312  1  0  -0.100925  -0.184233  0  3.959083  0
N  N52  1  0.79232234  0.70012921  0.85650409  1  0  -0.611773  -0.646604  0  3.389586  0
N  N53  1  0.20767481  0.29986829  0.14349600  1  0  -0.611783  -0.646644  0  3.389578  0
N  N54  1  0.67971931  0.82173855  0.15837372  1  0  -0.598147  -0.500591  0  3.355088  0
N  N55  1  0.32028458  0.17826477  0.84162549  1  0  -0.59812  -0.500461  0  3.355244  0
O  O56  1  0.76541828  0.19590698  0.08375480  1  0  -0.54903  -0.768291  0  1.791037  0
O  O57  1  0.23458729  0.80409345  0.91624536  1  0  -0.548992  -0.76819  0  1.790983  0
O  O58  1  0.72768461  0.26412876  0.88732279  1  0  -0.544015  -0.73927  0  1.773719  0
O  O59  1  0.27231927  0.73587457  0.11267712  1  0  -0.544046  -0.739328  0  1.773793  0
O  O60  1  0.90089372  0.59879509  0.05162678  1  0  -0.590948  -0.89075  0  1.994368  0
O  O61  1  0.09910681  0.40120677  0.94837202  1  0  -0.590946  -0.890733  0  1.994394  0
O  O62  1  0.50000225  0.50000018  0.00000036  1  0  -0.619114  -0.917085  0  2.142283  0
