# generated using pymatgen
data_Cd2H8C14N2O9
_symmetry_space_group_name_H-M   'P 1'
_cell_length_a   7.09005774
_cell_length_b   14.09356227
_cell_length_c   14.85407315
_cell_angle_alpha   90.99289601
_cell_angle_beta   90.00007832
_cell_angle_gamma   89.99997680
_symmetry_Int_Tables_number   1
_chemical_formula_structural   Cd2H8C14N2O9
_chemical_formula_sum   'Cd8 H32 C56 N8 O36'
_cell_volume   1484.05807096
_cell_formula_units_Z   4
loop_
 _symmetry_equiv_pos_site_id
 _symmetry_equiv_pos_as_xyz
  1  'x, y, z'
loop_
 _atom_site_type_symbol
 _atom_site_label
 _atom_site_symmetry_multiplicity
 _atom_site_fract_x
 _atom_site_fract_y
 _atom_site_fract_z
 _atom_site_occupancy
 _atom_site_hle17_bader_spin_density
 _atom_site_hle17_ddec_charge
 _atom_site_hle17_ddec_spin_density
 _atom_site_hle17_ddec_sum_bond_order
 _atom_site_hle17_magmom
 _atom_site_hse06_10hf_bader_spin_density
 _atom_site_hse06_10hf_ddec_charge
 _atom_site_hse06_10hf_ddec_spin_density
 _atom_site_hse06_10hf_ddec_sum_bond_order
 _atom_site_hse06_10hf_magmom
 _atom_site_hse06_bader_spin_density
 _atom_site_hse06_ddec_charge
 _atom_site_hse06_ddec_spin_density
 _atom_site_hse06_ddec_sum_bond_order
 _atom_site_hse06_magmom
 _atom_site_pbe_bader_spin_density
 _atom_site_pbe_cm5_charge
 _atom_site_pbe_ddec_charge
 _atom_site_pbe_ddec_spin_density
 _atom_site_pbe_ddec_sum_bond_order
 _atom_site_pbe_magmom
Cd  Cd0  1  0.36432024  0.32679931  0.24667269  1  0  1.22436  0  1.494475  0  0  1.042544  0  1.925883  0  0  1.110867  0  1.86482  0  0  0.770274  0.993617  0  1.967572  0
Cd  Cd1  1  0.86431978  0.17319942  0.75332750  1  0  1.224343  0  1.494506  0  0  1.042515  0  1.925923  0  0  1.110839  0  1.864858  0  0  0.770261  0.993588  0  1.967612  0
Cd  Cd2  1  0.63568110  0.67320001  0.75332786  1  0  1.22435  0  1.494523  0  0  1.042528  0  1.925947  0  0  1.110853  0  1.86488  0  0  0.770273  0.993603  0  1.967636  0
Cd  Cd3  1  0.13567874  0.82679990  0.24667237  1  0  1.224331  0  1.494536  0  0  1.042511  0  1.925961  0  0  1.110836  0  1.864899  0  0  0.770261  0.993585  0  1.967651  0
Cd  Cd4  1  0.38749823  0.95252570  0.74592680  1  0  1.201021  0  1.581455  0  0  1.007937  0  2.018056  0  0  1.060836  0  1.970037  0  0  0.814806  0.970027  0  2.051086  0
Cd  Cd5  1  0.88749785  0.54747416  0.25407291  1  0  1.201009  0  1.581474  0  0  1.007921  0  2.018081  0  0  1.060821  0  1.97006  0  0  0.81481  0.970011  0  2.051111  0
Cd  Cd6  1  0.61250170  0.04747362  0.25407240  1  0  1.201012  0  1.581473  0  0  1.007909  0  2.018073  0  0  1.060809  0  1.970051  0  0  0.814794  0.969997  0  2.051104  0
Cd  Cd7  1  0.11250067  0.45252658  0.74592699  1  0  1.201005  0  1.58149  0  0  1.007922  0  2.018101  0  0  1.060821  0  1.970082  0  0  0.8148  0.970012  0  2.05113  0
H  H8  1  0.20349969  0.37481702  0.55473279  1  0  0.092457  0  0.934103  0  0  0.099803  0  1.002614  0  0  0.103072  0  0.998311  0  0  0.122563  0.097313  0  1.005933  0
H  H9  1  0.70350261  0.12518528  0.44526804  1  0  0.092426  0  0.934145  0  0  0.099797  0  1.002633  0  0  0.103065  0  0.998332  0  0  0.122566  0.097307  0  1.005951  0
H  H10  1  0.79649883  0.62518514  0.44526781  1  0  0.092445  0  0.934149  0  0  0.099804  0  1.002648  0  0  0.103072  0  0.998345  0  0  0.122558  0.097314  0  1.005967  0
H  H11  1  0.29650155  0.87481545  0.55473186  1  0  0.092434  0  0.93415  0  0  0.099801  0  1.002639  0  0  0.103069  0  0.998337  0  0  0.122564  0.097311  0  1.005958  0
H  H12  1  0.51637580  0.41305712  0.53329300  1  0  0.120442  0  0.943421  0  0  0.12994  0  1.004758  0  0  0.133379  0  1.003619  0  0  0.113196  0.127375  0  1.005962  0
H  H13  1  0.01637708  0.08694168  0.46670629  1  0  0.120469  0  0.943399  0  0  0.129969  0  1.004727  0  0  0.133409  0  1.003589  0  0  0.113198  0.127405  0  1.005931  0
H  H14  1  0.48362414  0.58694149  0.46670685  1  0  0.120475  0  0.943452  0  0  0.129976  0  1.004775  0  0  0.133416  0  1.003638  0  0  0.113222  0.127411  0  1.005979  0
H  H15  1  0.98362426  0.91305835  0.53329427  1  0  0.120453  0  0.943428  0  0  0.129957  0  1.004761  0  0  0.133395  0  1.003622  0  0  0.113192  0.127392  0  1.005966  0
H  H16  1  0.68835485  0.43240266  0.67791917  1  0  0.108378  0  0.947863  0  0  0.117099  0  1.009423  0  0  0.120072  0  1.006178  0  0  0.123429  0.114858  0  1.011846  0
H  H17  1  0.18835856  0.06759823  0.32208027  1  0  0.108375  0  0.947859  0  0  0.11709  0  1.009432  0  0  0.120063  0  1.006186  0  0  0.123452  0.114849  0  1.011853  0
H  H18  1  0.31164085  0.56759737  0.32208139  1  0  0.108343  0  0.947916  0  0  0.117056  0  1.009478  0  0  0.120029  0  1.006234  0  0  0.123431  0.114815  0  1.011899  0
H  H19  1  0.81164278  0.93240179  0.67792028  1  0  0.108347  0  0.947887  0  0  0.117065  0  1.009456  0  0  0.120038  0  1.006211  0  0  0.123442  0.114824  0  1.011879  0
H  H20  1  0.22849559  0.90196074  0.93660128  1  0  0.093546  0  0.926362  0  0  0.102389  0  0.991957  0  0  0.106083  0  0.98744  0  0  0.123091  0.099621  0  0.995339  0
H  H21  1  0.72849462  0.59803773  0.06339830  1  0  0.093539  0  0.92644  0  0  0.102358  0  0.992054  0  0  0.106052  0  0.987539  0  0  0.12307  0.09959  0  0.995435  0
H  H22  1  0.77150435  0.09803787  0.06339791  1  0  0.093522  0  0.92643  0  0  0.102351  0  0.992046  0  0  0.106044  0  0.987532  0  0  0.123074  0.099583  0  0.995428  0
H  H23  1  0.27150531  0.40196158  0.93660224  1  0  0.093513  0  0.926455  0  0  0.102331  0  0.992069  0  0  0.106027  0  0.987553  0  0  0.123061  0.099564  0  0.99545  0
H  H24  1  0.38536629  0.23983335  0.97845061  1  0  0.131191  0  0.936774  0  0  0.138548  0  0.998239  0  0  0.142885  0  0.995893  0  0  0.114663  0.135439  0  1.000065  0
H  H25  1  0.88536648  0.26016537  0.02155027  1  0  0.13122  0  0.936789  0  0  0.138584  0  0.998228  0  0  0.142921  0  0.995884  0  0  0.114694  0.135476  0  1.000051  0
H  H26  1  0.61463506  0.76016454  0.02155058  1  0  0.13117  0  0.936798  0  0  0.138533  0  0.998256  0  0  0.14287  0  0.995912  0  0  0.114658  0.135426  0  1.000075  0
H  H27  1  0.11463063  0.73983466  0.97845029  1  0  0.131197  0  0.936762  0  0  0.138563  0  0.998219  0  0  0.142901  0  0.995874  0  0  0.114686  0.135454  0  1.000044  0
H  H28  1  0.40907677  0.15652626  0.82885083  1  0  0.099551  0  0.967993  0  0  0.107785  0  1.031446  0  0  0.110819  0  1.028065  0  0  0.121505  0.105471  0  1.034047  0
H  H29  1  0.90907451  0.34347245  0.17114939  1  0  0.099627  0  0.968066  0  0  0.107865  0  1.031506  0  0  0.1109  0  1.028126  0  0  0.121553  0.105552  0  1.034104  0
H  H30  1  0.59092457  0.84347234  0.17114903  1  0  0.099614  0  0.96806  0  0  0.107856  0  1.031491  0  0  0.110892  0  1.028106  0  0  0.121565  0.105543  0  1.034089  0
H  H31  1  0.09092401  0.65652686  0.82885115  1  0  0.099542  0  0.96799  0  0  0.10778  0  1.031431  0  0  0.110814  0  1.028051  0  0  0.121525  0.105467  0  1.03403  0
H  H32  1  0.21696367  0.77814898  0.70659581  1  0  0.431258  0  0.87273  0  0  0.397217  0  0.94121  0  0  0.407895  0  0.925905  0  0  0.289559  0.389673  0  0.952  0
H  H33  1  0.71696467  0.72185163  0.29340448  1  0  0.431215  0  0.87279  0  0  0.397175  0  0.941266  0  0  0.407855  0  0.92596  0  0  0.289534  0.389632  0  0.952055  0
H  H34  1  0.78303486  0.22185176  0.29340409  1  0  0.431218  0  0.872782  0  0  0.397177  0  0.941261  0  0  0.407855  0  0.925956  0  0  0.289535  0.389633  0  0.952051  0
H  H35  1  0.28303667  0.27814982  0.70659610  1  0  0.431251  0  0.87274  0  0  0.397196  0  0.941242  0  0  0.407874  0  0.925938  0  0  0.289566  0.389652  0  0.952031  0
H  H36  1  0.05527112  0.82537086  0.76890998  1  0  0.439211  0  0.854541  0  0  0.408667  0  0.917045  0  0  0.418798  0  0.902399  0  0  0.294641  0.401492  0  0.927385  0
H  H37  1  0.55527198  0.67462906  0.23109086  1  0  0.439194  0  0.854563  0  0  0.408643  0  0.917082  0  0  0.418773  0  0.902437  0  0  0.294629  0.401468  0  0.927422  0
H  H38  1  0.94472740  0.17462845  0.23108989  1  0  0.439191  0  0.854561  0  0  0.408644  0  0.917072  0  0  0.418774  0  0.902428  0  0  0.294634  0.401469  0  0.927412  0
H  H39  1  0.44472936  0.32537167  0.76891038  1  0  0.439212  0  0.854536  0  0  0.408666  0  0.917044  0  0  0.418796  0  0.902399  0  0  0.294648  0.40149  0  0.927385  0
C  C40  1  0.05167298  0.38304735  0.54727324  1  0  0.148152  0  3.664609  0  0  0.101373  0  3.923171  0  0  0.112827  0  3.938332  0  0  0.059379  0.093879  0  3.912944  0
C  C41  1  0.55167453  0.11695427  0.45272748  1  0  0.148173  0  3.664546  0  0  0.101361  0  3.92312  0  0  0.112816  0  3.938281  0  0  0.059399  0.093867  0  3.912891  0
C  C42  1  0.94832695  0.61695480  0.45272736  1  0  0.148124  0  3.664539  0  0  0.101338  0  3.923101  0  0  0.112792  0  3.93826  0  0  0.059398  0.093841  0  3.912877  0
C  C43  1  0.44832682  0.88304647  0.54727242  1  0  0.14816  0  3.664596  0  0  0.10136  0  3.923178  0  0  0.112814  0  3.938338  0  0  0.059386  0.093866  0  3.912951  0
C  C44  1  0.96736640  0.37358076  0.46289198  1  0  -0.126179  0  3.72481  0  0  -0.107151  0  3.957981  0  0  -0.11961  0  3.979557  0  0  -0.010288  -0.099421  0  3.943922  0
C  C45  1  0.46736927  0.12642077  0.53711102  1  0  -0.126198  0  3.724758  0  0  -0.107168  0  3.957994  0  0  -0.119627  0  3.979568  0  0  -0.010336  -0.099436  0  3.943936  0
C  C46  1  0.03263071  0.62642139  0.53711063  1  0  -0.126194  0  3.72475  0  0  -0.10716  0  3.95799  0  0  -0.119619  0  3.979563  0  0  -0.010331  -0.099428  0  3.943933  0
C  C47  1  0.53263490  0.87357996  0.46289089  1  0  -0.126182  0  3.724813  0  0  -0.107136  0  3.958006  0  0  -0.119594  0  3.979581  0  0  -0.010304  -0.099405  0  3.943948  0
C  C48  1  0.77176431  0.38623774  0.45619774  1  0  0.014888  0  3.67764  0  0  0.024112  0  3.910383  0  0  0.027089  0  3.926003  0  0  0.019804  0.022144  0  3.900091  0
C  C49  1  0.27176580  0.11376313  0.54380175  1  0  0.014871  0  3.677581  0  0  0.024039  0  3.910404  0  0  0.027017  0  3.926023  0  0  0.019745  0.022069  0  3.900115  0
C  C50  1  0.22823421  0.61376299  0.54380215  1  0  0.014932  0  3.677572  0  0  0.024089  0  3.910415  0  0  0.027068  0  3.926034  0  0  0.019768  0.02212  0  3.900125  0
C  C51  1  0.72823696  0.88623761  0.45619814  1  0  0.014854  0  3.67767  0  0  0.024044  0  3.910463  0  0  0.027022  0  3.92608  0  0  0.019792  0.022076  0  3.900174  0
C  C52  1  0.66870037  0.40421784  0.53479619  1  0  -0.113526  0  3.660306  0  0  -0.13568  0  3.913012  0  0  -0.142935  0  3.93113  0  0  -0.073057  -0.131259  0  3.901334  0
C  C53  1  0.16870165  0.09578022  0.46520318  1  0  -0.113569  0  3.660297  0  0  -0.135707  0  3.913012  0  0  -0.142964  0  3.931129  0  0  -0.073035  -0.131287  0  3.901338  0
C  C54  1  0.33129956  0.59578006  0.46520365  1  0  -0.113586  0  3.660296  0  0  -0.13572  0  3.913006  0  0  -0.142977  0  3.931125  0  0  -0.073049  -0.131299  0  3.90133  0
C  C55  1  0.83130110  0.90421981  0.53479670  1  0  -0.113557  0  3.660274  0  0  -0.135719  0  3.913001  0  0  -0.142972  0  3.931116  0  0  -0.073065  -0.131298  0  3.901326  0
C  C56  1  0.76369125  0.41446680  0.61608069  1  0  0.157725  0  3.641718  0  0  0.119119  0  3.901646  0  0  0.129961  0  3.915957  0  0  0.056282  0.111953  0  3.892066  0
C  C57  1  0.26369512  0.08553337  0.38391946  1  0  0.157724  0  3.641781  0  0  0.119113  0  3.901707  0  0  0.129954  0  3.916018  0  0  0.056225  0.111947  0  3.892126  0
C  C58  1  0.23630445  0.58553252  0.38391985  1  0  0.157752  0  3.641812  0  0  0.119155  0  3.901756  0  0  0.129994  0  3.916069  0  0  0.056255  0.111991  0  3.892174  0
C  C59  1  0.73630622  0.91446737  0.61608111  1  0  0.157782  0  3.641731  0  0  0.119195  0  3.901637  0  0  0.130036  0  3.915948  0  0  0.056287  0.112032  0  3.892055  0
C  C60  1  0.08444823  0.35744538  0.38042103  1  0  0.643749  0  3.952293  0  0  0.591874  0  4.242171  0  0  0.627289  0  4.237694  0  0  0.197174  0.567907  0  4.244279  0
C  C61  1  0.58444882  0.14255695  0.61957905  1  0  0.643939  0  3.951932  0  0  0.592068  0  4.241798  0  0  0.627483  0  4.237318  0  0  0.197272  0.568101  0  4.24391  0
C  C62  1  0.91555311  0.64255748  0.61957958  1  0  0.643832  0  3.952162  0  0  0.591951  0  4.242046  0  0  0.627367  0  4.237564  0  0  0.1972  0.567985  0  4.244158  0
C  C63  1  0.41555535  0.85744379  0.38042018  1  0  0.643759  0  3.952409  0  0  0.591878  0  4.242293  0  0  0.627293  0  4.237819  0  0  0.197178  0.567911  0  4.244403  0
C  C64  1  0.67263523  0.38518853  0.36681889  1  0  0.670167  0  3.930077  0  0  0.612474  0  4.228219  0  0  0.648805  0  4.216948  0  0  0.210519  0.587555  0  4.235035  0
C  C65  1  0.17263556  0.11481307  0.63318056  1  0  0.670091  0  3.930111  0  0  0.612418  0  4.228246  0  0  0.648747  0  4.216977  0  0  0.210453  0.587499  0  4.235064  0
C  C66  1  0.32736470  0.61481292  0.63318102  1  0  0.670019  0  3.930076  0  0  0.612353  0  4.228211  0  0  0.648679  0  4.216945  0  0  0.210436  0.587433  0  4.235028  0
C  C67  1  0.82736719  0.88518766  0.36681934  1  0  0.670184  0  3.930041  0  0  0.612513  0  4.228163  0  0  0.648846  0  4.21689  0  0  0.210486  0.587593  0  4.234983  0
C  C68  1  0.25972804  0.97700707  0.94771680  1  0  0.136101  0  3.670926  0  0  0.090106  0  3.929802  0  0  0.100453  0  3.945792  0  0  0.056319  0.083382  0  3.918955  0
C  C69  1  0.75972569  0.52299139  0.05228280  1  0  0.135957  0  3.671009  0  0  0.089987  0  3.929898  0  0  0.100333  0  3.945886  0  0  0.05631  0.083265  0  3.919049  0
C  C70  1  0.74027189  0.02299083  0.05228304  1  0  0.136134  0  3.670948  0  0  0.090105  0  3.929854  0  0  0.100454  0  3.945842  0  0  0.056342  0.083382  0  3.919006  0
C  C71  1  0.24027283  0.47700792  0.94771774  1  0  0.136099  0  3.670917  0  0  0.090132  0  3.929804  0  0  0.10048  0  3.94579  0  0  0.056384  0.083409  0  3.918955  0
C  C72  1  0.24375969  0.01738332  0.03383066  1  0  -0.12255  0  3.723892  0  0  -0.105939  0  3.96329  0  0  -0.118113  0  3.985605  0  0  -0.010114  -0.098419  0  3.948705  0
C  C73  1  0.74375959  0.48261613  0.96616946  1  0  -0.122428  0  3.723831  0  0  -0.105847  0  3.963266  0  0  -0.118017  0  3.985576  0  0  -0.010116  -0.098328  0  3.948681  0
C  C74  1  0.75623883  0.98261599  0.96616920  1  0  -0.122572  0  3.723945  0  0  -0.10591  0  3.963339  0  0  -0.118083  0  3.985651  0  0  -0.010083  -0.098391  0  3.948755  0
C  C75  1  0.25623894  0.51738389  0.03383177  1  0  -0.122478  0  3.72389  0  0  -0.105871  0  3.96331  0  0  -0.118043  0  3.98562  0  0  -0.010106  -0.098351  0  3.948725  0
C  C76  1  0.28976917  0.11352322  0.04598772  1  0  0.020721  0  3.662699  0  0  0.028321  0  3.898264  0  0  0.031406  0  3.913554  0  0  0.022513  0.026271  0  3.888265  0
C  C77  1  0.78977052  0.38647623  0.95401176  1  0  0.020767  0  3.6626  0  0  0.028334  0  3.898235  0  0  0.031419  0  3.913525  0  0  0.022522  0.026286  0  3.888235  0
C  C78  1  0.71022935  0.88647539  0.95401214  1  0  0.020782  0  3.662609  0  0  0.028304  0  3.898293  0  0  0.031388  0  3.913583  0  0  0.022523  0.026255  0  3.888293  0
C  C79  1  0.21022942  0.61352380  0.04598745  1  0  0.020713  0  3.662662  0  0  0.028267  0  3.898321  0  0  0.031354  0  3.913608  0  0  0.022503  0.026216  0  3.888321  0
C  C80  1  0.34656831  0.16531128  0.97122908  1  0  -0.111553  0  3.641516  0  0  -0.13032  0  3.889882  0  0  -0.137435  0  3.907141  0  0  -0.070865  -0.125993  0  3.878761  0
C  C81  1  0.84656988  0.33468745  0.02877043  1  0  -0.111597  0  3.641416  0  0  -0.130338  0  3.889794  0  0  -0.137451  0  3.907051  0  0  -0.070875  -0.126014  0  3.878683  0
C  C82  1  0.65343303  0.83468661  0.02877144  1  0  -0.111564  0  3.641431  0  0  -0.130301  0  3.889822  0  0  -0.137415  0  3.90708  0  0  -0.070835  -0.125974  0  3.878707  0
C  C83  1  0.15342864  0.66531187  0.97122944  1  0  -0.111571  0  3.6415  0  0  -0.130343  0  3.889893  0  0  -0.137458  0  3.907151  0  0  -0.070841  -0.126018  0  3.87878  0
C  C84  1  0.35948771  0.11969403  0.88803720  1  0  0.154786  0  3.6537  0  0  0.116864  0  3.911483  0  0  0.127345  0  3.926011  0  0  0.052899  0.10991  0  3.901765  0
C  C85  1  0.85948666  0.38030540  0.11196367  1  0  0.154664  0  3.653677  0  0  0.11671  0  3.911473  0  0  0.12719  0  3.925996  0  0  0.052846  0.109755  0  3.901755  0
C  C86  1  0.64051363  0.88030386  0.11196399  1  0  0.154757  0  3.653753  0  0  0.116803  0  3.911531  0  0  0.127284  0  3.926054  0  0  0.052829  0.109848  0  3.901816  0
C  C87  1  0.14051186  0.61969462  0.88803756  1  0  0.15481  0  3.653678  0  0  0.116911  0  3.911453  0  0  0.127392  0  3.925979  0  0  0.052831  0.109956  0  3.901736  0
C  C88  1  0.19350031  0.95755231  0.11246173  1  0  0.630652  0  3.961767  0  0  0.579864  0  4.253607  0  0  0.614474  0  4.250504  0  0  0.190602  0.556544  0  4.254648  0
C  C89  1  0.69349893  0.54244547  0.88753714  1  0  0.6306  0  3.961781  0  0  0.57985  0  4.253581  0  0  0.614459  0  4.25048  0  0  0.190605  0.556531  0  4.254621  0
C  C90  1  0.80649821  0.04244559  0.88753744  1  0  0.630627  0  3.9618  0  0  0.579843  0  4.253619  0  0  0.614454  0  4.250518  0  0  0.190587  0.556523  0  4.254658  0
C  C91  1  0.30649960  0.45755385  0.11246273  1  0  0.630591  0  3.961806  0  0  0.579826  0  4.253622  0  0  0.614435  0  4.250517  0  0  0.190587  0.556506  0  4.254661  0
C  C92  1  0.28192026  0.16512262  0.13531446  1  0  0.678511  0  3.910514  0  0  0.621205  0  4.209923  0  0  0.657491  0  4.198878  0  0  0.211009  0.59626  0  4.216691  0
C  C93  1  0.78192421  0.33487683  0.86468569  1  0  0.678467  0  3.910479  0  0  0.621161  0  4.209917  0  0  0.657447  0  4.198877  0  0  0.211031  0.596213  0  4.216686  0
C  C94  1  0.71807686  0.83487670  0.86468540  1  0  0.678483  0  3.910404  0  0  0.621172  0  4.209858  0  0  0.657458  0  4.198816  0  0  0.211009  0.596225  0  4.216629  0
C  C95  1  0.21807713  0.66512248  0.13531486  1  0  0.678547  0  3.910277  0  0  0.62125  0  4.209706  0  0  0.657535  0  4.198664  0  0  0.211042  0.596308  0  4.216471  0
N  N96  1  0.31856423  0.02665179  0.87656512  1  0  -0.355179  0  3.286073  0  0  -0.26925  0  3.561295  0  0  -0.291892  0  3.578749  0  0  -0.336771  -0.253849  0  3.549031  0
N  N97  1  0.81856173  0.47334694  0.12343572  1  0  -0.355055  0  3.286057  0  0  -0.269093  0  3.561234  0  0  -0.291736  0  3.578694  0  0  -0.336734  -0.253692  0  3.548965  0
N  N98  1  0.68143711  0.97334611  0.12343540  1  0  -0.355203  0  3.286186  0  0  -0.269213  0  3.561371  0  0  -0.291856  0  3.57883  0  0  -0.336776  -0.253809  0  3.549103  0
N  N99  1  0.18143680  0.52665308  0.87656484  1  0  -0.355162  0  3.28604  0  0  -0.269241  0  3.561249  0  0  -0.291884  0  3.578706  0  0  -0.336758  -0.253839  0  3.548983  0
N  N100  1  0.95298591  0.40590822  0.62173100  1  0  -0.351744  0  3.278213  0  0  -0.266249  0  3.551265  0  0  -0.28919  0  3.569009  0  0  -0.336872  -0.250657  0  3.538846  0
N  N101  1  0.45298976  0.09409333  0.37826863  1  0  -0.351699  0  3.278291  0  0  -0.266201  0  3.55137  0  0  -0.289143  0  3.56912  0  0  -0.336815  -0.250608  0  3.538948  0
N  N102  1  0.04701120  0.59409323  0.37826891  1  0  -0.351682  0  3.278269  0  0  -0.266212  0  3.551354  0  0  -0.289152  0  3.569102  0  0  -0.336843  -0.250619  0  3.538934  0
N  N103  1  0.54701158  0.90590741  0.62173059  1  0  -0.351687  0  3.278219  0  0  -0.266226  0  3.551332  0  0  -0.289167  0  3.56908  0  0  -0.336844  -0.250633  0  3.538911  0
O  O104  1  0.63148604  0.30440960  0.33154318  1  0  -0.649395  0  2.077821  0  0  -0.572838  0  2.321685  0  0  -0.605471  0  2.310609  0  0  -0.314483  -0.549687  0  2.328467  0
O  O105  1  0.13148500  0.19559272  0.66845625  1  0  -0.649407  0  2.077839  0  0  -0.572837  0  2.321677  0  0  -0.605469  0  2.310602  0  0  -0.314465  -0.549685  0  2.328459  0
O  O106  1  0.36851671  0.69559256  0.66845674  1  0  -0.649337  0  2.07775  0  0  -0.572779  0  2.321591  0  0  -0.605408  0  2.310515  0  0  -0.314449  -0.549628  0  2.328374  0
O  O107  1  0.86851635  0.80440801  0.33154364  1  0  -0.649404  0  2.077803  0  0  -0.572859  0  2.321657  0  0  -0.6055  0  2.310587  0  0  -0.314471  -0.549707  0  2.328441  0
O  O108  1  0.62449591  0.46406416  0.33539336  1  0  -0.640361  0  1.974956  0  0  -0.584113  0  2.230257  0  0  -0.612877  0  2.219739  0  0  -0.315506  -0.563244  0  2.23649  0
O  O109  1  0.12449357  0.03593887  0.66460608  1  0  -0.640305  0  1.974981  0  0  -0.584049  0  2.230256  0  0  -0.612813  0  2.219739  0  0  -0.315438  -0.56318  0  2.236488  0
O  O110  1  0.37550543  0.53593799  0.66460656  1  0  -0.640313  0  1.974983  0  0  -0.584051  0  2.230249  0  0  -0.612815  0  2.219734  0  0  -0.315452  -0.563181  0  2.236481  0
O  O111  1  0.87550777  0.96406258  0.33539383  1  0  -0.640372  0  1.974969  0  0  -0.58411  0  2.230231  0  0  -0.612873  0  2.219711  0  0  -0.315466  -0.563239  0  2.236464  0
O  O112  1  0.01612991  0.38038803  0.30467876  1  0  -0.676848  0  2.05711  0  0  -0.609934  0  2.305687  0  0  -0.640222  0  2.29712  0  0  -0.318822  -0.588523  0  2.310734  0
O  O113  1  0.51612791  0.11961218  0.69532123  1  0  -0.676952  0  2.056907  0  0  -0.610017  0  2.305446  0  0  -0.640305  0  2.296877  0  0  -0.318884  -0.588607  0  2.310497  0
O  O114  1  0.98387284  0.61961271  0.69532181  1  0  -0.676839  0  2.057044  0  0  -0.609935  0  2.305659  0  0  -0.640224  0  2.297091  0  0  -0.318828  -0.588525  0  2.310709  0
O  O115  1  0.48387202  0.88038714  0.30467797  1  0  -0.676868  0  2.057132  0  0  -0.609949  0  2.305723  0  0  -0.640236  0  2.297156  0  0  -0.318843  -0.588539  0  2.310772  0
O  O116  1  0.24876004  0.32244874  0.39008210  1  0  -0.616372  0  1.976185  0  0  -0.55227  0  2.218377  0  0  -0.584344  0  2.21228  0  0  -0.319484  -0.529851  0  2.221813  0
O  O117  1  0.74876198  0.17755285  0.60991740  1  0  -0.616413  0  1.976029  0  0  -0.552316  0  2.218223  0  0  -0.584391  0  2.212124  0  0  -0.319496  -0.529896  0  2.22166  0
O  O118  1  0.75123849  0.67755271  0.60991714  1  0  -0.616411  0  1.976048  0  0  -0.552303  0  2.218243  0  0  -0.584378  0  2.212145  0  0  -0.319488  -0.529884  0  2.221681  0
O  O119  1  0.25124218  0.82244789  0.39008182  1  0  -0.616352  0  1.976253  0  0  -0.552255  0  2.218457  0  0  -0.58433  0  2.212362  0  0  -0.319474  -0.529835  0  2.22189  0
O  O120  1  0.12914719  0.20416337  0.15837037  1  0  -0.630754  0  1.971799  0  0  -0.571603  0  2.203975  0  0  -0.600039  0  2.193921  0  0  -0.303639  -0.551235  0  2.210094  0
O  O121  1  0.62915252  0.29583611  0.84162834  1  0  -0.630782  0  1.971831  0  0  -0.571598  0  2.203982  0  0  -0.600035  0  2.193927  0  0  -0.303648  -0.551228  0  2.210103  0
O  O122  1  0.87084851  0.79583595  0.84162883  1  0  -0.630756  0  1.971735  0  0  -0.571575  0  2.203897  0  0  -0.600012  0  2.193842  0  0  -0.303638  -0.551206  0  2.210018  0
O  O123  1  0.37084883  0.70416462  0.15837223  1  0  -0.630781  0  1.971699  0  0  -0.571605  0  2.203854  0  0  -0.600041  0  2.193799  0  0  -0.303648  -0.551237  0  2.209973  0
O  O124  1  0.43915880  0.17736060  0.17683557  1  0  -0.685662  0  2.031143  0  0  -0.61166  0  2.294854  0  0  -0.64453  0  2.281476  0  0  -0.329442  -0.588113  0  2.303045  0
O  O125  1  0.93916406  0.32264095  0.82316472  1  0  -0.685618  0  2.031079  0  0  -0.611625  0  2.294803  0  0  -0.644498  0  2.28143  0  0  -0.329449  -0.588079  0  2.302995  0
O  O126  1  0.56083690  0.82264014  0.82316432  1  0  -0.685663  0  2.031165  0  0  -0.611642  0  2.294848  0  0  -0.644513  0  2.28147  0  0  -0.329446  -0.588096  0  2.303042  0
O  O127  1  0.06083869  0.67735978  0.17683652  1  0  -0.685678  0  2.031088  0  0  -0.611674  0  2.294792  0  0  -0.644544  0  2.281414  0  0  -0.32946  -0.588129  0  2.302984  0
O  O128  1  0.22962142  0.99018837  0.19081329  1  0  -0.646434  0  2.009343  0  0  -0.583414  0  2.253027  0  0  -0.613475  0  2.245181  0  0  -0.312507  -0.562291  0  2.257571  0
O  O129  1  0.72961983  0.50981011  0.80918562  1  0  -0.646454  0  2.009293  0  0  -0.583452  0  2.252982  0  0  -0.613516  0  2.245139  0  0  -0.312531  -0.56233  0  2.257527  0
O  O130  1  0.77037852  0.00980953  0.80918588  1  0  -0.646442  0  2.009263  0  0  -0.583439  0  2.25297  0  0  -0.613505  0  2.245127  0  0  -0.312543  -0.562317  0  2.257514  0
O  O131  1  0.27037728  0.49018850  0.19081423  1  0  -0.646433  0  2.009274  0  0  -0.583418  0  2.252946  0  0  -0.61348  0  2.2451  0  0  -0.312517  -0.562296  0  2.257492  0
O  O132  1  0.12183377  0.87559744  0.09784176  1  0  -0.630124  0  1.966686  0  0  -0.566976  0  2.20798  0  0  -0.599135  0  2.202943  0  0  -0.32205  -0.544451  0  2.210517  0
O  O133  1  0.62183377  0.62440035  0.90215706  1  0  -0.630141  0  1.966694  0  0  -0.567005  0  2.207972  0  0  -0.599161  0  2.202926  0  0  -0.322075  -0.54448  0  2.210508  0
O  O134  1  0.87816334  0.12440046  0.90215741  1  0  -0.630124  0  1.966681  0  0  -0.566977  0  2.207979  0  0  -0.599127  0  2.202919  0  0  -0.322049  -0.54445  0  2.210512  0
O  O135  1  0.37816475  0.37559897  0.09784213  1  0  -0.63014  0  1.966706  0  0  -0.56699  0  2.207971  0  0  -0.599153  0  2.202942  0  0  -0.322073  -0.544464  0  2.210506  0
O  O136  1  0.15677939  0.83905033  0.72540860  1  0  -0.840146  0  1.83351  0  0  -0.769804  0  2.02737  0  0  -0.792538  0  1.994289  0  0  -0.590322  -0.753661  0  2.050319  0
O  O137  1  0.65678180  0.66095028  0.27459098  1  0  -0.840095  0  1.83356  0  0  -0.769744  0  2.027414  0  0  -0.792477  0  1.994332  0  0  -0.5903  -0.753602  0  2.050365  0
O  O138  1  0.84321772  0.16095040  0.27459063  1  0  -0.840092  0  1.833567  0  0  -0.769735  0  2.027409  0  0  -0.792468  0  1.994329  0  0  -0.590293  -0.753593  0  2.050359  0
O  O139  1  0.34321954  0.33905117  0.72540893  1  0  -0.840118  0  1.833493  0  0  -0.769773  0  2.027386  0  0  -0.792506  0  1.994306  0  0  -0.590333  -0.75363  0  2.050337  0
