# generated using pymatgen
data_Cu2H12C18N4ClO2
_symmetry_space_group_name_H-M   'P 1'
_cell_length_a   7.81635522
_cell_length_b   7.81634279
_cell_length_c   13.25330162
_cell_angle_alpha   89.99987746
_cell_angle_beta   89.99967545
_cell_angle_gamma   98.63858770
_symmetry_Int_Tables_number   1
_chemical_formula_structural   Cu2H12C18N4ClO2
_chemical_formula_sum   'Cu4 H24 C36 N8 Cl2 O4'
_cell_volume   800.52874484
_cell_formula_units_Z   2
loop_
 _symmetry_equiv_pos_site_id
 _symmetry_equiv_pos_as_xyz
  1  'x, y, z'
loop_
 _atom_site_type_symbol
 _atom_site_label
 _atom_site_symmetry_multiplicity
 _atom_site_fract_x
 _atom_site_fract_y
 _atom_site_fract_z
 _atom_site_occupancy
 _atom_site_hle17_ddec_charge
 _atom_site_hle17_ddec_spin_density
 _atom_site_hle17_ddec_sum_bond_order
 _atom_site_hle17_magmom
 _atom_site_hse06_10hf_ddec_charge
 _atom_site_hse06_10hf_ddec_spin_density
 _atom_site_hse06_10hf_ddec_sum_bond_order
 _atom_site_hse06_10hf_magmom
 _atom_site_hse06_ddec_charge
 _atom_site_hse06_ddec_spin_density
 _atom_site_hse06_ddec_sum_bond_order
 _atom_site_hse06_magmom
 _atom_site_pbe_cm5_charge
 _atom_site_pbe_ddec_charge
 _atom_site_pbe_ddec_spin_density
 _atom_site_pbe_ddec_sum_bond_order
 _atom_site_pbe_magmom
Cu  Cu0  1  0.12671240  0.72018382  0.75000114  1  0.799064  0.685677  1.959859  0.521  0.779832  0.787075  2.362112  0.64  0.865319  0.851734  2.292918  0.723  0.710666  0.726907  0.736383  2.41024  0.581
Cu  Cu1  1  0.27981935  0.87328373  0.25000009  1  0.799191  0.685679  1.959779  0.521  0.780018  0.787069  2.361954  0.64  0.865472  0.851716  2.292803  0.723  0.710722  0.727094  0.736378  2.410091  0.581
Cu  Cu2  1  0.50894267  0.49105733  0.49999954  1  0.52256  0.044268  1.569181  0.036  0.385282  0.005914  1.979739  0.005  0.395708  0.001508  1.940392  0.001  0.527014  0.385006  0.016768  2.003369  0.014
Cu  Cu3  1  0.50894408  0.49105739  0.99999948  1  0.522582  0.044267  1.569199  0.036  0.385306  0.005914  1.979764  0.005  0.395733  0.001508  1.940421  0.001  0.527028  0.385032  0.016764  2.0034  0.014
H  H4  1  0.06901751  0.69666290  0.52362520  1  0.095627  0.001238  0.933228  0.002  0.104912  0.00116  0.993704  0.002  0.107064  0.000801  0.991423  0.002  0.123586  0.103038  0.001446  0.99571  0.002
H  H5  1  0.30333561  0.93097456  0.47637531  1  0.095661  0.001239  0.933196  0.002  0.104951  0.001159  0.993647  0.002  0.107104  0.000801  0.991365  0.002  0.12361  0.103078  0.001446  0.995653  0.002
H  H6  1  0.30334020  0.93097321  0.02362171  1  0.095636  0.001237  0.933327  0.002  0.104925  0.00116  0.993782  0.002  0.107074  0.000801  0.991507  0.002  0.123618  0.103054  0.001446  0.995785  0.002
H  H7  1  0.06902284  0.69666188  0.97637805  1  0.095677  0.001238  0.93318  0.002  0.104965  0.001159  0.993637  0.002  0.107117  0.000801  0.991358  0.002  0.123625  0.103092  0.001446  0.995643  0.002
H  H8  1  0.83985885  0.76751227  0.40758864  1  0.117517  0.000513  0.992687  0.001  0.122123  0.000487  1.058087  0.001  0.12576  0.000354  1.056052  0.0  0.093111  0.119265  0.000597  1.059932  0.001
H  H9  1  0.23248994  0.16013434  0.59241190  1  0.117506  0.000512  0.992764  0.001  0.122107  0.000487  1.058162  0.001  0.125743  0.000354  1.056119  0.0  0.093082  0.119249  0.000597  1.060008  0.001
H  H10  1  0.23249053  0.16013098  0.90758317  1  0.117502  0.000514  0.992667  0.001  0.122101  0.000487  1.058083  0.001  0.125727  0.000354  1.056062  0.0  0.093057  0.119241  0.000597  1.059933  0.001
H  H11  1  0.83986300  0.76750283  0.09241812  1  0.117527  0.00051  0.992628  0.001  0.122121  0.000487  1.058045  0.001  0.125759  0.000354  1.05601  0.0  0.093063  0.119261  0.000597  1.059896  0.001
H  H12  1  0.58842188  0.89661321  0.48242391  1  0.100631  0.000194  0.956064  0.0  0.111927  2.5e-05  1.015464  0.0  0.114646  -2.3e-05  1.012631  0.0  0.10758  0.109801  8.4e-05  1.017919  0.0
H  H13  1  0.10339246  0.41157500  0.51757777  1  0.100655  0.000193  0.95595  0.0  0.111941  2.5e-05  1.015368  0.0  0.114659  -2.3e-05  1.012535  0.0  0.107575  0.109814  8.4e-05  1.017823  0.0
H  H14  1  0.10338920  0.41156731  0.98241817  1  0.100725  0.000192  0.955938  0.0  0.111995  2.5e-05  1.015358  0.0  0.114715  -2.3e-05  1.012522  0.0  0.107617  0.109869  8.4e-05  1.017814  0.0
H  H15  1  0.58842664  0.89660287  0.01758578  1  0.10061  0.000195  0.956026  0.0  0.111918  2.5e-05  1.015409  0.0  0.114635  -2.3e-05  1.01258  0.0  0.1076  0.109792  8.4e-05  1.017865  0.0
H  H16  1  0.57523970  0.93723975  0.66947240  1  0.122636  0.00067  0.974268  0.001  0.129247  0.000597  1.0363  0.001  0.132589  0.000415  1.035278  0.001  0.099077  0.126604  0.000739  1.037357  0.001
H  H17  1  0.06276663  0.42475679  0.33052935  1  0.122692  0.00067  0.974234  0.001  0.129309  0.000596  1.036253  0.001  0.132652  0.000415  1.035235  0.001  0.099116  0.126667  0.000739  1.037309  0.001
H  H18  1  0.06276407  0.42475069  0.16946608  1  0.122664  0.000672  0.974234  0.001  0.129291  0.000596  1.03622  0.001  0.132635  0.000415  1.035197  0.001  0.099105  0.126645  0.000739  1.037284  0.001
H  H19  1  0.57524059  0.93723291  0.83053868  1  0.122704  0.000669  0.974252  0.001  0.129314  0.000597  1.036253  0.001  0.132654  0.000415  1.035227  0.001  0.099091  0.126669  0.000739  1.037315  0.001
H  H20  1  0.76747468  0.34654897  0.56259643  1  0.077126  8.8e-05  0.994058  0.0  0.088959  2.3e-05  1.063236  0.0  0.09249  -7e-06  1.060078  0.0  0.090861  0.086377  8.9e-05  1.065385  0.0
H  H21  1  0.65345642  0.23252266  0.43740147  1  0.077116  8.9e-05  0.994189  0.0  0.088961  2.3e-05  1.063338  0.0  0.092487  -7e-06  1.060192  0.0  0.09087  0.086372  8.9e-05  1.06549  0.0
H  H22  1  0.65346094  0.23252369  0.06260053  1  0.077154  8.9e-05  0.994199  0.0  0.088995  2.3e-05  1.063347  0.0  0.092522  -7e-06  1.060201  0.0  0.090879  0.086412  8.9e-05  1.065496  0.0
H  H23  1  0.76747769  0.34654680  0.93739889  1  0.077179  8.9e-05  0.994125  0.0  0.089008  2.3e-05  1.06328  0.0  0.09253  -7e-06  1.060148  0.0  0.09089  0.086422  8.9e-05  1.065433  0.0
H  H24  1  0.99602653  0.22046757  0.65703449  1  0.090804  4.7e-05  0.976638  0.0  0.101085  3.6e-05  1.039639  0.0  0.10291  2.5e-05  1.040313  0.0  0.096358  0.099902  4.4e-05  1.0391  0.0
H  H25  1  0.77953933  0.00397235  0.34296230  1  0.090784  4.7e-05  0.976701  0.0  0.101034  3.6e-05  1.03974  0.0  0.102859  2.5e-05  1.040412  0.0  0.096324  0.099851  4.4e-05  1.0392  0.0
H  H26  1  0.77954047  0.00397413  0.15703882  1  0.090787  4.7e-05  0.976717  0.0  0.101041  3.6e-05  1.039758  0.0  0.102866  2.5e-05  1.040432  0.0  0.096337  0.09986  4.4e-05  1.039217  0.0
H  H27  1  0.99602718  0.22046970  0.84295797  1  0.090759  4.8e-05  0.976706  0.0  0.100992  3.6e-05  1.039767  0.0  0.102818  2.5e-05  1.040439  0.0  0.09635  0.099811  4.4e-05  1.039223  0.0
C  C28  1  0.95664621  0.74856656  0.55225052  1  0.136878  -0.010697  3.683282  -0.007  0.107929  -0.003152  3.941847  -0.002  0.116874  -0.00479  3.960352  -0.003  0.052624  0.102008  -0.001922  3.930393  -0.001
C  C29  1  0.25143708  0.04335003  0.44774987  1  0.136935  -0.010724  3.68334  -0.007  0.108005  -0.003152  3.941894  -0.002  0.116954  -0.00479  3.960395  -0.003  0.052712  0.102078  -0.001922  3.930445  -0.001
C  C30  1  0.25143703  0.04334457  0.05224767  1  0.136876  -0.010671  3.68342  -0.007  0.107933  -0.003154  3.941983  -0.002  0.116889  -0.004788  3.960466  -0.003  0.052693  0.102006  -0.001922  3.930536  -0.001
C  C31  1  0.95664877  0.74856175  0.94775348  1  0.136797  -0.010733  3.683457  -0.007  0.10786  -0.003149  3.941999  -0.002  0.116809  -0.004797  3.960494  -0.003  0.052654  0.101935  -0.001922  3.930551  -0.001
C  C32  1  0.82784475  0.79070026  0.48846132  1  -0.127848  0.008886  3.724909  0.01  -0.139707  0.004377  3.976928  0.006  -0.145227  0.003711  3.992485  0.005  -0.087091  -0.136663  0.004941  3.96773  0.006
C  C33  1  0.20930513  0.17215021  0.51153850  1  -0.127883  0.008911  3.725159  0.01  -0.139723  0.004378  3.977154  0.006  -0.145235  0.003712  3.992721  0.005  -0.087083  -0.136676  0.004941  3.967954  0.006
C  C34  1  0.20930471  0.17214514  0.98845588  1  -0.127809  0.008868  3.725039  0.01  -0.13965  0.004379  3.977021  0.006  -0.145163  0.00371  3.992588  0.005  -0.087026  -0.136602  0.004941  3.967825  0.006
C  C35  1  0.82784846  0.79069121  0.01154544  1  -0.127884  0.008923  3.725109  0.01  -0.13974  0.004375  3.977119  0.006  -0.145259  0.003715  3.992681  0.005  -0.087085  -0.136693  0.004941  3.967924  0.006
C  C36  1  0.69041379  0.86155342  0.53083284  1  -0.014592  -0.0113  3.712025  -0.007  -0.029505  -0.005079  3.958244  -0.003  -0.022277  -0.00541  3.968842  -0.003  -0.071961  -0.035276  -0.004836  3.952675  -0.003
C  C37  1  0.13845604  0.30958427  0.46916795  1  -0.0146  -0.011331  3.712059  -0.007  -0.029511  -0.005081  3.958286  -0.003  -0.022282  -0.005411  3.968882  -0.003  -0.071958  -0.035281  -0.004836  3.952715  -0.003
C  C38  1  0.13845219  0.30957755  0.03082737  1  -0.01469  -0.011268  3.712112  -0.007  -0.029598  -0.00508  3.958319  -0.003  -0.022367  -0.005408  3.96891  -0.003  -0.072059  -0.035368  -0.004835  3.952749  -0.003
C  C39  1  0.69041708  0.86154594  0.96917418  1  -0.014508  -0.011354  3.712017  -0.007  -0.029428  -0.005077  3.958217  -0.003  -0.022196  -0.005416  3.968803  -0.003  -0.072022  -0.035202  -0.004835  3.952652  -0.003
C  C40  1  0.68305484  0.88435550  0.63490803  1  -0.117707  0.005455  3.663463  0.006  -0.13336  0.002491  3.901824  0.003  -0.139893  0.002264  3.920563  0.003  -0.074342  -0.129356  0.002672  3.890245  0.003
C  C41  1  0.11565197  0.31694270  0.36509279  1  -0.117714  0.005481  3.663506  0.006  -0.133396  0.002492  3.901888  0.003  -0.139932  0.002266  3.920628  0.003  -0.074416  -0.129393  0.002672  3.89031  0.003
C  C42  1  0.11564848  0.31693676  0.13490260  1  -0.11773  0.005432  3.663518  0.006  -0.133362  0.002492  3.901824  0.003  -0.139896  0.002263  3.920561  0.003  -0.07433  -0.129357  0.002672  3.890248  0.003
C  C43  1  0.68305682  0.88434980  0.86509973  1  -0.117806  0.005491  3.663438  0.006  -0.133445  0.00249  3.901793  0.003  -0.139971  0.002267  3.920522  0.003  -0.074328  -0.129443  0.002672  3.890219  0.003
C  C44  1  0.81307639  0.83187525  0.69459863  1  0.175038  -0.006114  3.740139  -0.004  0.172485  -0.001536  3.982937  0.0  0.180402  -0.002915  4.0037  -0.002  0.1199  0.16716  -0.00054  3.969472  0.001
C  C45  1  0.16812874  0.18691908  0.30540426  1  0.174985  -0.006156  3.740395  -0.004  0.17246  -0.001536  3.983193  0.0  0.18038  -0.002919  4.003955  -0.002  0.11995  0.167133  -0.000539  3.969733  0.001
C  C46  1  0.16812898  0.18691678  0.19459187  1  0.175091  -0.006088  3.740332  -0.003  0.172532  -0.001538  3.983125  0.0  0.180449  -0.002915  4.003884  -0.002  0.119991  0.167207  -0.00054  3.969663  0.001
C  C47  1  0.81307805  0.83187243  0.80540876  1  0.175121  -0.006159  3.740141  -0.004  0.172557  -0.001535  3.982927  0.0  0.180474  -0.002921  4.003688  -0.002  0.119968  0.167236  -0.00054  3.969461  0.001
C  C48  1  0.38566159  0.54101319  0.69425320  1  0.397111  -0.001486  3.868103  -0.002  0.368535  0.001018  4.135873  0.0  0.392032  0.000604  4.142415  0.0  0.203548  0.352685  0.001265  4.131246  0.0
C  C49  1  0.45899352  0.61433781  0.30574682  1  0.397187  -0.001486  3.868077  -0.002  0.368576  0.001019  4.135899  0.0  0.392074  0.000601  4.142434  0.0  0.203537  0.352716  0.001265  4.131287  0.0
C  C50  1  0.45899427  0.61433940  0.19425385  1  0.397065  -0.001487  3.868104  -0.002  0.368477  0.001019  4.1359  0.0  0.391974  0.000601  4.142435  0.0  0.20351  0.35263  0.001265  4.131279  0.0
C  C51  1  0.38565973  0.54101287  0.80574617  1  0.397113  -0.001487  3.86809  -0.002  0.368523  0.001016  4.135876  0.0  0.392019  0.000605  4.142417  0.0  0.20358  0.352672  0.001265  4.131251  0.0
C  C52  1  0.63414745  0.40773536  0.69636630  1  0.161983  0.000893  3.80085  0.002  0.155562  0.000492  4.043305  0.001  0.158131  0.000248  4.069226  0.001  0.087245  0.153878  0.000738  4.025901  0.002
C  C53  1  0.59227240  0.36585358  0.30363105  1  0.16197  0.000888  3.800721  0.002  0.155515  0.000493  4.043235  0.001  0.158083  0.000246  4.069159  0.001  0.087219  0.153831  0.000738  4.025833  0.002
C  C54  1  0.59227023  0.36585251  0.19636948  1  0.162075  0.000895  3.800621  0.002  0.155609  0.000494  4.043143  0.001  0.158177  0.000245  4.069067  0.001  0.087242  0.153925  0.000738  4.025746  0.002
C  C55  1  0.63414672  0.40773378  0.80362939  1  0.161974  0.000892  3.800744  0.002  0.155537  0.000494  4.043226  0.001  0.158107  0.000243  4.069143  0.001  0.087176  0.153855  0.000738  4.025823  0.002
C  C56  1  0.76724535  0.34201648  0.64491328  1  -0.153228  0.000108  3.772793  0.0  -0.173223  -0.000259  4.02753  0.0  -0.176778  -0.00037  4.04903  0.0  -0.103146  -0.170666  -0.0001  4.013041  0.0
C  C57  1  0.65798404  0.23274849  0.35508537  1  -0.153352  0.000111  3.77285  0.0  -0.173344  -0.000258  4.027612  0.0  -0.176898  -0.000369  4.049113  0.0  -0.103256  -0.170778  -0.000101  4.013127  0.0
C  C58  1  0.65798787  0.23275039  0.14491586  1  -0.153427  0.000105  3.772842  0.0  -0.173407  -0.000258  4.027605  0.0  -0.176964  -0.000371  4.049105  0.0  -0.103227  -0.170846  -0.0001  4.013122  0.0
C  C59  1  0.76724972  0.34201862  0.85508129  1  -0.15352  0.000112  3.77299  0.0  -0.17351  -0.000259  4.027773  0.0  -0.177069  -0.000366  4.049273  0.0  -0.103303  -0.170943  -0.000101  4.013276  0.0
C  C60  1  0.89558187  0.27493009  0.69712953  1  -0.066494  -0.00127  3.790375  0.0  -0.087714  -0.001034  4.055479  0.0  -0.090609  -0.001005  4.07944  0.0  -0.102252  -0.085759  -0.001028  4.039307  0.0
C  C61  1  0.72507620  0.10441822  0.30286817  1  -0.066379  -0.001273  3.790427  -0.001  -0.087575  -0.001036  4.05552  0.0  -0.090467  -0.001004  4.079478  0.0  -0.102178  -0.085618  -0.001027  4.039344  0.0
C  C62  1  0.72507787  0.10441723  0.19713451  1  -0.066284  -0.001269  3.790334  0.0  -0.087488  -0.001036  4.055423  0.0  -0.090381  -0.001003  4.079383  0.0  -0.102171  -0.085532  -0.001027  4.03925  0.0
C  C63  1  0.89558227  0.27492725  0.80286168  1  -0.066215  -0.00128  3.790354  -0.001  -0.087384  -0.001035  4.055425  0.0  -0.090275  -0.001008  4.079384  0.0  -0.102146  -0.085429  -0.001027  4.039253  0.0
N  N64  1  0.94855316  0.76826049  0.65235464  1  -0.318451  0.076474  3.34862  0.101  -0.278616  0.05714  3.645703  0.079  -0.309498  0.045938  3.668178  0.068  -0.347968  -0.260589  0.063189  3.633111  0.084
N  N65  1  0.23174163  0.05144223  0.34764654  1  -0.318538  0.076491  3.348864  0.101  -0.278747  0.057139  3.645952  0.079  -0.309632  0.045941  3.668444  0.068  -0.348084  -0.260719  0.063188  3.633364  0.084
N  N66  1  0.23174360  0.05144019  0.15235105  1  -0.318554  0.076458  3.34885  0.101  -0.278751  0.057139  3.645947  0.079  -0.309625  0.045939  3.668421  0.068  -0.348142  -0.260721  0.063187  3.63336  0.084
N  N67  1  0.94855582  0.76825877  0.84764937  1  -0.318472  0.076492  3.34883  0.101  -0.278637  0.057138  3.645902  0.079  -0.309519  0.045941  3.668379  0.068  -0.348021  -0.26061  0.063187  3.633314  0.084
N  N68  1  0.50738207  0.47572831  0.64258516  1  -0.45208  0.00105  3.400595  0.002  -0.370374  0.000497  3.689814  0.001  -0.38912  -0.00049  3.696514  0.0  -0.399191  -0.358861  0.001259  3.685079  0.002
N  N69  1  0.52427832  0.49261527  0.35741316  1  -0.452112  0.001054  3.400538  0.002  -0.370375  0.000493  3.68976  0.001  -0.38912  -0.000485  3.696458  0.0  -0.39918  -0.358857  0.001259  3.68503  0.002
N  N70  1  0.52427576  0.49261705  0.14258518  1  -0.452163  0.001051  3.400462  0.002  -0.370437  0.000494  3.689697  0.001  -0.38918  -0.000485  3.696395  0.0  -0.399226  -0.358922  0.001259  3.684969  0.002
N  N71  1  0.50738223  0.47572778  0.85741389  1  -0.452126  0.00105  3.40042  0.002  -0.370429  0.000498  3.689674  0.001  -0.389168  -0.000493  3.696363  0.0  -0.399242  -0.358916  0.001259  3.684944  0.002
Cl  Cl72  1  0.30453657  0.01822872  0.74999901  1  -0.65728  0.002215  0.758198  0.005  -0.611461  -0.001086  0.97789  0.001  -0.62943  -0.002291  0.958128  0.0  -0.371256  -0.596188  0.000605  0.991243  0.003
Cl  Cl73  1  0.98177353  0.69545838  0.25000205  1  -0.657308  0.002214  0.758179  0.005  -0.611494  -0.001088  0.977854  0.001  -0.629459  -0.002292  0.958102  0.0  -0.371259  -0.596221  0.000604  0.991213  0.003
O  O74  1  0.26628040  0.60977185  0.64944112  1  -0.557123  0.069189  2.089804  0.098  -0.527081  0.04677  2.369847  0.071  -0.565289  0.035181  2.364198  0.057  -0.321116  -0.501404  0.054492  2.37395  0.079
O  O75  1  0.39023261  0.73371869  0.35055909  1  -0.557194  0.069185  2.089871  0.098  -0.527145  0.046771  2.369923  0.071  -0.565346  0.035181  2.364276  0.057  -0.321108  -0.501464  0.054491  2.374032  0.079
O  O76  1  0.39023461  0.73371666  0.14944166  1  -0.557103  0.069185  2.08988  0.098  -0.527082  0.04677  2.369952  0.071  -0.565283  0.035181  2.364306  0.057  -0.321085  -0.501404  0.05449  2.374057  0.079
O  O77  1  0.26628304  0.60977011  0.85055856  1  -0.5571  0.069181  2.089912  0.098  -0.527059  0.046767  2.369973  0.071  -0.565268  0.03518  2.364325  0.057  -0.321103  -0.501385  0.054487  2.374078  0.079
