# generated using pymatgen
data_CsH4C8N2(ClO2)2
_symmetry_space_group_name_H-M   'P 1'
_cell_length_a   6.57888075
_cell_length_b   9.79240710
_cell_length_c   18.18235299
_cell_angle_alpha   90.00089015
_cell_angle_beta   90.00007989
_cell_angle_gamma   90.00058990
_symmetry_Int_Tables_number   1
_chemical_formula_structural   CsH4C8N2(ClO2)2
_chemical_formula_sum   'Cs4 H16 C32 N8 Cl8 O16'
_cell_volume   1171.36315504
_cell_formula_units_Z   4
loop_
 _symmetry_equiv_pos_site_id
 _symmetry_equiv_pos_as_xyz
  1  'x, y, z'
loop_
 _atom_site_type_symbol
 _atom_site_label
 _atom_site_symmetry_multiplicity
 _atom_site_fract_x
 _atom_site_fract_y
 _atom_site_fract_z
 _atom_site_occupancy
 _atom_site_hle17_bader_spin_density
 _atom_site_hle17_ddec_charge
 _atom_site_hle17_ddec_spin_density
 _atom_site_hle17_ddec_sum_bond_order
 _atom_site_hle17_magmom
 _atom_site_hse06_10hf_bader_spin_density
 _atom_site_hse06_10hf_ddec_charge
 _atom_site_hse06_10hf_ddec_spin_density
 _atom_site_hse06_10hf_ddec_sum_bond_order
 _atom_site_hse06_10hf_magmom
 _atom_site_hse06_bader_spin_density
 _atom_site_hse06_ddec_charge
 _atom_site_hse06_ddec_spin_density
 _atom_site_hse06_ddec_sum_bond_order
 _atom_site_hse06_magmom
 _atom_site_pbe_bader_spin_density
 _atom_site_pbe_cm5_charge
 _atom_site_pbe_ddec_charge
 _atom_site_pbe_ddec_spin_density
 _atom_site_pbe_ddec_sum_bond_order
 _atom_site_pbe_magmom
Cs  Cs0  1  0.59569365  0.46028607  0.34265465  1  0  0.935546  0  0.589084  0  0  0.872051  0  0.84092  0  0  0.88819  0  0.814629  0  0  0.806911  0.860073  0  0.859672  0
Cs  Cs1  1  0.40429847  0.46029198  0.65734325  1  0  0.935555  0  0.589076  0  0  0.872048  0  0.840954  0  0  0.888184  0  0.814656  0  0  0.806947  0.860078  0  0.859705  0
Cs  Cs2  1  0.09569700  0.53970647  0.15734496  1  0  0.935569  0  0.589066  0  0  0.872066  0  0.840915  0  0  0.888203  0  0.814617  0  0  0.806912  0.860075  0  0.859673  0
Cs  Cs3  1  0.90430242  0.53970587  0.84265745  1  0  0.935543  0  0.589088  0  0  0.872036  0  0.840951  0  0  0.888174  0  0.814654  0  0  0.806946  0.860084  0  0.859695  0
H  H4  1  0.20386830  0.38065156  0.48312174  1  0  0.42023  0  0.878151  0  0  0.389029  0  0.942804  0  0  0.399149  0  0.927897  0  0  0.294323  0.381884  0  0.953287  0
H  H5  1  0.79612260  0.38065308  0.51687659  1  0  0.420231  0  0.878148  0  0  0.389033  0  0.942792  0  0  0.39915  0  0.927889  0  0  0.294326  0.381888  0  0.953274  0
H  H6  1  0.70387069  0.61934377  0.01687683  1  0  0.42025  0  0.878123  0  0  0.389043  0  0.942784  0  0  0.399161  0  0.927879  0  0  0.294332  0.381899  0  0.953266  0
H  H7  1  0.29612690  0.61934197  0.98312460  1  0  0.420182  0  0.878228  0  0  0.388948  0  0.942932  0  0  0.39907  0  0.928022  0  0  0.294277  0.381801  0  0.953417  0
H  H8  1  0.20351690  0.54308045  0.48176121  1  0  0.423043  0  0.878104  0  0  0.391296  0  0.943591  0  0  0.401728  0  0.928236  0  0  0.293313  0.383952  0  0.954367  0
H  H9  1  0.79647953  0.54308303  0.51824013  1  0  0.423021  0  0.878137  0  0  0.391269  0  0.94363  0  0  0.401702  0  0.928274  0  0  0.29329  0.383924  0  0.954406  0
H  H10  1  0.70351833  0.45691590  0.01824011  1  0  0.423036  0  0.87812  0  0  0.391285  0  0.943612  0  0  0.401717  0  0.928258  0  0  0.293308  0.383941  0  0.954388  0
H  H11  1  0.29648134  0.45691304  0.98176106  1  0  0.42307  0  0.878096  0  0  0.39129  0  0.943635  0  0  0.401727  0  0.928277  0  0  0.293332  0.383942  0  0.954412  0
H  H12  1  0.61645431  0.55158652  0.13340269  1  0  0.429759  0  0.872827  0  0  0.402866  0  0.929815  0  0  0.413188  0  0.914758  0  0  0.281781  0.395629  0  0.940357  0
H  H13  1  0.38353920  0.55156768  0.86659927  1  0  0.429677  0  0.872924  0  0  0.402751  0  0.929951  0  0  0.413068  0  0.914905  0  0  0.281778  0.395515  0  0.940492  0
H  H14  1  0.11645859  0.44842454  0.36660022  1  0  0.429717  0  0.872859  0  0  0.402798  0  0.929887  0  0  0.413121  0  0.91483  0  0  0.281767  0.395564  0  0.940426  0
H  H15  1  0.88353487  0.44842696  0.63340032  1  0  0.429673  0  0.872935  0  0  0.402744  0  0.929967  0  0  0.413064  0  0.914915  0  0  0.281762  0.395509  0  0.940507  0
H  H16  1  0.58047201  0.67249409  0.18599154  1  0  0.393958  0  0.906165  0  0  0.365167  0  0.975191  0  0  0.373408  0  0.962995  0  0  0.282024  0.359421  0  0.983683  0
H  H17  1  0.41952335  0.67246888  0.81400813  1  0  0.393924  0  0.906021  0  0  0.365137  0  0.975165  0  0  0.373378  0  0.962969  0  0  0.282056  0.359392  0  0.983656  0
H  H18  1  0.08047272  0.32752386  0.31400696  1  0  0.393847  0  0.906176  0  0  0.365068  0  0.975274  0  0  0.373308  0  0.963081  0  0  0.282005  0.35932  0  0.983768  0
H  H19  1  0.91952497  0.32752907  0.68599148  1  0  0.393868  0  0.9061  0  0  0.365083  0  0.975244  0  0  0.373324  0  0.963049  0  0  0.282025  0.359336  0  0.983736  0
C  C20  1  0.79843617  0.80798427  0.45219699  1  0  0.331855  0  3.878327  0  0  0.307699  0  4.15471  0  0  0.324745  0  4.16607  0  0  0.12056  0.297019  0  4.146001  0
C  C21  1  0.20158103  0.80798562  0.54780657  1  0  0.331887  0  3.878465  0  0  0.307865  0  4.154667  0  0  0.324878  0  4.166063  0  0  0.120572  0.297197  0  4.145876  0
C  C22  1  0.29842010  0.19201171  0.04780327  1  0  0.331779  0  3.878532  0  0  0.307734  0  4.154718  0  0  0.32475  0  4.166115  0  0  0.120532  0.297043  0  4.146069  0
C  C23  1  0.70156792  0.19202614  0.95219732  1  0  0.332021  0  3.878396  0  0  0.307849  0  4.154797  0  0  0.324898  0  4.166154  0  0  0.120627  0.297186  0  4.145943  0
C  C24  1  0.76461961  0.88875789  0.51848302  1  0  -0.102835  0  3.824803  0  0  -0.09908  0  4.073288  0  0  -0.104952  0  4.096453  0  0  -0.006705  -0.096146  0  4.059854  0
C  C25  1  0.23538666  0.88873306  0.48151572  1  0  -0.103045  0  3.825093  0  0  -0.099301  0  4.073558  0  0  -0.105185  0  4.096764  0  0  -0.006774  -0.096347  0  4.060026  0
C  C26  1  0.26462222  0.11125532  0.98151376  1  0  -0.102923  0  3.825171  0  0  -0.099155  0  4.073563  0  0  -0.105032  0  4.096742  0  0  -0.006672  -0.096204  0  4.060163  0
C  C27  1  0.73536761  0.11124819  0.01848506  1  0  -0.103109  0  3.824729  0  0  -0.099385  0  4.073218  0  0  -0.105274  0  4.096411  0  0  -0.006805  -0.096426  0  4.059629  0
C  C28  1  0.76540955  0.03181740  0.51683607  1  0  -0.107238  0  3.824934  0  0  -0.102219  0  4.072516  0  0  -0.108674  0  4.096111  0  0  -0.00751  -0.098761  0  4.05868  0
C  C29  1  0.23459579  0.03181098  0.48316208  1  0  -0.107403  0  3.824572  0  0  -0.102263  0  4.072094  0  0  -0.108717  0  4.095689  0  0  -0.007501  -0.098798  0  4.058174  0
C  C30  1  0.26542374  0.96818561  0.98316235  1  0  -0.107246  0  3.824415  0  0  -0.102124  0  4.071898  0  0  -0.108582  0  4.095507  0  0  -0.007477  -0.098671  0  4.05812  0
C  C31  1  0.73457159  0.96818966  0.01683815  1  0  -0.107108  0  3.824814  0  0  -0.101929  0  4.072234  0  0  -0.108372  0  4.095814  0  0  -0.007399  -0.098467  0  4.058255  0
C  C32  1  0.79804170  0.10923774  0.44909105  1  0  0.332657  0  3.877174  0  0  0.308284  0  4.153682  0  0  0.325631  0  4.16506  0  0  0.119024  0.297459  0  4.144726  0
C  C33  1  0.20196330  0.10923408  0.55090885  1  0  0.332745  0  3.876924  0  0  0.308358  0  4.153455  0  0  0.325702  0  4.164841  0  0  0.119015  0.297546  0  4.144419  0
C  C34  1  0.29805152  0.89076334  0.05090811  1  0  0.332512  0  3.877196  0  0  0.30812  0  4.15376  0  0  0.325465  0  4.165146  0  0  0.118936  0.297282  0  4.144869  0
C  C35  1  0.70195022  0.89076543  0.94909119  1  0  0.332638  0  3.877088  0  0  0.308217  0  4.15361  0  0  0.325568  0  4.16498  0  0  0.118936  0.297423  0  4.144529  0
C  C36  1  0.81918131  0.02684546  0.38188764  1  0  -0.019029  0  3.746555  0  0  -0.021479  0  4.026674  0  0  -0.021406  0  4.045422  0  0  0.004189  -0.021215  0  4.012815  0
C  C37  1  0.18083002  0.02684563  0.61811433  1  0  -0.018943  0  3.746635  0  0  -0.021379  0  4.026749  0  0  -0.021309  0  4.045488  0  0  0.004258  -0.021115  0  4.012858  0
C  C38  1  0.31918353  0.97315475  0.11811428  1  0  -0.018879  0  3.746615  0  0  -0.02138  0  4.026793  0  0  -0.021312  0  4.045535  0  0  0.004208  -0.021112  0  4.012947  0
C  C39  1  0.68082858  0.97315475  0.88188571  1  0  -0.018968  0  3.746498  0  0  -0.021417  0  4.026636  0  0  -0.021342  0  4.045384  0  0  0.004244  -0.021178  0  4.012758  0
C  C40  1  0.82094958  0.88645232  0.38359069  1  0  -0.014138  0  3.756819  0  0  -0.017002  0  4.036995  0  0  -0.016138  0  4.055692  0  0  0.006836  -0.01725  0  4.023193  0
C  C41  1  0.17905817  0.88646059  0.61641023  1  0  -0.014184  0  3.756878  0  0  -0.017024  0  4.036969  0  0  -0.01613  0  4.055636  0  0  0.006893  -0.017269  0  4.023131  0
C  C42  1  0.32094778  0.11354280  0.11640903  1  0  -0.014328  0  3.756969  0  0  -0.01713  0  4.037037  0  0  -0.016238  0  4.055706  0  0  0.006853  -0.01738  0  4.023259  0
C  C43  1  0.67905728  0.11354896  0.88359146  1  0  -0.01429  0  3.756773  0  0  -0.017127  0  4.036948  0  0  -0.016267  0  4.055651  0  0  0.006832  -0.017364  0  4.023091  0
C  C44  1  0.71465020  0.81687848  0.58365469  1  0  0.300699  0  3.747699  0  0  0.284231  0  4.028727  0  0  0.294719  0  4.046523  0  0  0.185528  0.276704  0  4.018691  0
C  C45  1  0.28535193  0.81686028  0.41634950  1  0  0.300682  0  3.747943  0  0  0.284213  0  4.029002  0  0  0.294706  0  4.046795  0  0  0.185593  0.276675  0  4.01894  0
C  C46  1  0.21465365  0.18312316  0.91634812  1  0  0.300755  0  3.747764  0  0  0.284265  0  4.028826  0  0  0.294758  0  4.046619  0  0  0.185494  0.27673  0  4.018799  0
C  C47  1  0.78534031  0.18313459  0.08365736  1  0  0.300573  0  3.747639  0  0  0.284112  0  4.028691  0  0  0.294603  0  4.046483  0  0  0.185393  0.276569  0  4.018605  0
C  C48  1  0.71800098  0.10905145  0.58021377  1  0  0.306302  0  3.753163  0  0  0.289744  0  4.031632  0  0  0.300598  0  4.049453  0  0  0.186844  0.281926  0  4.021563  0
C  C49  1  0.28199642  0.10904457  0.41978008  1  0  0.30636  0  3.753946  0  0  0.289792  0  4.032393  0  0  0.300642  0  4.050218  0  0  0.186838  0.281971  0  4.0223  0
C  C50  1  0.21801526  0.89093999  0.91977858  1  0  0.306415  0  3.753828  0  0  0.289834  0  4.03228  0  0  0.300683  0  4.050107  0  0  0.186924  0.282027  0  4.022231  0
C  C51  1  0.78198192  0.89096152  0.08021907  1  0  0.306264  0  3.753145  0  0  0.289683  0  4.03157  0  0  0.300533  0  4.049392  0  0  0.186796  0.281859  0  4.021454  0
N  N52  1  0.66896426  0.75659666  0.63668936  1  0  -0.38702  0  2.554907  0  0  -0.367785  0  2.789143  0  0  -0.376643  0  2.800363  0  0  -0.326769  -0.363096  0  2.782746  0
N  N53  1  0.33103087  0.75658338  0.36330882  1  0  -0.386991  0  2.554729  0  0  -0.367733  0  2.788934  0  0  -0.376595  0  2.800154  0  0  -0.326809  -0.36303  0  2.782523  0
N  N54  1  0.16895779  0.24340159  0.86330792  1  0  -0.387088  0  2.554526  0  0  -0.367845  0  2.788766  0  0  -0.376709  0  2.79999  0  0  -0.326774  -0.363146  0  2.782365  0
N  N55  1  0.83103710  0.24341487  0.13668981  1  0  -0.386881  0  2.554937  0  0  -0.367626  0  2.789128  0  0  -0.376481  0  2.80034  0  0  -0.326657  -0.362921  0  2.782708  0
N  N56  1  0.67517971  0.17596408  0.63117554  1  0  -0.404029  0  2.617668  0  0  -0.383578  0  2.865564  0  0  -0.393066  0  2.876084  0  0  -0.341202  -0.37854  0  2.859922  0
N  N57  1  0.32480958  0.17594888  0.36882162  1  0  -0.404084  0  2.618544  0  0  -0.383615  0  2.866425  0  0  -0.393107  0  2.876951  0  0  -0.341195  -0.378564  0  2.860773  0
N  N58  1  0.17519278  0.82404034  0.86882394  1  0  -0.40411  0  2.618691  0  0  -0.383659  0  2.866584  0  0  -0.39315  0  2.877106  0  0  -0.341265  -0.378612  0  2.860949  0
N  N59  1  0.82481858  0.82404218  0.13117645  1  0  -0.404047  0  2.617651  0  0  -0.38359  0  2.865561  0  0  -0.393076  0  2.876085  0  0  -0.341168  -0.37854  0  2.859902  0
Cl  Cl60  1  0.83657839  0.11284466  0.30055914  1  0  -0.011141  0  1.537633  0  0  0.001378  0  1.79532  0  0  -0.00103  0  1.790505  0  0  0.05661  0.003856  0  1.798406  0
Cl  Cl61  1  0.16341754  0.11285113  0.69943804  1  0  -0.011154  0  1.537772  0  0  0.001365  0  1.795474  0  0  -0.001044  0  1.79066  0  0  0.056607  0.003842  0  1.798561  0
Cl  Cl62  1  0.33657657  0.88714751  0.19943674  1  0  -0.011166  0  1.537762  0  0  0.001355  0  1.795486  0  0  -0.001054  0  1.790673  0  0  0.056582  0.003833  0  1.798569  0
Cl  Cl63  1  0.66342664  0.88715015  0.80055704  1  0  -0.011151  0  1.537646  0  0  0.001377  0  1.795335  0  0  -0.001031  0  1.79052  0  0  0.056624  0.003869  0  1.798432  0
Cl  Cl64  1  0.84317592  0.79473632  0.30466543  1  0  -0.019654  0  1.570927  0  0  -0.004749  0  1.83291  0  0  -0.007822  0  1.828279  0  0  0.056172  -0.001609  0  1.835704  0
Cl  Cl65  1  0.15682892  0.79474672  0.69533912  1  0  -0.019724  0  1.570706  0  0  -0.004839  0  1.832693  0  0  -0.00792  0  1.828048  0  0  0.056106  -0.0017  0  1.83549  0
Cl  Cl66  1  0.34317582  0.20525282  0.19533815  1  0  -0.019631  0  1.57082  0  0  -0.004761  0  1.832795  0  0  -0.007844  0  1.828151  0  0  0.056135  -0.001622  0  1.835589  0
Cl  Cl67  1  0.65683977  0.20526064  0.80466311  1  0  -0.019644  0  1.570867  0  0  -0.00474  0  1.832851  0  0  -0.007813  0  1.828221  0  0  0.056144  -0.001601  0  1.835643  0
O  O68  1  0.79951592  0.67985031  0.45246704  1  0  -0.51136  0  2.020956  0  0  -0.465582  0  2.242974  0  0  -0.485163  0  2.241605  0  0  -0.312242  -0.451608  0  2.243271  0
O  O69  1  0.20049172  0.67984858  0.54753819  1  0  -0.511508  0  2.020828  0  0  -0.465701  0  2.242811  0  0  -0.485273  0  2.241454  0  0  -0.31237  -0.451743  0  2.243113  0
O  O70  1  0.29951397  0.32014977  0.04753762  1  0  -0.511406  0  2.020918  0  0  -0.465622  0  2.242927  0  0  -0.485203  0  2.241573  0  0  -0.312315  -0.451638  0  2.243238  0
O  O71  1  0.70048361  0.32015092  0.95246625  1  0  -0.511376  0  2.021284  0  0  -0.465561  0  2.243315  0  0  -0.485131  0  2.241938  0  0  -0.312274  -0.451614  0  2.24361  0
O  O72  1  0.79985757  0.23734311  0.44791847  1  0  -0.513324  0  2.00829  0  0  -0.468524  0  2.233026  0  0  -0.487885  0  2.231437  0  0  -0.31836  -0.45447  0  2.233352  0
O  O73  1  0.20013570  0.23734253  0.55207811  1  0  -0.513497  0  2.008085  0  0  -0.468619  0  2.232874  0  0  -0.487987  0  2.231287  0  0  -0.318393  -0.454569  0  2.233186  0
O  O74  1  0.29986392  0.76265186  0.05207354  1  0  -0.513359  0  2.00835  0  0  -0.468473  0  2.233063  0  0  -0.487845  0  2.231477  0  0  -0.318295  -0.454403  0  2.233394  0
O  O75  1  0.70013890  0.76266105  0.94791919  1  0  -0.513339  0  2.008232  0  0  -0.468508  0  2.232984  0  0  -0.487869  0  2.231393  0  0  -0.318292  -0.454474  0  2.2333  0
O  O76  1  0.22654596  0.46085721  0.45149031  1  0  -0.866406  0  1.852801  0  0  -0.809596  0  2.013013  0  0  -0.828432  0  1.982529  0  0  -0.642545  -0.796291  0  2.034155  0
O  O77  1  0.77344769  0.46085948  0.54850979  1  0  -0.866398  0  1.852846  0  0  -0.809569  0  2.013064  0  0  -0.828402  0  1.982583  0  0  -0.642536  -0.79625  0  2.034173  0
O  O78  1  0.72654421  0.53914236  0.04851102  1  0  -0.866428  0  1.852782  0  0  -0.80962  0  2.013016  0  0  -0.828453  0  1.982532  0  0  -0.642546  -0.796307  0  2.034153  0
O  O79  1  0.27345064  0.53913542  0.95149139  1  0  -0.866419  0  1.852822  0  0  -0.809548  0  2.013071  0  0  -0.828388  0  1.98258  0  0  -0.642552  -0.79622  0  2.034177  0
O  O80  1  0.57370718  0.57295775  0.18492636  1  0  -0.917597  0  1.813144  0  0  -0.872069  0  1.978454  0  0  -0.890045  0  1.951147  0  0  -0.738731  -0.858899  0  1.997463  0
O  O81  1  0.42628818  0.57293364  0.81507578  1  0  -0.917446  0  1.813097  0  0  -0.871886  0  1.978574  0  0  -0.88986  0  1.95127  0  0  -0.738757  -0.858717  0  1.997581  0
O  O82  1  0.07370942  0.42705914  0.31507599  1  0  -0.917407  0  1.813195  0  0  -0.871866  0  1.9786  0  0  -0.889843  0  1.951295  0  0  -0.738701  -0.858695  0  1.997606  0
O  O83  1  0.92628524  0.42706436  0.68492438  1  0  -0.917391  0  1.813139  0  0  -0.871825  0  1.978609  0  0  -0.8898  0  1.951304  0  0  -0.738727  -0.858659  0  1.997618  0
