# generated using pymatgen
data_DyH5(C3O4)2
_symmetry_space_group_name_H-M   'P 1'
_cell_length_a   6.22645427
_cell_length_b   8.63976618
_cell_length_c   8.77779746
_cell_angle_alpha   111.23883732
_cell_angle_beta   109.85196784
_cell_angle_gamma   91.45095673
_symmetry_Int_Tables_number   1
_chemical_formula_structural   DyH5(C3O4)2
_chemical_formula_sum   'Dy2 H10 C12 O16'
_cell_volume   408.00513798
_cell_formula_units_Z   2
loop_
 _symmetry_equiv_pos_site_id
 _symmetry_equiv_pos_as_xyz
  1  'x, y, z'
loop_
 _atom_site_type_symbol
 _atom_site_label
 _atom_site_symmetry_multiplicity
 _atom_site_fract_x
 _atom_site_fract_y
 _atom_site_fract_z
 _atom_site_occupancy
 _atom_site_hle17_bader_spin_density
 _atom_site_hle17_ddec_charge
 _atom_site_hle17_ddec_spin_density
 _atom_site_hle17_ddec_sum_bond_order
 _atom_site_hle17_magmom
 _atom_site_hse06_10hf_bader_spin_density
 _atom_site_hse06_10hf_ddec_charge
 _atom_site_hse06_10hf_ddec_spin_density
 _atom_site_hse06_10hf_ddec_sum_bond_order
 _atom_site_hse06_10hf_magmom
 _atom_site_hse06_bader_spin_density
 _atom_site_hse06_ddec_charge
 _atom_site_hse06_ddec_spin_density
 _atom_site_hse06_ddec_sum_bond_order
 _atom_site_hse06_magmom
 _atom_site_pbe_bader_spin_density
 _atom_site_pbe_cm5_charge
 _atom_site_pbe_ddec_charge
 _atom_site_pbe_ddec_spin_density
 _atom_site_pbe_ddec_sum_bond_order
 _atom_site_pbe_magmom
Dy  Dy0  1  0.68049746  0.64942568  0.81868949  1  0  2.31654  0  1.595159  0  0  2.24334  0  1.924372  0  0  2.289268  0  1.882306  0  0  1.526692  2.132157  0  2.099815  0
Dy  Dy1  1  0.31949427  0.35057414  0.18130782  1  0  2.316564  0  1.595027  0  0  2.243346  0  1.924232  0  0  2.289278  0  1.88216  0  0  1.526698  2.132165  0  2.099665  0
H  H2  1  0.19029396  0.71810113  0.71763548  1  0  0.448883  0  0.834022  0  0  0.422248  0  0.890477  0  0  0.431505  0  0.877057  0  0  0.31596  0.415148  0  0.900608  0
H  H3  1  0.80970454  0.28189113  0.28236423  1  0  0.448975  0  0.833858  0  0  0.422299  0  0.890413  0  0  0.431565  0  0.876986  0  0  0.315922  0.415197  0  0.900546  0
H  H4  1  0.22798855  0.64411472  0.53285217  1  0  0.438636  0  0.861643  0  0  0.405278  0  0.929791  0  0  0.416166  0  0.913896  0  0  0.299909  0.397144  0  0.941387  0
H  H5  1  0.77200970  0.35588381  0.46714512  1  0  0.438601  0  0.861709  0  0  0.405233  0  0.929877  0  0  0.416124  0  0.913976  0  0  0.299881  0.397098  0  0.941476  0
H  H6  1  0.51192516  0.66894131  0.10856112  1  0  0.444182  0  0.856669  0  0  0.413058  0  0.920398  0  0  0.42381  0  0.904695  0  0  0.303443  0.405159  0  0.931602  0
H  H7  1  0.48807333  0.33105095  0.89143858  1  0  0.444176  0  0.856675  0  0  0.413039  0  0.92041  0  0  0.42379  0  0.90471  0  0  0.303467  0.405142  0  0.931614  0
H  H8  1  0.31782803  0.72683090  0.97253539  1  0  0.445142  0  0.851227  0  0  0.417679  0  0.907588  0  0  0.428377  0  0.891976  0  0  0.307541  0.409489  0  0.919444  0
H  H9  1  0.68216504  0.27316011  0.02746258  1  0  0.445132  0  0.851234  0  0  0.417666  0  0.907595  0  0  0.428364  0  0.891984  0  0  0.307585  0.409476  0  0.919451  0
H  H10  1  0.74135930  0.03112062  0.66708730  1  0  0.113116  0  0.933149  0  0  0.124858  0  0.989915  0  0  0.12809  0  0.98887  0  0  0.115307  0.122375  0  0.991209  0
H  H11  1  0.25863976  0.96887410  0.33290543  1  0  0.113082  0  0.933127  0  0  0.124797  0  0.989928  0  0  0.128024  0  0.988891  0  0  0.115281  0.122312  0  0.99122  0
C  C12  1  0.68504178  0.71160444  0.44127644  1  0  0.731307  0  3.840674  0  0  0.683456  0  4.135469  0  0  0.718459  0  4.122942  0  0  0.243895  0.658745  0  4.13947  0
C  C13  1  0.31496280  0.28839914  0.55872642  1  0  0.73155  0  3.840497  0  0  0.683602  0  4.135481  0  0  0.718611  0  4.122948  0  0  0.243951  0.658894  0  4.13949  0
C  C14  1  0.85039188  0.85910906  0.47117366  1  0  -0.061944  0  3.70431  0  0  -0.04833  0  3.937417  0  0  -0.051914  0  3.955298  0  0  -0.003205  -0.04703  0  3.92825  0
C  C15  1  0.14961528  0.14089827  0.52882772  1  0  -0.061925  0  3.704158  0  0  -0.048408  0  3.937353  0  0  -0.052  0  3.955231  0  0  -0.003177  -0.047113  0  3.928194  0
C  C16  1  0.85727859  0.01812156  0.59539217  1  0  -0.078165  0  3.683377  0  0  -0.11125  0  3.934331  0  0  -0.111716  0  3.952104  0  0  -0.072697  -0.111288  0  3.923942  0
C  C17  1  0.14271774  0.98188327  0.40460573  1  0  -0.078148  0  3.683158  0  0  -0.111127  0  3.934183  0  0  -0.111591  0  3.951959  0  0  -0.072679  -0.111162  0  3.923786  0
C  C18  1  0.99503268  0.84048171  0.37472952  1  0  -0.053719  0  3.69416  0  0  -0.041913  0  3.929633  0  0  -0.044314  0  3.946945  0  0  0.002615  -0.041178  0  3.920437  0
C  C19  1  0.00495560  0.15951805  0.62525783  1  0  -0.053819  0  3.6941  0  0  -0.04179  0  3.929386  0  0  -0.044197  0  3.946684  0  0  0.002619  -0.041061  0  3.920202  0
C  C20  1  0.00284737  0.67144831  0.24318326  1  0  0.740806  0  3.823067  0  0  0.692532  0  4.120405  0  0  0.727592  0  4.10786  0  0  0.248342  0.667608  0  4.125141  0
C  C21  1  0.99715067  0.32855653  0.75681619  1  0  0.740833  0  3.822812  0  0  0.692477  0  4.120212  0  0  0.727571  0  4.107617  0  0  0.248296  0.667558  0  4.124948  0
C  C22  1  0.89359649  0.03930146  0.01009015  1  0  0.553781  0  3.937042  0  0  0.504795  0  4.251595  0  0  0.533624  0  4.243255  0  0  0.220938  0.485677  0  4.248555  0
C  C23  1  0.10642554  0.96071092  0.98992227  1  0  0.554015  0  3.936903  0  0  0.50496  0  4.251517  0  0  0.533799  0  4.243164  0  0  0.220943  0.485841  0  4.248481  0
O  O24  1  0.55358199  0.62044261  0.28251345  1  0  -0.723724  0  2.086295  0  0  -0.67207  0  2.323733  0  0  -0.698055  0  2.312116  0  0  -0.359581  -0.64426  0  2.333445  0
O  O25  1  0.44642407  0.37956727  0.71749197  1  0  -0.723839  0  2.086256  0  0  -0.672148  0  2.323766  0  0  -0.698129  0  2.312135  0  0  -0.359651  -0.644341  0  2.333491  0
O  O26  1  0.68242370  0.68383909  0.57215488  1  0  -0.738424  0  2.089596  0  0  -0.703627  0  2.359444  0  0  -0.727575  0  2.345809  0  0  -0.392547  -0.673079  0  2.368909  0
O  O27  1  0.31757148  0.31616078  0.42785126  1  0  -0.73849  0  2.08955  0  0  -0.703643  0  2.359438  0  0  -0.727563  0  2.345739  0  0  -0.392514  -0.673091  0  2.368897  0
O  O28  1  0.30526838  0.68690569  0.66344875  1  0  -0.91391  0  1.879852  0  0  -0.873472  0  2.07198  0  0  -0.89204  0  2.041181  0  0  -0.647022  -0.850541  0  2.100022  0
O  O29  1  0.69472700  0.31308784  0.33655065  1  0  -0.913962  0  1.879707  0  0  -0.873488  0  2.071848  0  0  -0.892071  0  2.041034  0  0  -0.646946  -0.850556  0  2.099888  0
O  O30  1  0.46950473  0.68791549  0.99769625  1  0  -0.932261  0  1.890955  0  0  -0.892887  0  2.091327  0  0  -0.911992  0  2.058876  0  0  -0.671611  -0.868962  0  2.11992  0
O  O31  1  0.53048723  0.31207804  0.00230119  1  0  -0.932251  0  1.890991  0  0  -0.892844  0  2.091406  0  0  -0.911954  0  2.058963  0  0  -0.671653  -0.868918  0  2.120001  0
O  O32  1  0.11115015  0.57012396  0.30479889  1  0  -0.711361  0  2.00842  0  0  -0.663937  0  2.247646  0  0  -0.689141  0  2.235043  0  0  -0.348372  -0.636662  0  2.258533  0
O  O33  1  0.88884835  0.42989727  0.69520756  1  0  -0.711366  0  2.008171  0  0  -0.663948  0  2.247465  0  0  -0.689172  0  2.234861  0  0  -0.348402  -0.636664  0  2.258334  0
O  O34  1  0.91155033  0.64354443  0.08211975  1  0  -0.714306  0  2.089508  0  0  -0.679509  0  2.356433  0  0  -0.704279  0  2.344299  0  0  -0.388409  -0.649762  0  2.366534  0
O  O35  1  0.08844420  0.35645282  0.91787163  1  0  -0.714279  0  2.089598  0  0  -0.679495  0  2.356625  0  0  -0.704282  0  2.344477  0  0  -0.388316  -0.649731  0  2.366685  0
O  O36  1  0.70253865  0.94318312  0.94043891  1  0  -0.613344  0  2.070734  0  0  -0.580929  0  2.318495  0  0  -0.601875  0  2.308729  0  0  -0.355206  -0.556805  0  2.327258  0
O  O37  1  0.29746475  0.05681545  0.05956532  1  0  -0.613261  0  2.071114  0  0  -0.580831  0  2.318911  0  0  -0.601759  0  2.309108  0  0  -0.355096  -0.55671  0  2.327675  0
O  O38  1  0.06847424  0.80084906  0.90387583  1  0  -0.691503  0  2.152462  0  0  -0.63959  0  2.386299  0  0  -0.664283  0  2.377845  0  0  -0.346106  -0.614218  0  2.393166  0
O  O39  1  0.93154132  0.19914317  0.09612796  1  0  -0.691321  0  2.152942  0  0  -0.639425  0  2.386779  0  0  -0.664118  0  2.378333  0  0  -0.346097  -0.614054  0  2.393643  0
