# generated using pymatgen
data_Mn3H8C32(N3O8)2
_symmetry_space_group_name_H-M   'P 1'
_cell_length_a   9.40877288
_cell_length_b   17.61638215
_cell_length_c   18.27705020
_cell_angle_alpha   97.12202649
_cell_angle_beta   90.01085901
_cell_angle_gamma   105.50426233
_symmetry_Int_Tables_number   1
_chemical_formula_structural   Mn3H8C32(N3O8)2
_chemical_formula_sum   'Mn6 H16 C64 N12 O32'
_cell_volume   2894.87276693
_cell_formula_units_Z   2
loop_
 _symmetry_equiv_pos_site_id
 _symmetry_equiv_pos_as_xyz
  1  'x, y, z'
loop_
 _atom_site_type_symbol
 _atom_site_label
 _atom_site_symmetry_multiplicity
 _atom_site_fract_x
 _atom_site_fract_y
 _atom_site_fract_z
 _atom_site_occupancy
 _atom_site_pbe_bader_charge
 _atom_site_pbe_bader_spin_density
 _atom_site_pbe_cm5_charge
 _atom_site_pbe_ddec_charge
 _atom_site_pbe_ddec_spin_density
 _atom_site_pbe_ddec_sum_bond_order
 _atom_site_pbe_magmom
Mn  Mn0  1  0.16634992  0.71278638  0.53269785  1  1.680291  3.933813  0.768187  1.137554  4.418723  2.608443  3.896
Mn  Mn1  1  0.45346710  0.28711386  0.96730085  1  1.681237  3.931138  0.768431  1.137755  4.410304  2.610183  3.894
Mn  Mn2  1  0.83382766  0.28697446  0.46717999  1  1.681796  3.931199  0.768696  1.137534  4.415134  2.611421  3.894
Mn  Mn3  1  0.54686424  0.71313072  0.03269711  1  1.682044  3.929188  0.768516  1.136845  4.408707  2.612816  3.892
Mn  Mn4  1  0.99996865  0.49986470  0.49995767  1  1.69426  4.118894  0.727692  1.194679  4.629453  2.583925  4.093
Mn  Mn5  1  0.49986500  0.50009858  0.99999094  1  1.694654  4.119035  0.727911  1.194779  4.629321  2.584281  4.093
H  H6  1  0.48194569  0.88180958  0.40468164  1  0.174179  0.005296  0.136008  0.152433  0.00439  0.950091  0.002
H  H7  1  0.59928441  0.11815350  0.09560437  1  0.14591  0.005445  0.135626  0.150887  0.004391  0.951768  0.002
H  H8  1  0.51827003  0.11804665  0.59524697  1  0.157114  0.00537  0.135927  0.151907  0.004383  0.951615  0.002
H  H9  1  0.40063064  0.88203641  0.90465758  1  0.150264  0.005431  0.135892  0.151558  0.004395  0.95114  0.002
H  H10  1  0.29437307  0.50390656  0.41475509  1  0.161006  -0.00294  0.122856  0.135404  -0.003203  1.009188  -0.002
H  H11  1  0.79021375  0.49604023  0.08516353  1  0.159052  -0.002926  0.122744  0.134827  -0.00321  1.009745  -0.002
H  H12  1  0.70566085  0.49579016  0.58519953  1  0.166312  -0.002916  0.122546  0.134629  -0.003182  1.010541  -0.002
H  H13  1  0.20994820  0.50441386  0.91497497  1  0.158721  -0.002905  0.122659  0.134998  -0.003186  1.009821  -0.002
H  H14  1  0.74147075  0.49835207  0.34028546  1  0.097663  0.010572  0.118764  0.130116  0.007169  0.988787  0.003
H  H15  1  0.24388689  0.50170844  0.15966051  1  0.174595  0.009201  0.11883  0.130499  0.00717  0.988907  0.003
H  H16  1  0.25794006  0.50161605  0.65970252  1  0.145438  0.009724  0.118775  0.130189  0.007177  0.988347  0.003
H  H17  1  0.75565043  0.49831502  0.84032126  1  0.144125  0.009687  0.119001  0.131087  0.007145  0.988289  0.003
H  H18  1  0.80800894  0.74716870  0.22212479  1  0.153116  0.022238  0.133338  0.157926  0.013713  0.947474  0.017
H  H19  1  0.06073487  0.25296978  0.27785532  1  0.161415  0.022174  0.133456  0.158204  0.013731  0.947484  0.017
H  H20  1  0.19250669  0.25285787  0.77785139  1  0.153802  0.022244  0.133406  0.15804  0.013712  0.947168  0.017
H  H21  1  0.93938781  0.74686835  0.72192986  1  0.162229  0.022148  0.133535  0.158439  0.013713  0.947814  0.017
C  C22  1  0.41157403  0.92203251  0.50924045  1  -0.02557  0.046188  0.009666  -0.071736  0.037091  3.90399  0.042
C  C23  1  0.48926027  0.07794794  0.99088793  1  -0.015821  0.046294  0.009299  -0.072616  0.037289  3.904609  0.042
C  C24  1  0.58860082  0.07780997  0.49069957  1  0.058569  0.045593  0.009801  -0.070513  0.037026  3.904763  0.042
C  C25  1  0.51068422  0.92224133  0.00938324  1  0.057993  0.046022  0.009335  -0.072271  0.037351  3.903828  0.042
C  C26  1  0.41845899  0.98991705  0.56685098  1  0.657163  -0.03591  0.129171  0.205344  -0.025927  4.10223  -0.046
C  C27  1  0.42855390  0.01010521  0.93320584  1  0.645325  -0.035883  0.129401  0.206369  -0.025952  4.099769  -0.046
C  C28  1  0.58178834  0.00994071  0.43311722  1  0.656588  -0.035901  0.128956  0.204825  -0.025908  4.102195  -0.046
C  C29  1  0.57128908  0.99008084  0.06710049  1  0.656583  -0.036085  0.128937  0.206393  -0.025878  4.099356  -0.046
C  C30  1  0.48849950  0.93224718  0.44693895  1  0.007528  0.071682  -0.027798  -0.085935  0.064217  3.794591  0.058
C  C31  1  0.55569183  0.06775645  0.05328264  1  0.037773  0.071435  -0.027419  -0.084369  0.06422  3.794509  0.058
C  C32  1  0.51168276  0.06761014  0.55300511  1  -0.05546  0.072038  -0.027804  -0.085935  0.064247  3.796657  0.058
C  C33  1  0.44420389  0.93243095  0.94700033  1  -0.049695  0.071954  -0.027981  -0.085721  0.064262  3.794678  0.058
C  C34  1  0.31857809  0.84233440  0.51943510  1  1.50944  0.023586  0.225064  0.559645  0.026748  4.120205  0.02
C  C35  1  0.47595353  0.15758279  0.98067029  1  1.509847  0.023705  0.225281  0.560462  0.026864  4.120222  0.021
C  C36  1  0.68158522  0.15747652  0.48051193  1  1.507587  0.023625  0.224719  0.558555  0.026786  4.121865  0.021
C  C37  1  0.52423092  0.84260604  0.01948812  1  1.515543  0.023718  0.225637  0.560098  0.026918  4.118561  0.021
C  C38  1  0.41573466  0.55642285  0.51446868  1  -0.002173  -0.053343  0.004997  -0.074009  -0.053995  3.895326  -0.049
C  C39  1  0.85925754  0.44359946  0.98549927  1  0.046841  -0.053176  0.004704  -0.07465  -0.054035  3.896493  -0.049
C  C40  1  0.58431091  0.44325255  0.48547343  1  -0.004861  -0.053319  0.005055  -0.074978  -0.053968  3.895136  -0.049
C  C41  1  0.14093673  0.55686400  0.01466065  1  0.033495  -0.053312  0.004686  -0.074385  -0.05406  3.897471  -0.049
C  C42  1  0.53780489  0.55735251  0.56560983  1  0.653532  0.035372  0.123975  0.210867  0.013141  4.098864  0.044
C  C43  1  0.98049156  0.44271956  0.93445113  1  0.680416  0.035308  0.12453  0.212286  0.013144  4.100276  0.044
C  C44  1  0.46221901  0.44231568  0.43434341  1  0.654223  0.035315  0.125353  0.212983  0.013187  4.098495  0.044
C  C45  1  0.01970788  0.55772237  0.06573017  1  0.652162  0.035596  0.124316  0.211414  0.013134  4.101335  0.044
C  C46  1  0.38342916  0.50326218  0.45259719  1  -0.02202  -0.046384  -0.040589  -0.09232  -0.050837  3.803722  -0.043
C  C47  1  0.88001208  0.49671232  0.04739409  1  -0.072492  -0.046767  -0.040371  -0.091252  -0.050873  3.804384  -0.043
C  C48  1  0.61660925  0.49641376  0.54735320  1  -0.023132  -0.04635  -0.040157  -0.090563  -0.05076  3.803004  -0.043
C  C49  1  0.12017402  0.50373692  0.95276022  1  -0.057072  -0.046654  -0.040068  -0.091272  -0.050907  3.804473  -0.043
C  C50  1  0.32779420  0.61440857  0.53152351  1  1.537508  0.014606  0.224899  0.579764  0.016449  4.137579  0.013
C  C51  1  0.71330192  0.38554044  0.96837679  1  1.522883  0.014659  0.224894  0.57878  0.016406  4.142078  0.013
C  C52  1  0.67223830  0.38527261  0.46835421  1  1.523313  0.014604  0.224604  0.579671  0.016446  4.139484  0.013
C  C53  1  0.28689516  0.61490310  0.03183043  1  1.509992  0.014599  0.223536  0.577128  0.016348  4.143149  0.013
C  C54  1  0.70646109  0.62115129  0.21097334  1  -0.016531  0.246347  0.011352  -0.064941  0.205897  3.830509  0.169
C  C55  1  0.08564366  0.37901917  0.28898276  1  -0.018628  0.246592  0.011505  -0.065162  0.206062  3.830401  0.169
C  C56  1  0.29348699  0.37892204  0.78902453  1  -0.018288  0.246348  0.011084  -0.065488  0.205872  3.830826  0.169
C  C57  1  0.91411070  0.62079226  0.71087895  1  -0.020443  0.246634  0.012088  -0.063141  0.206071  3.828074  0.169
C  C58  1  0.68546760  0.54822977  0.24430740  1  0.599418  -0.076624  0.103898  0.172339  -0.066592  4.097341  -0.09
C  C59  1  0.13785472  0.45193623  0.25564679  1  0.554756  -0.075664  0.103366  0.172229  -0.066653  4.096849  -0.09
C  C60  1  0.31412805  0.45183803  0.75571220  1  0.558301  -0.075374  0.103523  0.171888  -0.066661  4.096701  -0.09
C  C61  1  0.86169664  0.54791768  0.74426235  1  0.553176  -0.075507  0.102998  0.172089  -0.066646  4.097063  -0.09
C  C62  1  0.75524449  0.55282202  0.31542023  1  -0.005122  0.289885  -0.044346  -0.091281  0.251531  3.772241  0.192
C  C63  1  0.20300592  0.44725638  0.18453827  1  -0.078447  0.291098  -0.044409  -0.092507  0.251783  3.77223  0.192
C  C64  1  0.24437931  0.44714909  0.68456759  1  -0.007466  0.289454  -0.044393  -0.091307  0.251506  3.771484  0.192
C  C65  1  0.79661373  0.55271281  0.81537927  1  -0.067135  0.291205  -0.044175  -0.092691  0.251813  3.772643  0.192
C  C66  1  0.84110773  0.62460777  0.35123626  1  0.017553  -0.027125  -0.005545  -0.070786  -0.044829  4.020697  -0.032
C  C67  1  0.21679365  0.37541181  0.14876196  1  0.057882  -0.027737  -0.005533  -0.070546  -0.044792  4.020569  -0.032
C  C68  1  0.15881942  0.37528984  0.64872323  1  0.015915  -0.026969  -0.005056  -0.069801  -0.044784  4.019693  -0.032
C  C69  1  0.78303824  0.62461413  0.85111617  1  0.074427  -0.028268  -0.005705  -0.07148  -0.044711  4.021483  -0.032
C  C70  1  0.85552612  0.69145653  0.31544709  1  -0.056187  1.070914  0.037492  0.083861  0.941973  3.206305  0.612
C  C71  1  0.16415093  0.30860894  0.18456011  1  -0.04669  1.06987  0.037301  0.083372  0.941552  3.208028  0.612
C  C72  1  0.14469786  0.30848205  0.68452520  1  -0.004725  1.067922  0.037106  0.083181  0.941929  3.206912  0.612
C  C73  1  0.83585348  0.69138155  0.81528625  1  -0.043661  1.070126  0.03772  0.084963  0.941562  3.207129  0.612
C  C74  1  0.79231295  0.69299459  0.24790728  1  0.05935  -0.020168  -0.061256  -0.119111  -0.030454  3.991986  -0.027
C  C75  1  0.09938204  0.30712315  0.25206414  1  0.033417  -0.019562  -0.061403  -0.118985  -0.030468  3.992415  -0.027
C  C76  1  0.20792211  0.30701288  0.75207526  1  0.007141  -0.017475  -0.061139  -0.118887  -0.030462  3.991824  -0.027
C  C77  1  0.90058845  0.69274856  0.74776517  1  0.033772  -0.019686  -0.062124  -0.121334  -0.030424  3.992394  -0.027
C  C78  1  0.63762342  0.61785558  0.13730827  1  1.536541  0.041849  0.251133  0.611155  0.037618  4.118486  0.026
C  C79  1  0.02007048  0.38231464  0.36262983  1  1.547508  0.041654  0.252133  0.612908  0.037542  4.119341  0.026
C  C80  1  0.36235921  0.38228254  0.86269059  1  1.534358  0.041879  0.251268  0.611552  0.037635  4.117907  0.026
C  C81  1  0.97974590  0.61742957  0.63724154  1  1.550751  0.041572  0.250799  0.610508  0.037507  4.120313  0.026
C  C82  1  0.91894214  0.62742990  0.42326949  1  1.611965  0.034471  0.252016  0.639393  0.034985  4.106919  0.035
C  C83  1  0.29161511  0.37242913  0.07671650  1  1.600893  0.034566  0.253381  0.641793  0.035007  4.100461  0.035
C  C84  1  0.08106546  0.37236934  0.57664379  1  1.61238  0.034508  0.251798  0.638509  0.035064  4.10546  0.035
C  C85  1  0.70830940  0.62773096  0.92319318  1  1.599414  0.034579  0.253281  0.641517  0.034992  4.102114  0.035
N  N86  1  0.34937137  0.98519917  0.62712184  1  -0.723504  0.888196  -0.192078  -0.196178  0.738998  2.054065  0.628
N  N87  1  0.36448456  0.01487335  0.87284948  1  -0.721877  0.890319  -0.192871  -0.197557  0.740667  2.05318  0.63
N  N88  1  0.65097507  0.01466973  0.37287074  1  -0.723452  0.888156  -0.191957  -0.196167  0.738789  2.054574  0.628
N  N89  1  0.63521682  0.98528459  0.12748123  1  -0.72378  0.890413  -0.192716  -0.197748  0.740557  2.0529  0.63
N  N90  1  0.57967266  0.60779056  0.62331683  1  -0.745762  -0.853851  -0.205248  -0.221532  -0.828656  2.102952  -0.608
N  N91  1  0.97209415  0.39225493  0.87679865  1  -0.773175  -0.854129  -0.205502  -0.222104  -0.829174  2.104014  -0.608
N  N92  1  0.42025054  0.39185905  0.37665981  1  -0.749523  -0.853813  -0.206405  -0.223104  -0.828804  2.103325  -0.608
N  N93  1  0.02815023  0.60818333  0.12339915  1  -0.743254  -0.854286  -0.205189  -0.221572  -0.829254  2.103882  -0.608
N  N94  1  0.60642166  0.47790232  0.21354520  1  -0.663712  1.347255  -0.187872  -0.190093  1.122727  1.954453  0.95
N  N95  1  0.12929591  0.52228852  0.28639400  1  -0.654719  1.347643  -0.187565  -0.189671  1.123162  1.95422  0.951
N  N96  1  0.39287830  0.52223302  0.78650526  1  -0.665076  1.347553  -0.187553  -0.189714  1.123274  1.953306  0.951
N  N97  1  0.87004199  0.47752111  0.71355611  1  -0.658122  1.347453  -0.187844  -0.190145  1.122813  1.954239  0.95
O  O98  1  0.23637352  0.83113221  0.57515715  1  -1.068084  0.041429  -0.262095  -0.448987  0.029558  2.13273  0.009
O  O99  1  0.40463725  0.16876948  0.92505168  1  -1.076021  0.042694  -0.262228  -0.449627  0.030657  2.133951  0.01
O  O100  1  0.76399140  0.16866104  0.42486099  1  -1.067923  0.041209  -0.261623  -0.448339  0.029288  2.1338  0.009
O  O101  1  0.59580886  0.83141342  0.07501736  1  -1.077523  0.04253  -0.262058  -0.448847  0.030356  2.133566  0.01
O  O102  1  0.31597014  0.78114169  0.47200387  1  -1.092614  0.000457  -0.281153  -0.473162  -0.01178  2.121262  -0.022
O  O103  1  0.53489981  0.21886480  0.02796443  1  -1.085666  -0.000864  -0.281142  -0.473031  -0.013023  2.121506  -0.023
O  O104  1  0.68406994  0.21871613  0.52786037  1  -1.089698  0.000221  -0.28093  -0.472612  -0.01197  2.121758  -0.022
O  O105  1  0.46522617  0.78136227  0.97216320  1  -1.088672  -0.000846  -0.281049  -0.472445  -0.01303  2.121028  -0.023
O  O106  1  0.20138447  0.60107866  0.49492117  1  -1.173363  0.092247  -0.301445  -0.587436  0.077383  2.358975  0.045
O  O107  1  0.60017938  0.39880253  0.00496691  1  -1.169355  0.091534  -0.300522  -0.585923  0.076713  2.360445  0.044
O  O108  1  0.79864725  0.39854783  0.50495519  1  -1.173295  0.09181  -0.301117  -0.586668  0.077054  2.360094  0.045
O  O109  1  0.39997749  0.60160741  0.99519617  1  -1.170154  0.091283  -0.300211  -0.585298  0.076563  2.360399  0.044
O  O110  1  0.37044745  0.67501035  0.57795248  1  -1.115276  0.035887  -0.259792  -0.470179  0.025197  2.106127  0.022
O  O111  1  0.69536350  0.32496336  0.92192738  1  -1.103899  0.03585  -0.259644  -0.469643  0.025244  2.106482  0.022
O  O112  1  0.62962100  0.32471934  0.42186948  1  -1.104329  0.035834  -0.259382  -0.469838  0.025197  2.107014  0.022
O  O113  1  0.30492845  0.67544672  0.07830685  1  -1.090973  0.035762  -0.258852  -0.46858  0.025176  2.106751  0.022
O  O114  1  0.00885644  0.69262022  0.44925036  1  -1.152891  0.091586  -0.284388  -0.524304  0.075013  2.279577  0.051
O  O115  1  0.31611277  0.30720126  0.05080015  1  -1.149634  0.091992  -0.284888  -0.525167  0.075357  2.274523  0.051
O  O116  1  0.99122670  0.30714728  0.55069944  1  -1.154048  0.092043  -0.283773  -0.523383  0.075252  2.277549  0.051
O  O117  1  0.68403885  0.69302191  0.94910430  1  -1.150609  0.09229  -0.284486  -0.524604  0.075552  2.275021  0.051
O  O118  1  0.88809037  0.56319554  0.45293779  1  -1.175881  0.054893  -0.303124  -0.565608  0.040029  2.384909  0.019
O  O119  1  0.32501073  0.43660500  0.04694251  1  -1.177148  0.055233  -0.304101  -0.567046  0.040339  2.385891  0.02
O  O120  1  0.11192331  0.43656489  0.54690935  1  -1.175937  0.054942  -0.303626  -0.565879  0.040127  2.38551  0.02
O  O121  1  0.67476194  0.56359573  0.95302368  1  -1.174692  0.055231  -0.304458  -0.567395  0.04036  2.38661  0.02
O  O122  1  0.64443391  0.68437418  0.11363065  1  -1.122221  0.057096  -0.286798  -0.504808  0.037839  2.335857  0.016
O  O123  1  0.96008897  0.31578939  0.38625215  1  -1.12381  0.057361  -0.287503  -0.505846  0.038034  2.337202  0.016
O  O124  1  0.35582676  0.31578435  0.88634178  1  -1.120941  0.057164  -0.286586  -0.504817  0.037888  2.335247  0.016
O  O125  1  0.03988280  0.68393824  0.61361004  1  -1.121144  0.057187  -0.287026  -0.505367  0.037958  2.336789  0.016
O  O126  1  0.57716081  0.54951329  0.10332510  1  -1.142856  0.102592  -0.27374  -0.521187  0.086109  2.423635  0.061
O  O127  1  0.02815276  0.45066869  0.39661489  1  -1.141651  0.102405  -0.273934  -0.521904  0.085956  2.424374  0.061
O  O128  1  0.42258158  0.45065450  0.89667746  1  -1.141299  0.102567  -0.273878  -0.521681  0.086111  2.423991  0.061
O  O129  1  0.97162115  0.54906709  0.60327183  1  -1.143261  0.102233  -0.273232  -0.520957  0.085846  2.424259  0.06
