# generated using pymatgen
data_NaHoH12(CO)12
_symmetry_space_group_name_H-M   'P 1'
_cell_length_a   6.83786779
_cell_length_b   7.45181188
_cell_length_c   15.60521379
_cell_angle_alpha   89.99987478
_cell_angle_beta   102.66147988
_cell_angle_gamma   90.00000003
_symmetry_Int_Tables_number   1
_chemical_formula_structural   NaHoH12(CO)12
_chemical_formula_sum   'Na2 Ho2 H24 C24 O24'
_cell_volume   775.81943412
_cell_formula_units_Z   2
loop_
 _symmetry_equiv_pos_site_id
 _symmetry_equiv_pos_as_xyz
  1  'x, y, z'
loop_
 _atom_site_type_symbol
 _atom_site_label
 _atom_site_symmetry_multiplicity
 _atom_site_fract_x
 _atom_site_fract_y
 _atom_site_fract_z
 _atom_site_occupancy
 _atom_site_hle17_bader_spin_density
 _atom_site_hle17_ddec_charge
 _atom_site_hle17_ddec_spin_density
 _atom_site_hle17_ddec_sum_bond_order
 _atom_site_hle17_magmom
 _atom_site_hse06_10hf_bader_spin_density
 _atom_site_hse06_10hf_ddec_charge
 _atom_site_hse06_10hf_ddec_spin_density
 _atom_site_hse06_10hf_ddec_sum_bond_order
 _atom_site_hse06_10hf_magmom
 _atom_site_hse06_bader_spin_density
 _atom_site_hse06_ddec_charge
 _atom_site_hse06_ddec_spin_density
 _atom_site_hse06_ddec_sum_bond_order
 _atom_site_hse06_magmom
 _atom_site_pbe_bader_spin_density
 _atom_site_pbe_cm5_charge
 _atom_site_pbe_ddec_charge
 _atom_site_pbe_ddec_spin_density
 _atom_site_pbe_ddec_sum_bond_order
 _atom_site_pbe_magmom
Na  Na0  1  0.14096611  0.24990503  0.28207872  1  0  0.927024  0  0.358163  0  0  0.899353  0  0.49085  0  0  0.907671  0  0.470376  0  0  0.698103  0.892823  0  0.506015  0
Na  Na1  1  0.85903183  0.74990593  0.71791879  1  0  0.927022  0  0.358174  0  0  0.899349  0  0.490858  0  0  0.907663  0  0.470386  0  0  0.698087  0.892814  0  0.506022  0
Ho  Ho2  1  0.30414860  0.75015713  0.60832791  1  0  2.205207  0  1.7281  0  0  2.05852  0  2.217878  0  0  2.10524  0  2.178486  0  0  1.551824  2.022002  0  2.25008  0
Ho  Ho3  1  0.69584933  0.25015572  0.39167152  1  0  2.205269  0  1.727933  0  0  2.058567  0  2.217698  0  0  2.105283  0  2.178318  0  0  1.551868  2.021982  0  2.25001  0
H  H4  1  0.23702098  0.24950955  0.10361552  1  0  0.107149  0  0.956809  0  0  0.117975  0  1.01697  0  0  0.121255  0  1.014859  0  0  0.112759  0.11554  0  1.018711  0
H  H5  1  0.76297846  0.74951368  0.89638150  1  0  0.107109  0  0.956873  0  0  0.117963  0  1.017004  0  0  0.121243  0  1.014894  0  0  0.11275  0.115526  0  1.018745  0
H  H6  1  0.13384265  0.75025177  0.89627768  1  0  0.107611  0  0.955806  0  0  0.117686  0  1.016723  0  0  0.120962  0  1.014624  0  0  0.112566  0.115276  0  1.018396  0
H  H7  1  0.86616275  0.25025567  0.10372761  1  0  0.107668  0  0.955763  0  0  0.117692  0  1.016727  0  0  0.120968  0  1.014628  0  0  0.112571  0.11528  0  1.018405  0
H  H8  1  0.15509670  0.25502580  0.93973823  1  0  0.090992  0  0.96422  0  0  0.100932  0  1.026165  0  0  0.104282  0  1.023905  0  0  0.104236  0.098429  0  1.028019  0
H  H9  1  0.84491473  0.75502965  0.06026122  1  0  0.091019  0  0.964191  0  0  0.100925  0  1.026153  0  0  0.104274  0  1.023895  0  0  0.104244  0.098425  0  1.028003  0
H  H10  1  0.21546701  0.74474491  0.06015796  1  0  0.091505  0  0.964164  0  0  0.101957  0  1.025623  0  0  0.105245  0  1.023488  0  0  0.104873  0.0995  0  1.027401  0
H  H11  1  0.78454439  0.24475044  0.93984663  1  0  0.091478  0  0.964276  0  0  0.101956  0  1.025708  0  0  0.105239  0  1.023564  0  0  0.104865  0.099497  0  1.027482  0
H  H12  1  0.51422174  0.26823144  0.58390868  1  0  0.104014  0  0.921105  0  0  0.11029  0  0.979559  0  0  0.113609  0  0.976668  0  0  0.13099  0.107906  0  0.981737  0
H  H13  1  0.48577320  0.76822296  0.41608788  1  0  0.104064  0  0.921114  0  0  0.110324  0  0.979607  0  0  0.113644  0  0.976721  0  0  0.131007  0.10794  0  0.981789  0
H  H14  1  0.93023239  0.73207470  0.41604548  1  0  0.104659  0  0.920853  0  0  0.111302  0  0.979274  0  0  0.114716  0  0.97626  0  0  0.131745  0.108824  0  0.981562  0
H  H15  1  0.06975655  0.23208319  0.58395502  1  0  0.104651  0  0.920816  0  0  0.111254  0  0.979231  0  0  0.114739  0  0.97611  0  0  0.131761  0.108779  0  0.981515  0
H  H16  1  0.45686112  0.11417468  0.70020205  1  0  0.402011  0  0.890382  0  0  0.372153  0  0.965918  0  0  0.384243  0  0.952612  0  0  0.306454  0.363665  0  0.975099  0
H  H17  1  0.54313689  0.61417210  0.29979433  1  0  0.402046  0  0.89024  0  0  0.372201  0  0.965753  0  0  0.384294  0  0.952445  0  0  0.306438  0.36371  0  0.974937  0
H  H18  1  0.75651375  0.88605765  0.29980078  1  0  0.401448  0  0.891489  0  0  0.3717  0  0.966824  0  0  0.383769  0  0.953562  0  0  0.30618  0.363221  0  0.975995  0
H  H19  1  0.24349160  0.38605890  0.70019987  1  0  0.401424  0  0.891523  0  0  0.371675  0  0.966839  0  0  0.383735  0  0.9536  0  0  0.306175  0.363198  0  0.976006  0
H  H20  1  0.21303837  0.58605166  0.19574625  1  0  0.417437  0  0.887015  0  0  0.38669  0  0.951457  0  0  0.396759  0  0.936443  0  0  0.288858  0.379531  0  0.962135  0
H  H21  1  0.78695964  0.08605377  0.80425337  1  0  0.417394  0  0.887086  0  0  0.386637  0  0.951543  0  0  0.396704  0  0.936532  0  0  0.288823  0.379475  0  0.962227  0
H  H22  1  0.01738277  0.41367746  0.80417506  1  0  0.416771  0  0.887879  0  0  0.385676  0  0.952814  0  0  0.39577  0  0.937784  0  0  0.288262  0.378518  0  0.963466  0
H  H23  1  0.98261507  0.91367398  0.19582547  1  0  0.416696  0  0.887983  0  0  0.3856  0  0.952921  0  0  0.395696  0  0.937887  0  0  0.288221  0.378439  0  0.963578  0
H  H24  1  0.99073310  0.59830099  0.20838112  1  0  0.416626  0  0.871806  0  0  0.390092  0  0.929864  0  0  0.398895  0  0.916768  0  0  0.297388  0.38384  0  0.939169  0
H  H25  1  0.00926341  0.09830184  0.79161770  1  0  0.416574  0  0.871817  0  0  0.390025  0  0.929951  0  0  0.398827  0  0.916857  0  0  0.297361  0.383772  0  0.939257  0
H  H26  1  0.78241263  0.40141468  0.79156108  1  0  0.41616  0  0.872431  0  0  0.389992  0  0.930065  0  0  0.398784  0  0.916969  0  0  0.296953  0.383746  0  0.939373  0
H  H27  1  0.21758822  0.90141788  0.20843847  1  0  0.416122  0  0.872497  0  0  0.389943  0  0.930139  0  0  0.398737  0  0.91704  0  0  0.296921  0.383699  0  0.939441  0
C  C28  1  0.55642490  0.24987856  0.11323955  1  0  -0.055049  0  3.736181  0  0  -0.033554  0  3.969051  0  0  -0.041193  0  3.992093  0  0  -0.009439  -0.028621  0  3.953538  0
C  C29  1  0.44357752  0.74987738  0.88676096  1  0  -0.05506  0  3.736188  0  0  -0.033594  0  3.969106  0  0  -0.041232  0  3.992145  0  0  -0.009432  -0.028657  0  3.953585  0
C  C30  1  0.60530638  0.25000583  0.21077413  1  0  0.671786  0  3.885407  0  0  0.628323  0  4.170571  0  0  0.662223  0  4.162201  0  0  0.20446  0.605441  0  4.175227  0
C  C31  1  0.39469304  0.75000911  0.78922609  1  0  0.671703  0  3.885245  0  0  0.628268  0  4.170369  0  0  0.662168  0  4.162  0  0  0.204434  0.605388  0  4.175024  0
C  C32  1  0.35574168  0.25056709  0.06718458  1  0  -0.054476  0  3.697875  0  0  -0.079057  0  3.943423  0  0  -0.079571  0  3.964192  0  0  -0.072659  -0.078552  0  3.929325  0
C  C33  1  0.64426524  0.75056435  0.93281508  1  0  -0.054358  0  3.697938  0  0  -0.07895  0  3.943445  0  0  -0.079463  0  3.964212  0  0  -0.072645  -0.078443  0  3.929344  0
C  C34  1  0.28894651  0.74922643  0.93278492  1  0  -0.05661  0  3.698826  0  0  -0.08053  0  3.944555  0  0  -0.081082  0  3.965366  0  0  -0.074227  -0.079999  0  3.930443  0
C  C35  1  0.71106040  0.24922916  0.06721859  1  0  -0.056763  0  3.698868  0  0  -0.080627  0  3.944588  0  0  -0.081179  0  3.965398  0  0  -0.074329  -0.080097  0  3.930477  0
C  C36  1  0.46465613  0.24990895  0.92954769  1  0  -0.064133  0  3.755862  0  0  -0.0459  0  3.997359  0  0  -0.052562  0  4.021424  0  0  -0.011888  -0.041481  0  3.980962  0
C  C37  1  0.53535679  0.74991544  0.07045320  1  0  -0.064222  0  3.755681  0  0  -0.045954  0  3.997133  0  0  -0.052621  0  4.021197  0  0  -0.011914  -0.041537  0  3.980741  0
C  C38  1  0.31053344  0.25281686  0.97591117  1  0  -0.064733  0  3.725901  0  0  -0.085811  0  3.972641  0  0  -0.087773  0  3.994293  0  0  -0.078368  -0.084356  0  3.957938  0
C  C39  1  0.68947798  0.75281819  0.02408828  1  0  -0.064879  0  3.725815  0  0  -0.085923  0  3.972555  0  0  -0.08788  0  3.994203  0  0  -0.078421  -0.084471  0  3.957852  0
C  C40  1  0.33484307  0.74701692  0.02405131  1  0  -0.064024  0  3.725749  0  0  -0.085669  0  3.972631  0  0  -0.087633  0  3.994384  0  0  -0.077721  -0.084233  0  3.957881  0
C  C41  1  0.66516534  0.24701692  0.97595171  1  0  -0.064069  0  3.725864  0  0  -0.085738  0  3.972771  0  0  -0.087693  0  3.994515  0  0  -0.077709  -0.084299  0  3.958017  0
C  C42  1  0.37694243  0.18656139  0.57371723  1  0  0.057569  0  3.599757  0  0  0.034067  0  3.845132  0  0  0.0353  0  3.850359  0  0  0.005305  0.033037  0  3.84178  0
C  C43  1  0.62305254  0.68655555  0.42628070  1  0  0.0576  0  3.599711  0  0  0.034048  0  3.845224  0  0  0.035275  0  3.850457  0  0  0.005333  0.033018  0  3.841872  0
C  C44  1  0.80311880  0.81368302  0.42625971  1  0  0.057339  0  3.60031  0  0  0.032258  0  3.846705  0  0  0.033442  0  3.851936  0  0  0.002759  0.031282  0  3.843365  0
C  C45  1  0.19687461  0.31369423  0.57373794  1  0  0.057221  0  3.600147  0  0  0.032326  0  3.846354  0  0  0.033471  0  3.85158  0  0  0.002756  0.031346  0  3.843017  0
C  C46  1  0.41565126  0.24998029  0.83143596  1  0  0.668268  0  3.82943  0  0  0.609288  0  4.132298  0  0  0.643012  0  4.124506  0  0  0.227357  0.586495  0  4.136693  0
C  C47  1  0.58436166  0.74997829  0.16856493  1  0  0.668246  0  3.829358  0  0  0.60925  0  4.132267  0  0  0.642984  0  4.124466  0  0  0.227254  0.586454  0  4.136673  0
C  C48  1  0.35329697  0.08703680  0.48687880  1  0  0.709328  0  3.829755  0  0  0.658875  0  4.131434  0  0  0.693584  0  4.119573  0  0  0.235603  0.635284  0  4.138624  0
C  C49  1  0.64669656  0.58702520  0.51311909  1  0  0.709363  0  3.829659  0  0  0.65893  0  4.131323  0  0  0.693642  0  4.119459  0  0  0.23566  0.635335  0  4.138514  0
C  C50  1  0.86643616  0.91319151  0.51307985  1  0  0.708978  0  3.83145  0  0  0.6596  0  4.131515  0  0  0.69429  0  4.119749  0  0  0.236092  0.636007  0  4.138663  0
C  C51  1  0.13354371  0.41318969  0.48691509  1  0  0.709176  0  3.83087  0  0  0.6596  0  4.131259  0  0  0.69432  0  4.119447  0  0  0.236093  0.636005  0  4.138414  0
O  O52  1  0.46528690  0.24237538  0.25343419  1  0  -0.742034  0  2.001976  0  0  -0.695434  0  2.253052  0  0  -0.719146  0  2.242484  0  0  -0.442478  -0.678559  0  2.259681  0
O  O53  1  0.53471403  0.74237348  0.74656490  1  0  -0.742017  0  2.001822  0  0  -0.695445  0  2.252912  0  0  -0.719155  0  2.242342  0  0  -0.442512  -0.67858  0  2.259536  0
O  O54  1  0.21198298  0.75781805  0.74660310  1  0  -0.740884  0  2.002344  0  0  -0.694156  0  2.252913  0  0  -0.717844  0  2.242336  0  0  -0.441377  -0.677305  0  2.259533  0
O  O55  1  0.78801195  0.25781054  0.25339668  1  0  -0.74094  0  2.002465  0  0  -0.694228  0  2.253088  0  0  -0.717917  0  2.24251  0  0  -0.441417  -0.677368  0  2.25972  0
O  O56  1  0.29029217  0.92750086  0.48383880  1  0  -0.665784  0  2.036159  0  0  -0.614455  0  2.284781  0  0  -0.638807  0  2.274062  0  0  -0.366555  -0.597337  0  2.291535  0
O  O57  1  0.70968318  0.42750023  0.51615954  1  0  -0.665828  0  2.036433  0  0  -0.614405  0  2.28496  0  0  -0.638753  0  2.274238  0  0  -0.366608  -0.597278  0  2.291717  0
O  O58  1  0.80667368  0.07276771  0.51611570  1  0  -0.665288  0  2.037218  0  0  -0.61485  0  2.286151  0  0  -0.639169  0  2.275361  0  0  -0.366646  -0.597736  0  2.292961  0
O  O59  1  0.19332734  0.57278981  0.48388550  1  0  -0.665453  0  2.03653  0  0  -0.614941  0  2.285547  0  0  -0.639263  0  2.274734  0  0  -0.366701  -0.597831  0  2.292352  0
O  O60  1  0.39373121  0.05514354  0.64159772  1  0  -0.665595  0  2.192789  0  0  -0.615161  0  2.44363  0  0  -0.631805  0  2.430112  0  0  -0.452011  -0.6029  0  2.452531  0
O  O61  1  0.60626683  0.55513666  0.35840001  1  0  -0.665732  0  2.19271  0  0  -0.61527  0  2.443557  0  0  -0.631913  0  2.430036  0  0  -0.452078  -0.602995  0  2.452467  0
O  O62  1  0.75188110  0.94509819  0.35837793  1  0  -0.665931  0  2.193452  0  0  -0.615237  0  2.444643  0  0  -0.631855  0  2.431148  0  0  -0.451414  -0.60297  0  2.453519  0
O  O63  1  0.24812121  0.44510776  0.64162429  1  0  -0.665877  0  2.193351  0  0  -0.61523  0  2.4445  0  0  -0.631861  0  2.43103  0  0  -0.451437  -0.602978  0  2.453373  0
O  O64  1  0.55266259  0.20858239  0.79047492  1  0  -0.640936  0  2.007052  0  0  -0.569666  0  2.220459  0  0  -0.595565  0  2.209797  0  0  -0.298258  -0.551558  0  2.227252  0
O  O65  1  0.44734885  0.70858424  0.20952522  1  0  -0.640975  0  2.007225  0  0  -0.569702  0  2.220638  0  0  -0.595612  0  2.209982  0  0  -0.298189  -0.551593  0  2.227435  0
O  O66  1  0.76230439  0.79139631  0.20957202  1  0  -0.642535  0  2.00712  0  0  -0.571175  0  2.22059  0  0  -0.597182  0  2.210112  0  0  -0.299967  -0.553031  0  2.227322  0
O  O67  1  0.23771000  0.29140923  0.79043089  1  0  -0.642606  0  2.007351  0  0  -0.571192  0  2.220751  0  0  -0.597189  0  2.210268  0  0  -0.299983  -0.553048  0  2.227475  0
O  O68  1  0.09457399  0.51420738  0.19995379  1  0  -0.871233  0  1.757539  0  0  -0.835328  0  1.918374  0  0  -0.849554  0  1.887486  0  0  -0.658582  -0.825135  0  1.94015  0
O  O69  1  0.90542257  0.01420950  0.80004384  1  0  -0.871157  0  1.757595  0  0  -0.835251  0  1.918502  0  0  -0.849478  0  1.887623  0  0  -0.658537  -0.825057  0  1.940281  0
O  O70  1  0.89467875  0.48550562  0.79993084  1  0  -0.870541  0  1.758286  0  0  -0.834531  0  1.918805  0  0  -0.848737  0  1.887873  0  0  -0.658082  -0.824391  0  1.940658  0
O  O71  1  0.10531605  0.98550618  0.20006932  1  0  -0.870452  0  1.758419  0  0  -0.834414  0  1.918905  0  0  -0.848622  0  1.88797  0  0  -0.658019  -0.824268  0  1.940762  0
O  O72  1  0.39692052  0.16941288  0.42193738  1  0  -0.775922  0  2.080255  0  0  -0.733053  0  2.356127  0  0  -0.756752  0  2.341389  0  0  -0.441404  -0.716014  0  2.365483  0
O  O73  1  0.60306545  0.66942247  0.57806290  1  0  -0.776012  0  2.079983  0  0  -0.73314  0  2.355803  0  0  -0.756838  0  2.341059  0  0  -0.44145  -0.716115  0  2.365158  0
O  O74  1  0.97487631  0.83070270  0.57804095  1  0  -0.775851  0  2.080235  0  0  -0.732893  0  2.35489  0  0  -0.756574  0  2.340151  0  0  -0.441506  -0.715881  0  2.364247  0
O  O75  1  0.02511857  0.33072265  0.42196003  1  0  -0.775768  0  2.080609  0  0  -0.732798  0  2.35543  0  0  -0.756484  0  2.340671  0  0  -0.441431  -0.715774  0  2.364796  0
