# generated using pymatgen
data_Li2H9C7NO8
_symmetry_space_group_name_H-M   'P 1'
_cell_length_a   7.06520081
_cell_length_b   10.98626324
_cell_length_c   13.06070000
_cell_angle_alpha   90.66338559
_cell_angle_beta   90.00000000
_cell_angle_gamma   90.00000000
_symmetry_Int_Tables_number   1
_chemical_formula_structural   Li2H9C7NO8
_chemical_formula_sum   'Li8 H36 C28 N4 O32'
_cell_volume   1013.70562064
_cell_formula_units_Z   4
loop_
 _symmetry_equiv_pos_site_id
 _symmetry_equiv_pos_as_xyz
  1  'x, y, z'
loop_
 _atom_site_type_symbol
 _atom_site_label
 _atom_site_symmetry_multiplicity
 _atom_site_fract_x
 _atom_site_fract_y
 _atom_site_fract_z
 _atom_site_occupancy
 _atom_site_hle17_bader_spin_density
 _atom_site_hle17_ddec_charge
 _atom_site_hle17_ddec_spin_density
 _atom_site_hle17_ddec_sum_bond_order
 _atom_site_hle17_magmom
 _atom_site_hse06_10hf_bader_spin_density
 _atom_site_hse06_10hf_ddec_charge
 _atom_site_hse06_10hf_ddec_spin_density
 _atom_site_hse06_10hf_ddec_sum_bond_order
 _atom_site_hse06_10hf_magmom
 _atom_site_hse06_bader_spin_density
 _atom_site_hse06_ddec_charge
 _atom_site_hse06_ddec_spin_density
 _atom_site_hse06_ddec_sum_bond_order
 _atom_site_hse06_magmom
 _atom_site_pbe_bader_charge
 _atom_site_pbe_bader_spin_density
 _atom_site_pbe_cm5_charge
 _atom_site_pbe_ddec_charge
 _atom_site_pbe_ddec_spin_density
 _atom_site_pbe_ddec_sum_bond_order
 _atom_site_pbe_magmom
Li  Li0  1  0.50968261  0.60261197  0.32431965  1  0  0.852619  0  0.413131  0  0  0.818555  0  0.509678  0  0  0.826508  0  0.49455  0  0.859631  0  0.513868  0.812699  0  0.520529  0
Li  Li1  1  0.99031580  0.10261228  0.82432122  1  0  0.852621  0  0.41313  0  0  0.818563  0  0.509669  0  0  0.826513  0  0.49454  0  0.85961  0  0.513858  0.81271  0  0.520518  0
Li  Li2  1  0.49031727  0.39738831  0.67567875  1  0  0.852624  0  0.413131  0  0  0.818553  0  0.509685  0  0  0.826509  0  0.494557  0  0.859624  0  0.513866  0.812697  0  0.520534  0
Li  Li3  1  0.00968408  0.89738891  0.17568101  1  0  0.852622  0  0.413115  0  0  0.818557  0  0.509661  0  0  0.826509  0  0.494534  0  0.859625  0  0.513866  0.812703  0  0.520509  0
Li  Li4  1  0.98457782  0.63741686  0.64431606  1  0  0.860739  0  0.402632  0  0  0.821744  0  0.507475  0  0  0.831032  0  0.490557  0  0.865074  0  0.516266  0.814868  0  0.519793  0
Li  Li5  1  0.51542201  0.13741808  0.14431841  1  0  0.860746  0  0.402619  0  0  0.821755  0  0.507452  0  0  0.831044  0  0.490533  0  0.865075  0  0.516241  0.81488  0  0.519769  0
Li  Li6  1  0.01542207  0.36258798  0.35568467  1  0  0.860771  0  0.40261  0  0  0.821763  0  0.507453  0  0  0.831062  0  0.490539  0  0.865016  0  0.51626  0.814888  0  0.519772  0
Li  Li7  1  0.48457363  0.86258494  0.85568461  1  0  0.860761  0  0.402621  0  0  0.821757  0  0.50746  0  0  0.831057  0  0.490545  0  0.865036  0  0.516249  0.814883  0  0.519777  0
H  H8  1  0.71066345  0.92824223  0.35502473  1  0  0.321316  0  0.882279  0  0  0.296326  0  0.952097  0  0  0.306285  0  0.943441  0  0.542374  0  0.321253  0.289231  0  0.958316  0
H  H9  1  0.78933921  0.42824255  0.85502707  1  0  0.321342  0  0.882283  0  0  0.29636  0  0.952076  0  0  0.306318  0  0.943424  0  0.542362  0  0.321279  0.289267  0  0.958296  0
H  H10  1  0.28933926  0.07175896  0.64497444  1  0  0.321327  0  0.882265  0  0  0.296341  0  0.952068  0  0  0.3063  0  0.943417  0  0.542344  0  0.321268  0.289248  0  0.958288  0
H  H11  1  0.21065785  0.57175774  0.14497362  1  0  0.321318  0  0.88234  0  0  0.296332  0  0.95216  0  0  0.30629  0  0.943509  0  0.542344  0  0.321275  0.289238  0  0.958379  0
H  H12  1  0.77888232  0.87149484  0.67103320  1  0  0.146483  0  0.941182  0  0  0.149902  0  1.010821  0  0  0.155865  0  1.006353  0  0.152526  0  0.132309  0.145592  0  1.014276  0
H  H13  1  0.72112034  0.37149971  0.17103558  1  0  0.146486  0  0.941224  0  0  0.149876  0  1.010905  0  0  0.155836  0  1.006437  0  0.152518  0  0.132313  0.145567  0  1.014359  0
H  H14  1  0.22111615  0.12850271  0.32896670  1  0  0.146502  0  0.9412  0  0  0.14992  0  1.010833  0  0  0.155881  0  1.006365  0  0.15255  0  0.132331  0.145609  0  1.014289  0
H  H15  1  0.27888096  0.62850149  0.82896512  1  0  0.146469  0  0.941251  0  0  0.149907  0  1.010879  0  0  0.155867  0  1.00641  0  0.152518  0  0.132322  0.145592  0  1.014341  0
H  H16  1  0.78676178  0.23541338  0.54357457  1  0  0.137369  0  0.944259  0  0  0.144832  0  1.00717  0  0  0.150135  0  1.00358  0  0.084792  0  0.127774  0.141049  0  1.009917  0
H  H17  1  0.71323380  0.73541580  0.04357379  1  0  0.13734  0  0.944324  0  0  0.1448  0  1.007239  0  0  0.150102  0  1.00365  0  0.084777  0  0.127754  0.141017  0  1.009986  0
H  H18  1  0.21324235  0.76458600  0.45642688  1  0  0.137361  0  0.944325  0  0  0.144833  0  1.007218  0  0  0.150136  0  1.003628  0  0.084743  0  0.127772  0.141051  0  1.009967  0
H  H19  1  0.28676467  0.26458540  0.95642691  1  0  0.137377  0  0.944266  0  0  0.14484  0  1.007176  0  0  0.150142  0  1.003587  0  0.084788  0  0.12777  0.141056  0  1.009924  0
H  H20  1  0.15001414  0.60507885  0.31553174  1  0  0.427077  0  0.871652  0  0  0.400178  0  0.928919  0  0  0.410397  0  0.913779  0  0.646497  0  0.303497  0.392921  0  0.939666  0
H  H21  1  0.34998581  0.10507826  0.81553177  1  0  0.427067  0  0.871663  0  0  0.40017  0  0.928926  0  0  0.410388  0  0.913786  0  0.646496  0  0.303498  0.392912  0  0.939674  0
H  H22  1  0.84998716  0.39492052  0.68446741  1  0  0.427055  0  0.871679  0  0  0.400153  0  0.928952  0  0  0.410372  0  0.913812  0  0.646429  0  0.303483  0.392896  0  0.939701  0
H  H23  1  0.65001408  0.89492203  0.18446739  1  0  0.427054  0  0.871676  0  0  0.400153  0  0.928947  0  0  0.410371  0  0.913808  0  0.646429  0  0.303485  0.392895  0  0.939695  0
H  H24  1  0.23157870  0.73257843  0.27835975  1  0  0.420991  0  0.883686  0  0  0.388688  0  0.949888  0  0  0.399838  0  0.933588  0  0.657086  0  0.298493  0.380785  0  0.961423  0
H  H25  1  0.26842408  0.23257692  0.77835978  1  0  0.420998  0  0.883678  0  0  0.388701  0  0.949871  0  0  0.39985  0  0.933572  0  0.657125  0  0.298491  0.380798  0  0.961405  0
H  H26  1  0.76842260  0.26742186  0.72164094  1  0  0.420973  0  0.883714  0  0  0.388666  0  0.949925  0  0  0.399815  0  0.933626  0  0.657105  0  0.298471  0.380762  0  0.961461  0
H  H27  1  0.73157722  0.76742246  0.22164014  1  0  0.421018  0  0.88365  0  0  0.38872  0  0.949844  0  0  0.39987  0  0.933545  0  0.657106  0  0.298502  0.380817  0  0.961379  0
H  H28  1  0.10987940  0.42402245  0.56718210  1  0  0.426913  0  0.869314  0  0  0.397278  0  0.930799  0  0  0.407339  0  0.915933  0  0.63123  0  0.312973  0.39014  0  0.941343  0
H  H29  1  0.39011913  0.92402032  0.06718204  1  0  0.426977  0  0.869223  0  0  0.397343  0  0.930703  0  0  0.407403  0  0.915839  0  0.631214  0  0.312995  0.390206  0  0.941246  0
H  H30  1  0.89012049  0.57597966  0.43281785  1  0  0.426956  0  0.869258  0  0  0.397328  0  0.930729  0  0  0.407388  0  0.915864  0  0.631221  0  0.313  0.390191  0  0.941272  0
H  H31  1  0.60988075  0.07598088  0.93281790  1  0  0.426946  0  0.869267  0  0  0.397317  0  0.930739  0  0  0.407377  0  0.915875  0  0.631192  0  0.312993  0.39018  0  0.941282  0
H  H32  1  0.14376803  0.44102482  0.68600289  1  0  0.421582  0  0.88158  0  0  0.38961  0  0.947244  0  0  0.400155  0  0.931859  0  0.650997  0  0.309118  0.382167  0  0.958093  0
H  H33  1  0.35623474  0.94102451  0.18600285  1  0  0.42153  0  0.881649  0  0  0.389562  0  0.947307  0  0  0.400104  0  0.931925  0  0.650991  0  0.309092  0.38212  0  0.958155  0
H  H34  1  0.85623327  0.55897547  0.31399627  1  0  0.421584  0  0.881561  0  0  0.389614  0  0.947223  0  0  0.400158  0  0.931839  0  0.650987  0  0.30912  0.382171  0  0.958072  0
H  H35  1  0.64376656  0.05897396  0.81399630  1  0  0.421534  0  0.881643  0  0  0.38957  0  0.947291  0  0  0.400114  0  0.931907  0  0.651006  0  0.309101  0.382129  0  0.958139  0
H  H36  1  0.40004666  0.40696546  0.40944250  1  0  0.429533  0  0.867549  0  0  0.403256  0  0.923135  0  0  0.412328  0  0.909742  0  0.639289  0  0.308442  0.396844  0  0.932607  0
H  H37  1  0.09995187  0.90696424  0.90944321  1  0  0.429524  0  0.867562  0  0  0.403249  0  0.923145  0  0  0.412321  0  0.909753  0  0.639272  0  0.308429  0.396837  0  0.932617  0
H  H38  1  0.59995464  0.59303391  0.59055589  1  0  0.42951  0  0.867582  0  0  0.403229  0  0.923176  0  0  0.412301  0  0.909784  0  0.639757  0  0.308407  0.396817  0  0.932648  0
H  H39  1  0.90004660  0.09303514  0.09055747  1  0  0.429524  0  0.867561  0  0  0.403248  0  0.923144  0  0  0.41232  0  0.909753  0  0.639284  0  0.308433  0.396837  0  0.932616  0
H  H40  1  0.60604222  0.38037320  0.36560621  1  0  0.431852  0  0.86998  0  0  0.404085  0  0.928531  0  0  0.413345  0  0.914841  0  0.642529  0  0.302526  0.397577  0  0.938151  0
H  H41  1  0.89395477  0.88037471  0.86560849  1  0  0.431905  0  0.86992  0  0  0.404113  0  0.928518  0  0  0.413374  0  0.914826  0  0.642511  0  0.302515  0.397605  0  0.938137  0
H  H42  1  0.39395766  0.61962618  0.63439217  1  0  0.431826  0  0.870013  0  0  0.404057  0  0.92857  0  0  0.413318  0  0.914879  0  0.642527  0  0.302499  0.397549  0  0.93819  0
H  H43  1  0.10604086  0.11962740  0.13439299  1  0  0.431829  0  0.87002  0  0  0.404056  0  0.928581  0  0  0.413317  0  0.91489  0  0.642522  0  0.302513  0.397548  0  0.9382  0
C  C44  1  0.74446009  0.88865469  0.50898466  1  0  0.131585  0  3.706813  0  0  0.123264  0  3.958818  0  0  0.12928  0  3.97694  0  0.374479  0  0.122915  0.119352  0  3.946516  0
C  C45  1  0.75553974  0.38865592  0.00898701  1  0  0.13181  0  3.706769  0  0  0.123287  0  3.958991  0  0  0.129303  0  3.977105  0  0.374482  0  0.122953  0.119374  0  3.946692  0
C  C46  1  0.25554263  0.11134377  0.49101525  1  0  0.131758  0  3.70672  0  0  0.123287  0  3.958895  0  0  0.129302  0  3.977015  0  0.374483  0  0.12295  0.119375  0  3.946593  0
C  C47  1  0.24445873  0.61134346  0.99101367  1  0  0.131717  0  3.706687  0  0  0.123242  0  3.958883  0  0  0.129257  0  3.976998  0  0.374501  0  0.122924  0.11933  0  3.946582  0
C  C48  1  0.71913172  0.75520365  0.48306608  1  0  0.652722  0  3.923213  0  0  0.60764  0  4.212705  0  0  0.638649  0  4.204089  0  1.647664  0  0.236894  0.586652  0  4.217859  0
C  C49  1  0.78087236  0.25520578  0.98306690  1  0  0.652631  0  3.923135  0  0  0.607634  0  4.212606  0  0  0.638642  0  4.203987  0  1.647675  0  0.2369  0.586647  0  4.217761  0
C  C50  1  0.28086817  0.24479481  0.51693306  1  0  0.652671  0  3.923097  0  0  0.607651  0  4.212572  0  0  0.638658  0  4.203955  0  1.647512  0  0.236931  0.586663  0  4.217727  0
C  C51  1  0.21912611  0.74479359  0.01693454  1  0  0.652696  0  3.923104  0  0  0.607686  0  4.212566  0  0  0.638693  0  4.203948  0  1.647673  0  0.236913  0.586699  0  4.21772  0
C  C52  1  0.77134113  0.93381775  0.60682051  1  0  -0.240269  0  3.614426  0  0  -0.274071  0  3.879926  0  0  -0.284383  0  3.895118  0  0.013766  0  -0.076741  -0.267495  0  3.869947  0
C  C53  1  0.72865869  0.43382080  0.10682211  1  0  -0.240342  0  3.614587  0  0  -0.27405  0  3.880101  0  0  -0.284371  0  3.895318  0  0.013655  0  -0.076766  -0.267469  0  3.870119  0
C  C54  1  0.22866017  0.06618071  0.39317939  1  0  -0.240325  0  3.614456  0  0  -0.274074  0  3.879955  0  0  -0.284393  0  3.895166  0  0.013624  0  -0.076758  -0.267489  0  3.869973  0
C  C55  1  0.27133978  0.56617949  0.89317781  1  0  -0.240391  0  3.614565  0  0  -0.27415  0  3.880071  0  0  -0.284469  0  3.895286  0  0.013628  0  -0.076807  -0.267564  0  3.870089  0
C  C56  1  0.78190983  0.06241758  0.62478806  1  0  0.456954  0  3.82708  0  0  0.4411  0  4.092666  0  0  0.464032  0  4.098641  0  0.743199  0  0.125293  0.425901  0  4.088009  0
C  C57  1  0.71809141  0.56242182  0.12478730  1  0  0.456964  0  3.827116  0  0  0.441114  0  4.092671  0  0  0.464044  0  4.098644  0  0.743338  0  0.125327  0.425907  0  4.088026  0
C  C58  1  0.21809288  0.93757997  0.37521260  1  0  0.456881  0  3.827096  0  0  0.441069  0  4.0926  0  0  0.464002  0  4.098571  0  0.74334  0  0.125281  0.425858  0  4.087962  0
C  C59  1  0.28191131  0.43757938  0.87521340  1  0  0.457005  0  3.827115  0  0  0.441147  0  4.092709  0  0  0.464076  0  4.098683  0  0.743276  0  0.125354  0.425943  0  4.088059  0
C  C60  1  0.77603456  0.13703576  0.53611911  1  0  -0.240585  0  3.648805  0  0  -0.274859  0  3.913782  0  0  -0.285367  0  3.929945  0  0.07554  0  -0.083179  -0.268193  0  3.903174  0
C  C61  1  0.72396244  0.63703909  0.03611680  1  0  -0.240649  0  3.648913  0  0  -0.274921  0  3.913907  0  0  -0.285428  0  3.930067  0  0.075595  0  -0.083232  -0.268251  0  3.903301  0
C  C62  1  0.22396957  0.86296180  0.46388232  1  0  -0.240623  0  3.64884  0  0  -0.274905  0  3.913808  0  0  -0.285415  0  3.929972  0  0.075639  0  -0.083217  -0.26824  0  3.903207  0
C  C63  1  0.27603603  0.36296302  0.96388237  1  0  -0.240619  0  3.648909  0  0  -0.274879  0  3.913906  0  0  -0.285387  0  3.930069  0  0.075703  0  -0.08321  -0.26821  0  3.903299  0
C  C64  1  0.74763763  0.08714921  0.44033056  1  0  0.129138  0  3.714511  0  0  0.119423  0  3.967693  0  0  0.125328  0  3.985742  0  0.391858  0  0.12234  0.11556  0  3.955489  0
C  C65  1  0.75236786  0.58714981  0.94033129  1  0  0.129305  0  3.714525  0  0  0.119548  0  3.967674  0  0  0.125459  0  3.985722  0  0.391685  0  0.122412  0.115685  0  3.955471  0
C  C66  1  0.25236792  0.91285016  0.55967013  1  0  0.12922  0  3.714468  0  0  0.119483  0  3.967649  0  0  0.125388  0  3.985696  0  0.391747  0  0.122398  0.115621  0  3.955445  0
C  C67  1  0.24763061  0.41284957  0.05966863  1  0  0.129151  0  3.714592  0  0  0.119374  0  3.967767  0  0  0.125287  0  3.985818  0  0.391656  0  0.122383  0.115511  0  3.955564  0
C  C68  1  0.72040132  0.16461113  0.34618117  1  0  0.665089  0  3.93948  0  0  0.619676  0  4.232626  0  0  0.651395  0  4.222676  0  1.668314  0  0.239008  0.598188  0  4.238705  0
C  C69  1  0.77960558  0.66460536  0.84617648  1  0  0.664969  0  3.939478  0  0  0.619679  0  4.232422  0  0  0.651385  0  4.22249  0  1.668704  0  0.239038  0.598192  0  4.238498  0
C  C70  1  0.27959998  0.83538642  0.65381797  1  0  0.665053  0  3.939321  0  0  0.619672  0  4.232421  0  0  0.651397  0  4.222465  0  1.667848  0  0.239036  0.598184  0  4.2385  0
C  C71  1  0.22039006  0.33539675  0.15382423  1  0  0.665071  0  3.939481  0  0  0.619822  0  4.232382  0  0  0.651517  0  4.222462  0  1.668475  0  0.239063  0.598336  0  4.238458  0
N  N72  1  0.72837845  0.96499150  0.42834427  1  0  -0.280707  0  3.472093  0  0  -0.219036  0  3.688633  0  0  -0.236794  0  3.706434  0  -1.294082  0  -0.347448  -0.207203  0  3.676699  0
N  N73  1  0.77162421  0.46499181  0.92834507  1  0  -0.28091  0  3.472168  0  0  -0.21918  0  3.688786  0  0  -0.236939  0  3.706583  0  -1.294039  0  -0.347532  -0.207349  0  3.676854  0
N  N74  1  0.27162568  0.03500788  0.57165565  1  0  -0.280814  0  3.472118  0  0  -0.219102  0  3.688719  0  0  -0.236859  0  3.706518  0  -1.294059  0  -0.347515  -0.20727  0  3.676785  0
N  N75  1  0.22837284  0.53500848  0.07165562  1  0  -0.280727  0  3.472069  0  0  -0.219029  0  3.688705  0  0  -0.236786  0  3.706506  0  -1.294044  0  -0.347518  -0.207198  0  3.676771  0
O  O76  1  0.61271153  0.73146332  0.40877146  1  0  -0.658253  0  1.977125  0  0  -0.618201  0  2.209955  0  0  -0.638592  0  2.200175  0  -1.190068  0  -0.366019  -0.604004  0  2.216354  0
O  O77  1  0.88729113  0.23146637  0.90877459  1  0  -0.65823  0  1.977112  0  0  -0.618189  0  2.20991  0  0  -0.638577  0  2.200127  0  -1.190173  0  -0.366025  -0.603996  0  2.216314  0
O  O78  1  0.38728835  0.26853605  0.59122846  1  0  -0.658297  0  1.977026  0  0  -0.618245  0  2.209822  0  0  -0.638635  0  2.200042  0  -1.190048  0  -0.36609  -0.604049  0  2.216223  0
O  O79  1  0.11271159  0.76853210  0.09122685  1  0  -0.658213  0  1.977251  0  0  -0.618154  0  2.210037  0  0  -0.638541  0  2.200254  0  -1.190194  0  -0.365986  -0.603961  0  2.216443  0
O  O80  1  0.80625592  0.67693704  0.53765462  1  0  -0.731508  0  2.006139  0  0  -0.675395  0  2.229113  0  0  -0.69769  0  2.215673  0  -1.231299  0  -0.373874  -0.659724  0  2.237983  0
O  O81  1  0.69374390  0.17693644  0.03765465  1  0  -0.731506  0  2.006058  0  0  -0.675405  0  2.229002  0  0  -0.697699  0  2.215562  0  -1.231147  0  -0.373876  -0.659734  0  2.237873  0
O  O82  1  0.19374396  0.32306234  0.46234606  1  0  -0.731473  0  2.00611  0  0  -0.675363  0  2.229063  0  0  -0.697661  0  2.215628  0  -1.231117  0  -0.373842  -0.659693  0  2.237935  0
O  O83  1  0.30625315  0.82306476  0.96234681  1  0  -0.731554  0  2.00586  0  0  -0.675452  0  2.228812  0  0  -0.697748  0  2.215374  0  -1.231063  0  -0.37389  -0.659781  0  2.237682  0
O  O84  1  0.79528667  0.10974348  0.71590032  1  0  -0.677685  0  2.0126  0  0  -0.612217  0  2.223973  0  0  -0.636048  0  2.214755  0  -1.203921  0  -0.364544  -0.595438  0  2.229772  0
O  O85  1  0.70470750  0.60974954  0.21589804  1  0  -0.677657  0  2.012591  0  0  -0.612196  0  2.223975  0  0  -0.636027  0  2.214756  0  -1.203937  0  -0.364532  -0.595417  0  2.229784  0
O  O86  1  0.20471180  0.89025407  0.28410111  1  0  -0.677592  0  2.012567  0  0  -0.612159  0  2.223942  0  0  -0.635989  0  2.214723  0  -1.203907  0  -0.364527  -0.595384  0  2.229764  0
O  O87  1  0.29529380  0.39025256  0.78410190  1  0  -0.67766  0  2.012551  0  0  -0.612207  0  2.223952  0  0  -0.636038  0  2.214735  0  -1.203925  0  -0.364561  -0.595432  0  2.229765  0
O  O88  1  0.62903237  0.11637949  0.27418694  1  0  -0.663556  0  1.965005  0  0  -0.623498  0  2.201409  0  0  -0.644513  0  2.190915  0  -1.198805  0  -0.374649  -0.608811  0  2.208315  0
O  O89  1  0.87096887  0.61638464  0.77418848  1  0  -0.663415  0  1.965349  0  0  -0.623394  0  2.201697  0  0  -0.644402  0  2.191206  0  -1.199135  0  -0.374606  -0.60871  0  2.208603  0
O  O90  1  0.37097318  0.88361716  0.72581448  1  0  -0.663579  0  1.964929  0  0  -0.623549  0  2.201365  0  0  -0.644573  0  2.190874  0  -1.19824  0  -0.374691  -0.608861  0  2.20827  0
O  O91  1  0.12903101  0.38362384  0.22581152  1  0  -0.663523  0  1.965355  0  0  -0.623504  0  2.201685  0  0  -0.644513  0  2.191201  0  -1.199007  0  -0.374624  -0.608821  0  2.208593  0
O  O92  1  0.78522892  0.27266330  0.35056333  1  0  -0.734575  0  2.006681  0  0  -0.684369  0  2.239143  0  0  -0.705547  0  2.224464  0  -1.235606  0  -0.388213  -0.669477  0  2.248889  0
O  O93  1  0.71477232  0.77266663  0.85056256  1  0  -0.734632  0  2.006348  0  0  -0.684455  0  2.238757  0  0  -0.705634  0  2.224084  0  -1.235538  0  -0.38827  -0.66956  0  2.248501  0
O  O94  1  0.21477097  0.72733608  0.64943582  1  0  -0.734505  0  2.006603  0  0  -0.684311  0  2.239061  0  0  -0.705485  0  2.224377  0  -1.235645  0  -0.388213  -0.669419  0  2.248804  0
O  O95  1  0.28522048  0.22733548  0.14944045  1  0  -0.734599  0  2.006361  0  0  -0.684454  0  2.238753  0  0  -0.705625  0  2.224082  0  -1.235471  0  -0.388266  -0.66956  0  2.248495  0
O  O96  1  0.25754257  0.64318171  0.27878154  1  0  -0.892042  0  1.823738  0  0  -0.846493  0  1.992656  0  0  -0.863368  0  1.960352  0  -1.327283  0  -0.641166  -0.834483  0  2.015273  0
O  O97  1  0.24245737  0.14318112  0.77878157  1  0  -0.892032  0  1.823741  0  0  -0.846486  0  1.99265  0  0  -0.863361  0  1.960347  0  -1.327317  0  -0.641162  -0.834479  0  2.015267  0
O  O98  1  0.74245731  0.35681766  0.72121761  1  0  -0.892003  0  1.823768  0  0  -0.846451  0  1.99268  0  0  -0.863327  0  1.960378  0  -1.327231  0  -0.641135  -0.834442  0  2.015299  0
O  O99  1  0.75754252  0.85681917  0.22121835  1  0  -0.892048  0  1.82374  0  0  -0.846504  0  1.992655  0  0  -0.863379  0  1.960351  0  -1.327255  0  -0.641167  -0.834494  0  2.015272  0
O  O100  1  0.05465662  0.46176757  0.62958160  1  0  -0.870922  0  1.833873  0  0  -0.815321  0  1.994514  0  0  -0.833122  0  1.962324  0  -1.294218  0  -0.607838  -0.802758  0  2.017091  0
O  O101  1  0.44534191  0.96176816  0.12958003  1  0  -0.87095  0  1.833861  0  0  -0.815328  0  1.994479  0  0  -0.833127  0  1.962289  0  -1.294188  0  -0.60783  -0.802765  0  2.017056  0
O  O102  1  0.94534326  0.53823363  0.37041910  1  0  -0.870977  0  1.833838  0  0  -0.815374  0  1.994474  0  0  -0.833176  0  1.962285  0  -1.294164  0  -0.607878  -0.802811  0  2.017051  0
O  O103  1  0.55465656  0.03823394  0.87041991  1  0  -0.870914  0  1.833875  0  0  -0.815316  0  1.994517  0  0  -0.833118  0  1.962329  0  -1.294174  0  -0.60785  -0.802754  0  2.017092  0
O  O104  1  0.50835215  0.44394138  0.37450664  1  0  -0.921866  0  1.76465  0  0  -0.882108  0  1.924766  0  0  -0.896491  0  1.894328  0  -1.3116  0  -0.669275  -0.87195  0  1.946084  0
O  O105  1  0.99164768  0.94394016  0.87450659  1  0  -0.921922  0  1.764597  0  0  -0.882152  0  1.924733  0  0  -0.896534  0  1.894286  0  -1.311612  0  -0.669276  -0.871994  0  1.946051  0
O  O106  1  0.49164632  0.55605708  0.62548944  1  0  -0.921836  0  1.76471  0  0  -0.882056  0  1.924795  0  0  -0.896441  0  1.894358  0  -1.312087  0  -0.669212  -0.871898  0  1.946113  0
O  O107  1  0.00835220  0.05605921  0.12549333  1  0  -0.921854  0  1.764678  0  0  -0.882096  0  1.924803  0  0  -0.896477  0  1.894362  0  -1.311596  0  -0.669278  -0.871938  0  1.946121  0
