# generated using pymatgen
data_CoH24C21(NO)4
_symmetry_space_group_name_H-M   'P 1'
_cell_length_a   9.69620845
_cell_length_b   10.14565472
_cell_length_c   11.03151024
_cell_angle_alpha   93.76441099
_cell_angle_beta   97.88391738
_cell_angle_gamma   101.28558644
_symmetry_Int_Tables_number   1
_chemical_formula_structural   CoH24C21(NO)4
_chemical_formula_sum   'Co2 H48 C42 N8 O8'
_cell_volume   1049.38497442
_cell_formula_units_Z   2
loop_
 _symmetry_equiv_pos_site_id
 _symmetry_equiv_pos_as_xyz
  1  'x, y, z'
loop_
 _atom_site_type_symbol
 _atom_site_label
 _atom_site_symmetry_multiplicity
 _atom_site_fract_x
 _atom_site_fract_y
 _atom_site_fract_z
 _atom_site_occupancy
 _atom_site_hle17_ddec_charge
 _atom_site_hle17_ddec_spin_density
 _atom_site_hle17_ddec_sum_bond_order
 _atom_site_hle17_magmom
 _atom_site_hse06_10hf_ddec_charge
 _atom_site_hse06_10hf_ddec_spin_density
 _atom_site_hse06_10hf_ddec_sum_bond_order
 _atom_site_hse06_10hf_magmom
 _atom_site_hse06_ddec_charge
 _atom_site_hse06_ddec_spin_density
 _atom_site_hse06_ddec_sum_bond_order
 _atom_site_hse06_magmom
 _atom_site_pbe_cm5_charge
 _atom_site_pbe_ddec_charge
 _atom_site_pbe_ddec_spin_density
 _atom_site_pbe_ddec_sum_bond_order
 _atom_site_pbe_magmom
Co  Co0  1  0.72328034  0.61706012  0.68723034  1  0.93845  -2.823965  2.014183  -2.536  0.881268  -2.825945  2.458402  -2.592  0.973755  -2.870982  2.371809  -2.681  0.670392  0.806526  -2.780642  2.52724  -2.512
Co  Co1  1  0.27671803  0.38293975  0.31276776  1  0.938407  -2.823971  2.014185  -2.536  0.881238  -2.825956  2.458364  -2.592  0.973732  -2.870993  2.371783  -2.681  0.670396  0.806502  -2.780659  2.527193  -2.512
H  H2  1  0.76117162  0.10655246  0.69322773  1  0.102134  8e-06  0.951736  0.0  0.108806  -3e-06  1.018574  0.0  0.113552  2.7e-05  1.014315  0.0  0.102449  0.104944  -0.000102  1.023004  0.0
H  H3  1  0.23882873  0.89345234  0.30678274  1  0.102164  8e-06  0.951591  0.0  0.10878  -3e-06  1.018495  0.0  0.113528  2.7e-05  1.014238  0.0  0.102467  0.104925  -0.000102  1.022927  0.0
H  H4  1  0.37757695  0.26195051  0.65662926  1  0.10404  -0.000137  0.960552  0.0  0.112148  -2.8e-05  1.026453  0.0  0.115399  1.3e-05  1.024585  0.0  0.103369  0.109851  -8.3e-05  1.027482  0.0
H  H5  1  0.62242266  0.73805035  0.34337088  1  0.104073  -0.000135  0.960539  0.0  0.112179  -2.8e-05  1.026441  0.0  0.11542  1.3e-05  1.024599  0.0  0.10339  0.109898  -8.3e-05  1.02744  0.0
H  H6  1  0.35444873  0.83216999  0.62624382  1  0.094042  -0.000218  0.952176  0.0  0.103423  -0.00013  1.018225  0.0  0.106903  -8.4e-05  1.015722  0.0  0.100678  0.10104  -0.000167  1.019532  0.0
H  H7  1  0.64555357  0.16783386  0.37376050  1  0.094092  -0.000219  0.952107  0.0  0.10346  -0.00013  1.018169  0.0  0.106941  -8.4e-05  1.015669  0.0  0.100685  0.101078  -0.000167  1.019478  0.0
H  H8  1  0.14591757  0.10141425  0.65936243  1  0.103369  -3.4e-05  0.949571  0.0  0.12269  -0.0  1.012367  0.0  0.12398  1e-06  1.012609  0.0  0.087181  0.121507  -0.0  1.01285  0.0
H  H9  1  0.85407819  0.89858354  0.34064154  1  0.103325  -3.9e-05  0.949645  0.0  0.122657  -0.0  1.01243  0.0  0.123952  1e-06  1.012667  0.0  0.087167  0.121474  -0.0  1.012918  0.0
H  H10  1  0.13745602  0.92337480  0.64432949  1  0.092763  -2.9e-05  0.966758  0.0  0.111827  -2e-05  1.033595  0.0  0.112993  -1.5e-05  1.033084  0.0  0.083736  0.111285  -2.9e-05  1.033478  0.0
H  H11  1  0.86254683  0.07662199  0.35567353  1  0.092786  -3e-05  0.966696  0.0  0.111861  -2e-05  1.033526  0.0  0.113027  -1.5e-05  1.033015  0.0  0.083763  0.111322  -2.9e-05  1.033408  0.0
H  H12  1  0.15118665  0.01849471  0.51478096  1  0.129324  -0.000115  0.949787  0.0  0.152191  -4.2e-05  1.006376  0.0  0.154017  -1.3e-05  1.006104  0.0  0.095886  0.150618  -6.5e-05  1.007094  0.0
H  H13  1  0.84881582  0.98150511  0.48522220  1  0.129306  -0.000118  0.949723  0.0  0.152194  -4.2e-05  1.006306  0.0  0.15402  -1.3e-05  1.006035  0.0  0.095867  0.150622  -6.5e-05  1.00702  0.0
H  H14  1  0.61719891  0.43463351  0.43419153  1  0.113266  0.000277  0.950555  0.0  0.120139  0.00014  1.017001  0.0  0.123543  0.000217  1.013042  0.0  0.138785  0.117256  6.4e-05  1.02076  0.0
H  H15  1  0.38279780  0.56536836  0.56580740  1  0.113169  0.000275  0.950536  0.0  0.120042  0.00014  1.016992  0.0  0.123445  0.000217  1.013035  0.0  0.138691  0.117156  6.4e-05  1.020754  0.0
H  H16  1  0.99821342  0.72433860  0.55022877  1  0.096391  -4.9e-05  0.957068  -0.001  0.107818  -0.000162  1.015337  -0.001  0.109765  -9.9e-05  1.014589  0.0  0.116771  0.106481  -0.000233  1.01587  -0.001
H  H17  1  0.00178324  0.27566324  0.44977377  1  0.096389  -4.3e-05  0.957133  -0.001  0.10781  -0.000162  1.015404  -0.001  0.109761  -9.9e-05  1.01465  0.0  0.116735  0.10647  -0.000233  1.015934  -0.001
H  H18  1  0.99914772  0.61898920  0.31206739  1  0.135356  -0.000239  0.986726  0.0  0.142514  -0.000258  1.050211  0.0  0.146052  -0.000174  1.04771  0.0  0.120186  0.139655  -0.000348  1.05261  0.0
H  H19  1  0.00085059  0.38101063  0.68793433  1  0.13534  -0.000236  0.98674  0.0  0.142491  -0.000258  1.050228  0.0  0.146033  -0.000173  1.047731  0.0  0.120173  0.139628  -0.000348  1.05263  0.0
H  H20  1  0.66156959  0.34450808  0.22721716  1  0.077046  3.7e-05  0.938592  0.0  0.090582  1.4e-05  1.008619  0.0  0.092223  5.3e-05  1.00701  0.0  0.110124  0.089273  -2.8e-05  1.009776  0.0
H  H21  1  0.33843038  0.65548974  0.77278373  1  0.077027  4.6e-05  0.938638  0.0  0.090589  1.3e-05  1.008635  0.0  0.092235  5.3e-05  1.007026  0.0  0.110116  0.089281  -2.8e-05  1.009795  0.0
H  H22  1  0.81948765  0.41796583  0.16941904  1  0.071084  -7.4e-05  0.922059  0.0  0.088075  -6.6e-05  0.982794  0.0  0.088047  -3.5e-05  0.983986  0.0  0.106159  0.088212  -0.000105  0.981806  0.0
H  H23  1  0.18051069  0.58203401  0.83058087  1  0.071064  -7.7e-05  0.922058  0.0  0.088058  -6.6e-05  0.982787  0.0  0.088029  -3.5e-05  0.983995  0.0  0.106152  0.088196  -0.000105  0.981793  0.0
H  H24  1  0.71847463  0.61774262  0.11933884  1  0.056291  1.6e-05  0.950527  0.0  0.071836  2.9e-05  1.017288  0.0  0.072248  2.1e-05  1.018416  0.0  0.081917  0.071549  3.3e-05  1.016563  0.0
H  H25  1  0.28152222  0.38225520  0.88066165  1  0.05632  1e-05  0.950576  0.0  0.071845  2.9e-05  1.017346  0.0  0.072271  2.1e-05  1.018461  0.0  0.081949  0.07156  3.3e-05  1.016617  0.0
H  H26  1  0.57975850  0.56656203  0.20658333  1  0.081676  9.2e-05  0.981675  0.0  0.098252  0.000124  1.045276  0.0  0.099767  0.000156  1.045463  0.0  0.093521  0.097003  8.5e-05  1.045356  0.0
H  H27  1  0.42023937  0.43343577  0.79341819  1  0.08169  9.2e-05  0.981666  0.0  0.098267  0.000124  1.045258  0.0  0.099781  0.000156  1.045451  0.0  0.093533  0.097021  8.5e-05  1.045334  0.0
H  H28  1  0.60777336  0.41865570  0.96249669  1  0.05663  6.1e-05  0.943267  0.0  0.076363  2.9e-05  1.004066  0.0  0.076653  4.1e-05  1.005017  0.0  0.084813  0.076008  2.3e-05  1.003729  0.0
H  H29  1  0.39222368  0.58134311  0.03750571  1  0.056671  6.1e-05  0.943119  0.0  0.076376  2.9e-05  1.003966  0.0  0.076668  4.1e-05  1.004914  0.0  0.084809  0.076019  2.3e-05  1.003635  0.0
H  H30  1  0.47880768  0.36474243  0.05725400  1  0.06292  -3e-06  0.9274  0.0  0.083937  -8.1e-05  0.984537  0.0  0.084471  -3.2e-05  0.985312  0.0  0.088685  0.083028  -0.000138  0.985049  0.0
H  H31  1  0.52118832  0.63525638  0.94274826  1  0.0629  -3e-06  0.927425  0.0  0.083922  -8.1e-05  0.984553  0.0  0.084456  -3.2e-05  0.985326  0.0  0.088667  0.083013  -0.000138  0.98507  0.0
H  H32  1  0.96194625  0.88116902  0.78467938  1  0.106367  4.9e-05  0.966341  -0.001  0.114085  2e-06  1.032066  0.0  0.117559  3.9e-05  1.02762  0.0  0.136583  0.111249  -3.5e-05  1.035796  0.0
H  H33  1  0.03805992  0.11883290  0.21531534  1  0.106313  4.7e-05  0.966458  -0.001  0.114082  2e-06  1.032126  0.0  0.117558  3.9e-05  1.027677  0.0  0.136595  0.111244  -3.5e-05  1.035865  0.0
H  H34  1  0.84855956  0.51899061  0.94654616  1  0.104099  -1e-06  0.971548  0.0  0.111564  -0.000127  1.035405  -0.001  0.11356  -6.7e-05  1.035176  0.0  0.117972  0.110117  -0.000186  1.035669  -0.001
H  H35  1  0.15144203  0.48100931  0.05344602  1  0.104145  3e-06  0.971536  0.0  0.1116  -0.000127  1.035398  -0.001  0.113604  -6.8e-05  1.035169  0.0  0.117976  0.110155  -0.000186  1.035667  -0.001
H  H36  1  0.07077048  0.69170345  0.10572453  1  0.136658  -0.000228  0.995681  0.0  0.142914  -0.000189  1.060383  0.0  0.147364  -0.000126  1.056702  0.0  0.12055  0.139575  -0.000262  1.063255  0.0
H  H37  1  0.92922288  0.30829741  0.89427480  1  0.136505  -0.000226  0.995772  0.0  0.142862  -0.000189  1.060372  0.0  0.147299  -0.000126  1.05671  0.0  0.120538  0.139519  -0.000262  1.06325  0.0
H  H38  1  0.16780216  0.96283739  0.09844244  1  0.077625  -1.9e-05  0.924489  0.0  0.093425  -4.5e-05  0.98917  0.0  0.094001  -2.2e-05  0.988982  0.0  0.111813  0.092847  -6e-05  0.989601  0.0
H  H39  1  0.83220258  0.03715842  0.90155803  1  0.077719  -1.5e-05  0.924532  0.0  0.093529  -4.5e-05  0.98917  0.0  0.094106  -2.2e-05  0.988981  0.0  0.111859  0.092948  -6e-05  0.989601  0.0
H  H40  1  0.14547562  0.01956319  0.94961235  1  0.076085  2.7e-05  0.910263  0.0  0.095227  -4e-06  0.966443  0.0  0.095768  3e-06  0.966731  0.0  0.114049  0.094701  -5e-06  0.966549  0.0
H  H41  1  0.85452918  0.98043766  0.05038938  1  0.076039  2.8e-05  0.910375  0.0  0.095194  -3e-06  0.96653  0.0  0.095736  3e-06  0.966816  0.0  0.114007  0.094666  -5e-06  0.966636  0.0
H  H42  1  0.29589401  0.85637203  0.88206560  1  0.064841  3.6e-05  0.942307  0.0  0.082458  2.2e-05  1.006671  0.0  0.082731  1.3e-05  1.007883  0.0  0.090683  0.082092  2.3e-05  1.00599  0.0
H  H43  1  0.70410477  0.14362483  0.11793054  1  0.064827  3.9e-05  0.942219  0.0  0.08244  2.2e-05  1.006609  0.0  0.082712  1.3e-05  1.007819  0.0  0.090686  0.082074  2.3e-05  1.005924  0.0
H  H44  1  0.32798992  0.81827998  0.03661783  1  0.071607  8e-06  0.935014  0.0  0.09001  1.4e-05  0.996817  0.0  0.090231  1.2e-05  0.998372  0.0  0.093367  0.089707  1.9e-05  0.996149  0.0
H  H45  1  0.67200985  0.18171183  0.96337720  1  0.071596  5e-06  0.934979  0.0  0.090003  1.3e-05  0.996783  0.0  0.09022  1.1e-05  0.998341  0.0  0.093346  0.089693  1.9e-05  0.996116  0.0
H  H46  1  0.43282949  0.06919961  0.09766628  1  0.062838  4.9e-05  0.951166  0.0  0.081407  5.3e-05  1.011872  0.0  0.081534  5.3e-05  1.013649  0.0  0.087104  0.081067  7.1e-05  1.011029  0.0
H  H47  1  0.56717197  0.93079522  0.90233007  1  0.062812  5.5e-05  0.951139  0.0  0.081353  5.3e-05  1.011896  0.0  0.081474  5.3e-05  1.013666  0.0  0.087072  0.081009  7.1e-05  1.011059  0.0
H  H48  1  0.41188328  0.09507114  0.93962506  1  0.060765  1.5e-05  0.934059  0.0  0.081211  1.9e-05  0.991291  0.0  0.081408  1.1e-05  0.992763  0.0  0.088116  0.080769  1.2e-05  0.990854  0.0
H  H49  1  0.58811773  0.90492167  0.06037111  1  0.060736  1.6e-05  0.934114  0.0  0.081162  1.8e-05  0.991351  0.0  0.081354  1.1e-05  0.99283  0.0  0.088092  0.080723  1.2e-05  0.990916  0.0
C  C50  1  0.56478749  0.95733809  0.65933313  1  -0.065228  -0.003988  3.804013  -0.006  -0.036633  -0.001469  4.034099  -0.002  -0.044509  -0.00086  4.056594  -0.001  -0.020737  -0.031996  -0.001616  4.020473  -0.002
C  C51  1  0.43521369  0.04266571  0.34067557  1  -0.065304  -0.003988  3.803976  -0.006  -0.036801  -0.001469  4.03421  -0.002  -0.044674  -0.000862  4.056704  -0.001  -0.020819  -0.03216  -0.001616  4.02058  -0.002
C  C52  1  0.64543630  0.08912155  0.67915283  1  -0.077315  -0.000157  3.722207  -0.001  -0.114938  -0.002311  3.970986  -0.003  -0.113977  -0.001471  3.99068  -0.002  -0.081592  -0.117655  -0.000754  3.961011  -0.001
C  C53  1  0.35456442  0.91088022  0.32085748  1  -0.077258  -0.000153  3.721979  -0.001  -0.114792  -0.002311  3.970788  -0.003  -0.11382  -0.00147  3.990454  -0.002  -0.081549  -0.117513  -0.000753  3.96082  -0.001
C  C54  1  0.57814120  0.19878208  0.68101273  1  -0.070954  -0.00502  3.789323  -0.007  -0.044412  -0.002092  4.023322  -0.003  -0.053151  -0.001396  4.046196  -0.002  -0.023674  -0.039241  -0.002161  4.009675  -0.003
C  C55  1  0.42185895  0.80122172  0.31899584  1  -0.070954  -0.005016  3.789224  -0.007  -0.044409  -0.002093  4.023204  -0.003  -0.053143  -0.001396  4.046073  -0.002  -0.023702  -0.039246  -0.002161  4.009576  -0.003
C  C56  1  0.42907064  0.17565955  0.65909793  1  -0.110464  0.008793  3.659161  0.006  -0.144004  0.003022  3.902776  0.002  -0.141996  0.002083  3.920396  0.001  -0.079953  -0.143198  6.4e-05  3.889489  0.0
C  C57  1  0.57093062  0.82434430  0.34090625  1  -0.110606  0.008764  3.659035  0.006  -0.144146  0.003023  3.902693  0.002  -0.14214  0.002083  3.920309  0.001  -0.080021  -0.143333  6.4e-05  3.889416  0.0
C  C58  1  0.34619026  0.04427989  0.63998564  1  0.13825  -0.00181  3.754964  -0.003  0.169688  -1e-06  3.991916  0.0  0.167944  -4.9e-05  4.017026  0.0  -0.008912  0.170348  7.4e-05  3.973741  0.0
C  C59  1  0.65381179  0.95572293  0.36002038  1  0.138315  -0.001801  3.754822  -0.003  0.169736  -1e-06  3.991812  0.0  0.167992  -4.8e-05  4.016922  0.0  -0.008884  0.170391  7.4e-05  3.973642  0.0
C  C60  1  0.41597184  0.93568182  0.64144322  1  -0.117507  0.008555  3.685062  0.005  -0.151317  0.002813  3.930274  0.001  -0.14997  0.001874  3.948759  0.001  -0.080309  -0.149756  -0.000215  3.915959  0.0
C  C61  1  0.58403251  0.06432201  0.35856317  1  -0.117615  0.00854  3.685071  0.005  -0.151361  0.002813  3.930287  0.001  -0.150017  0.001875  3.948773  0.001  -0.080308  -0.149795  -0.000216  3.915967  0.0
C  C62  1  0.64058915  0.84290910  0.66085664  1  0.61353  0.009446  3.928486  0.008  0.569126  0.000381  4.224383  0.001  0.604911  0.000706  4.222012  0.001  0.196489  0.542991  0.001073  4.225085  0.002
C  C63  1  0.35941089  0.15709377  0.33914460  1  0.613527  0.009458  3.928586  0.008  0.569084  0.000382  4.224607  0.001  0.604865  0.000709  4.222237  0.001  0.196419  0.542938  0.001074  4.225323  0.002
C  C64  1  0.66827349  0.33856873  0.70796034  1  0.628333  0.006271  3.930051  0.006  0.583294  -0.001585  4.228372  -0.001  0.619578  -0.001015  4.22255  0.0  0.202646  0.557145  -0.001352  4.231774  0.0
C  C65  1  0.33172973  0.66143418  0.29203678  1  0.62824  0.00626  3.929979  0.006  0.583197  -0.001586  4.228312  -0.001  0.619474  -0.001017  4.22249  0.0  0.202574  0.557034  -0.001352  4.231733  0.0
C  C66  1  0.18648395  0.02029169  0.61422969  1  -0.336917  0.000112  3.729104  0.0  -0.416164  -5.9e-05  3.958661  0.0  -0.418567  -2.6e-05  3.968969  0.0  -0.242249  -0.414357  -8.9e-05  3.951727  0.0
C  C67  1  0.81351621  0.97970712  0.38577311  1  -0.336847  0.00014  3.729019  0.0  -0.41613  -5.9e-05  3.958564  0.0  -0.418536  -2.6e-05  3.968868  0.0  -0.242219  -0.414322  -8.9e-05  3.951635  0.0
C  C68  1  0.72102316  0.49950740  0.43641946  1  0.160894  0.007185  3.620859  0.004  0.103097  -0.00201  3.890159  -0.003  0.118705  -0.001533  3.902519  -0.002  0.141736  0.091818  -0.002276  3.882421  -0.003
C  C69  1  0.27897435  0.50049345  0.56358132  1  0.160847  0.007215  3.620899  0.004  0.103053  -0.002011  3.890212  -0.003  0.118661  -0.001532  3.902568  -0.002  0.141717  0.091784  -0.002277  3.882467  -0.003
C  C70  1  0.91862526  0.64912997  0.49081506  1  0.013262  0.005037  3.756516  0.003  -0.017762  -0.000479  4.029152  -0.002  -0.014976  -0.000181  4.051228  -0.001  -0.000554  -0.020306  -0.000687  4.014234  -0.002
C  C71  1  0.08137374  0.35087291  0.50918514  1  0.013246  0.004994  3.756633  0.003  -0.017778  -0.000478  4.029258  -0.002  -0.014993  -0.00018  4.051336  -0.001  -0.000503  -0.020324  -0.000687  4.014334  -0.002
C  C72  1  0.91871678  0.59988664  0.37185273  1  -0.075926  -0.004222  3.662548  -0.005  -0.113647  -0.001604  3.913579  -0.002  -0.112778  -0.001033  3.93206  -0.001  -0.001102  -0.114049  -0.002265  3.901761  -0.003
C  C73  1  0.08128177  0.40011420  0.62814818  1  -0.075822  -0.004219  3.662582  -0.005  -0.113516  -0.001604  3.913581  -0.002  -0.112659  -0.001034  3.932078  -0.001  -0.001019  -0.113912  -0.002265  3.90176  -0.003
C  C74  1  0.73206020  0.44029308  0.21570703  1  0.007325  -0.000602  3.613051  -0.001  -0.05649  -0.00049  3.87603  -0.001  -0.052032  -0.000339  3.886451  0.0  -0.050364  -0.059269  -0.000636  3.868651  -0.001
C  C75  1  0.26793940  0.55970777  0.78429311  1  0.007385  -0.000615  3.612995  -0.001  -0.056442  -0.000491  3.875968  -0.001  -0.052005  -0.00034  3.886417  0.0  -0.050348  -0.059223  -0.000636  3.868595  -0.001
C  C76  1  0.64591968  0.52936352  0.14433556  1  -0.143581  2e-05  3.69599  0.0  -0.185188  -2e-05  3.957484  0.0  -0.187398  3.7e-05  3.971721  0.0  -0.171514  -0.18337  -0.000101  3.947336  0.0
C  C77  1  0.35407819  0.47063429  0.85566597  1  -0.143639  4.3e-05  3.696046  0.0  -0.185225  -2e-05  3.957498  0.0  -0.187443  3.8e-05  3.971743  0.0  -0.17158  -0.183406  -0.000101  3.947347  0.0
C  C78  1  0.54699972  0.45518680  0.03047173  1  -0.096562  -5.2e-05  3.679965  0.0  -0.133282  -0.00019  3.93785  0.0  -0.134289  -0.000116  3.953121  0.0  -0.163311  -0.132392  -0.000256  3.92746  0.0
C  C79  1  0.45299923  0.54481102  0.96952813  1  -0.096527  -5.2e-05  3.67988  0.0  -0.133221  -0.00019  3.937719  0.0  -0.134228  -0.000115  3.952998  0.0  -0.163251  -0.132331  -0.000256  3.927333  0.0
C  C80  1  0.96067901  0.80523629  0.84931729  1  0.146174  0.007248  3.670471  0.004  0.08721  -0.001332  3.941486  -0.002  0.102317  -0.000981  3.954348  -0.002  0.135963  0.076517  -0.00158  3.933018  -0.003
C  C81  1  0.03932584  0.19476459  0.15068081  1  0.146161  0.007277  3.670484  0.004  0.087139  -0.001332  3.941521  -0.002  0.102246  -0.000978  3.95438  -0.002  0.135919  0.076448  -0.00158  3.933058  -0.003
C  C82  1  0.90399537  0.62054563  0.93772048  1  0.006291  0.002079  3.749354  0.001  -0.023029  -0.00202  4.01941  -0.003  -0.019572  -0.001605  4.039914  -0.002  -0.002362  -0.025752  -0.002356  4.005413  -0.003
C  C83  1  0.09600414  0.37945429  0.06227142  1  0.006037  0.002075  3.749424  0.001  -0.023276  -0.002021  4.01951  -0.003  -0.019824  -0.001606  4.040014  -0.002  -0.002419  -0.026  -0.002357  4.005511  -0.003
C  C84  1  0.01269062  0.70417542  0.01687208  1  -0.089349  -0.002681  3.655026  -0.003  -0.12629  -0.000771  3.90572  -0.001  -0.125482  -0.000136  3.922377  -0.001  -0.004646  -0.126789  -0.001343  3.894974  -0.002
C  C85  1  0.98730615  0.29582649  0.98312323  1  -0.08901  -0.002695  3.654803  -0.003  -0.126026  -0.000771  3.905454  -0.001  -0.125213  -0.000136  3.922127  -0.001  -0.004542  -0.126524  -0.001343  3.894703  -0.002
C  C86  1  0.16570120  0.93384830  0.00036757  1  0.007279  -0.000395  3.634783  -0.001  -0.059492  -0.000325  3.902644  0.0  -0.055066  -0.000227  3.91365  0.0  -0.049171  -0.062124  -0.000442  3.89501  0.0
C  C87  1  0.83429963  0.06614853  0.99963065  1  0.007119  -0.000412  3.63501  -0.001  -0.059644  -0.000326  3.902811  0.0  -0.055218  -0.000229  3.913817  0.0  -0.049184  -0.062268  -0.000442  3.895173  0.0
C  C88  1  0.30614846  0.89815643  0.97832952  1  -0.125978  -6.4e-05  3.702727  0.0  -0.167763  -0.000129  3.966946  0.0  -0.169306  -9.3e-05  3.981642  0.0  -0.164509  -0.166417  -0.000165  3.956755  0.0
C  C89  1  0.69385072  0.10183741  0.02166467  1  -0.125898  -6.2e-05  3.702661  0.0  -0.167682  -0.000128  3.966855  0.0  -0.169219  -9.1e-05  3.981544  0.0  -0.164513  -0.166332  -0.000165  3.956654  0.0
C  C90  1  0.42902407  0.01989048  0.00492580  1  -0.105236  -4e-05  3.704782  0.0  -0.14171  -3.7e-05  3.959959  0.0  -0.142849  -2.1e-05  3.97518  0.0  -0.166822  -0.140674  -5.4e-05  3.949685  0.0
C  C91  1  0.57097613  0.98010334  0.99507033  1  -0.105114  -4.4e-05  3.704883  0.0  -0.141573  -3.8e-05  3.960082  0.0  -0.142699  -2.3e-05  3.975287  0.0  -0.166722  -0.140541  -5.4e-05  3.949819  0.0
N  N92  1  0.79514949  0.58602083  0.53012213  1  -0.383699  -0.042657  3.380963  -0.066  -0.341129  -0.030548  3.707302  -0.039  -0.372579  -0.023995  3.723355  -0.029  -0.369849  -0.317129  -0.036463  3.696101  -0.047
N  N93  1  0.20484805  0.41398004  0.46987683  1  -0.383624  -0.04266  3.381088  -0.066  -0.341061  -0.030546  3.707416  -0.039  -0.37251  -0.023994  3.72347  -0.029  -0.369836  -0.31706  -0.03646  3.696205  -0.047
N  N94  1  0.79298232  0.50523129  0.33904922  1  -0.063372  -0.00142  3.57015  -0.003  0.032751  -0.00173  3.787981  -0.003  0.018255  -0.001297  3.813506  -0.002  -0.243317  0.042319  -0.002135  3.770866  -0.003
N  N95  1  0.20701520  0.49476956  0.66095065  1  -0.063377  -0.001418  3.570188  -0.003  0.032726  -0.00173  3.788048  -0.003  0.018235  -0.001297  3.813579  -0.002  -0.243285  0.042288  -0.002135  3.770937  -0.003
N  N96  1  0.87190122  0.68462506  0.83370394  1  -0.380716  -0.036174  3.354578  -0.054  -0.336428  -0.026525  3.678264  -0.03  -0.36558  -0.020591  3.689797  -0.022  -0.36748  -0.314446  -0.031972  3.670488  -0.037
N  N97  1  0.12810328  0.31537386  0.16628764  1  -0.380582  -0.036181  3.354532  -0.054  -0.336292  -0.026525  3.67822  -0.03  -0.365443  -0.02059  3.689754  -0.022  -0.367454  -0.314317  -0.031971  3.670447  -0.037
N  N98  1  0.04633628  0.82072505  0.95918498  1  -0.069926  -0.001974  3.606718  -0.004  0.025123  -0.002216  3.8272  -0.004  0.010843  -0.001716  3.853155  -0.003  -0.249698  0.034333  -0.002662  3.809951  -0.004
N  N99  1  0.95366460  0.17927682  0.04081449  1  -0.069951  -0.001969  3.606567  -0.003  0.025084  -0.002216  3.8271  -0.004  0.010805  -0.001717  3.853054  -0.003  -0.249719  0.034299  -0.002663  3.80984  -0.004
O  O100  1  0.56986328  0.72349632  0.67468990  1  -0.616389  -0.055475  2.016883  -0.094  -0.580448  -0.040208  2.29261  -0.063  -0.623233  -0.029553  2.282794  -0.046  -0.325779  -0.546089  -0.0502  2.299481  -0.077
O  O101  1  0.43013720  0.27650356  0.32530666  1  -0.616415  -0.055476  2.016918  -0.094  -0.580451  -0.040209  2.292647  -0.063  -0.623233  -0.029554  2.282832  -0.046  -0.325788  -0.546086  -0.050201  2.299515  -0.077
O  O102  1  0.77127960  0.86282218  0.65271207  1  -0.614012  -0.018272  1.967399  -0.034  -0.571915  -0.017861  2.203931  -0.032  -0.603638  -0.012818  2.198357  -0.024  -0.306387  -0.546446  -0.023371  2.206243  -0.041
O  O103  1  0.22872237  0.13718473  0.34728878  1  -0.613939  -0.018278  1.967493  -0.034  -0.571807  -0.017863  2.204007  -0.032  -0.603548  -0.01282  2.198469  -0.024  -0.306298  -0.546341  -0.023373  2.206341  -0.041
O  O104  1  0.79919548  0.35477892  0.74623372  1  -0.630474  -0.002983  1.970686  -0.005  -0.590332  -0.004864  2.208087  -0.008  -0.615295  -0.003507  2.199304  -0.006  -0.321236  -0.571003  -0.006514  2.213128  -0.01
O  O105  1  0.20080542  0.64522710  0.25375424  1  -0.630465  -0.002982  1.970517  -0.005  -0.59029  -0.004864  2.207888  -0.008  -0.615292  -0.003506  2.1992  -0.006  -0.321201  -0.570962  -0.006514  2.212936  -0.01
O  O106  1  0.60296200  0.43738475  0.69057540  1  -0.623426  -0.052329  2.087622  -0.089  -0.582143  -0.038681  2.369097  -0.059  -0.623866  -0.029154  2.357028  -0.045  -0.326232  -0.549437  -0.047384  2.37829  -0.072
O  O107  1  0.39703393  0.56261815  0.30942168  1  -0.623321  -0.05232  2.087656  -0.089  -0.582032  -0.038676  2.369134  -0.059  -0.623748  -0.02915  2.357068  -0.045  -0.326154  -0.549321  -0.047378  2.378326  -0.072
