# generated using pymatgen
data_CdH6C12N2(O2F)2
_symmetry_space_group_name_H-M   'P 1'
_cell_length_a   9.68120186
_cell_length_b   10.98355280
_cell_length_c   12.97515028
_cell_angle_alpha   107.36142462
_cell_angle_beta   89.99950074
_cell_angle_gamma   90.00003613
_symmetry_Int_Tables_number   1
_chemical_formula_structural   CdH6C12N2(O2F)2
_chemical_formula_sum   'Cd4 H24 C48 N8 O16 F8'
_cell_volume   1316.84240812
_cell_formula_units_Z   4
loop_
 _symmetry_equiv_pos_site_id
 _symmetry_equiv_pos_as_xyz
  1  'x, y, z'
loop_
 _atom_site_type_symbol
 _atom_site_label
 _atom_site_symmetry_multiplicity
 _atom_site_fract_x
 _atom_site_fract_y
 _atom_site_fract_z
 _atom_site_occupancy
 _atom_site_hle17_bader_spin_density
 _atom_site_hle17_ddec_charge
 _atom_site_hle17_ddec_spin_density
 _atom_site_hle17_ddec_sum_bond_order
 _atom_site_hle17_magmom
 _atom_site_hse06_10hf_bader_spin_density
 _atom_site_hse06_10hf_ddec_charge
 _atom_site_hse06_10hf_ddec_spin_density
 _atom_site_hse06_10hf_ddec_sum_bond_order
 _atom_site_hse06_10hf_magmom
 _atom_site_hse06_bader_spin_density
 _atom_site_hse06_ddec_charge
 _atom_site_hse06_ddec_spin_density
 _atom_site_hse06_ddec_sum_bond_order
 _atom_site_hse06_magmom
 _atom_site_pbe_bader_spin_density
 _atom_site_pbe_cm5_charge
 _atom_site_pbe_ddec_charge
 _atom_site_pbe_ddec_spin_density
 _atom_site_pbe_ddec_sum_bond_order
 _atom_site_pbe_magmom
Cd  Cd0  1  0.62948047  0.09273570  0.41475681  1  0  1.13957  0  1.685849  0  0  0.945998  0  2.139644  0  0  1.004147  0  2.086323  0  0  0.786149  0.904248  0  2.17642  0
Cd  Cd1  1  0.12948566  0.40726473  0.08524377  1  0  1.139632  0  1.685793  0  0  0.946049  0  2.139581  0  0  1.004199  0  2.086254  0  0  0.786157  0.9043  0  2.176356  0
Cd  Cd2  1  0.37051609  0.90726469  0.58524288  1  0  1.139546  0  1.685861  0  0  0.945958  0  2.139664  0  0  1.004115  0  2.086336  0  0  0.786131  0.904209  0  2.176437  0
Cd  Cd3  1  0.87051503  0.59273187  0.91475654  1  0  1.139605  0  1.68587  0  0  0.946043  0  2.139675  0  0  1.004194  0  2.086347  0  0  0.786158  0.904293  0  2.176454  0
H  H4  1  0.41442735  0.20211513  0.28843053  1  0  0.110775  0  0.923932  0  0  0.114076  0  0.992409  0  0  0.118157  0  0.987873  0  0  0.123937  0.11097  0  0.995978  0
H  H5  1  0.91443083  0.29789331  0.21156932  1  0  0.110801  0  0.923883  0  0  0.114078  0  0.992393  0  0  0.118159  0  0.987856  0  0  0.123929  0.110991  0  0.995942  0
H  H6  1  0.58557437  0.79789100  0.71157133  1  0  0.110829  0  0.923879  0  0  0.114107  0  0.99237  0  0  0.118188  0  0.987834  0  0  0.123945  0.111021  0  0.995917  0
H  H7  1  0.08558433  0.70209658  0.78842704  1  0  0.110838  0  0.923835  0  0  0.114091  0  0.992352  0  0  0.118173  0  0.987817  0  0  0.123923  0.110999  0  0.995907  0
H  H8  1  0.51174506  0.33127542  0.61602358  1  0  0.105489  0  0.944152  0  0  0.11275  0  1.009056  0  0  0.115187  0  1.007542  0  0  0.120067  0.110833  0  1.010438  0
H  H9  1  0.01175597  0.16871057  0.88397723  1  0  0.105478  0  0.944172  0  0  0.112803  0  1.009  0  0  0.11522  0  1.007505  0  0  0.120022  0.110886  0  1.01038  0
H  H10  1  0.48825873  0.66872880  0.38397781  1  0  0.105491  0  0.944179  0  0  0.112734  0  1.009097  0  0  0.11519  0  1.00756  0  0  0.120043  0.110817  0  1.010478  0
H  H11  1  0.98823956  0.83128122  0.11601882  1  0  0.105413  0  0.944371  0  0  0.112744  0  1.009196  0  0  0.115159  0  1.007702  0  0  0.119992  0.11083  0  1.010574  0
H  H12  1  0.19985998  0.53200598  0.49180461  1  0  0.157597  0  0.896622  0  0  0.167596  0  0.951461  0  0  0.172186  0  0.947157  0  0  0.12914  0.164114  0  0.954912  0
H  H13  1  0.69985661  0.96800669  0.00820616  1  0  0.157553  0  0.896744  0  0  0.167549  0  0.951579  0  0  0.172147  0  0.947266  0  0  0.12912  0.164069  0  0.955028  0
H  H14  1  0.80014071  0.46799828  0.50819910  1  0  0.157621  0  0.896597  0  0  0.167597  0  0.951457  0  0  0.172195  0  0.947143  0  0  0.129144  0.164118  0  0.954902  0
H  H15  1  0.30014512  0.03199381  0.99180126  1  0  0.157589  0  0.896598  0  0  0.167586  0  0.951444  0  0  0.172177  0  0.94714  0  0  0.12911  0.164105  0  0.954893  0
H  H16  1  0.50974605  0.10592566  0.83416903  1  0  0.163006  0  0.956094  0  0  0.16852  0  1.020892  0  0  0.173588  0  1.015606  0  0  0.121332  0.164792  0  1.0248  0
H  H17  1  0.00974928  0.39407544  0.66582468  1  0  0.163002  0  0.956037  0  0  0.168534  0  1.02084  0  0  0.173603  0  1.015554  0  0  0.121328  0.164804  0  1.02475  0
H  H18  1  0.49025258  0.89407077  0.16581968  1  0  0.162966  0  0.95608  0  0  0.168487  0  1.0209  0  0  0.173555  0  1.015619  0  0  0.121301  0.164759  0  1.024809  0
H  H19  1  0.99024831  0.60592698  0.33418398  1  0  0.162989  0  0.95606  0  0  0.16848  0  1.020912  0  0  0.173545  0  1.015637  0  0  0.121294  0.164753  0  1.02482  0
H  H20  1  0.67436138  0.45292416  0.05481800  1  0  0.118409  0  0.924525  0  0  0.12415  0  0.988142  0  0  0.127825  0  0.984769  0  0  0.125127  0.121353  0  0.990788  0
H  H21  1  0.17436013  0.04706759  0.44517939  1  0  0.11842  0  0.924459  0  0  0.124137  0  0.988102  0  0  0.127814  0  0.984728  0  0  0.125136  0.121343  0  0.990743  0
H  H22  1  0.32562898  0.54707047  0.94517797  1  0  0.118409  0  0.924517  0  0  0.124119  0  0.988176  0  0  0.127794  0  0.984804  0  0  0.125119  0.121324  0  0.990822  0
H  H23  1  0.82563643  0.95293943  0.55481882  1  0  0.118393  0  0.92449  0  0  0.124125  0  0.988116  0  0  0.127799  0  0.984744  0  0  0.125128  0.12133  0  0.990759  0
H  H24  1  0.79021087  0.35385365  0.73163736  1  0  0.097875  0  0.971232  0  0  0.101211  0  1.043458  0  0  0.104386  0  1.040563  0  0  0.116273  0.098798  0  1.04574  0
H  H25  1  0.29020448  0.14614218  0.76835782  1  0  0.097945  0  0.971198  0  0  0.101282  0  1.043421  0  0  0.10446  0  1.040521  0  0  0.116311  0.098869  0  1.045704  0
H  H26  1  0.20978775  0.64614859  0.26835892  1  0  0.097918  0  0.971234  0  0  0.101249  0  1.043458  0  0  0.104426  0  1.04056  0  0  0.11629  0.098835  0  1.045743  0
H  H27  1  0.70979104  0.85384963  0.23163978  1  0  0.097943  0  0.97125  0  0  0.101276  0  1.043466  0  0  0.104452  0  1.040569  0  0  0.116294  0.098862  0  1.045749  0
C  C28  1  0.22460600  0.38004701  0.27929392  1  0  0.625464  0  3.96456  0  0  0.577648  0  4.253704  0  0  0.611819  0  4.249189  0  0  0.19196  0.554595  0  4.255813  0
C  C29  1  0.72460510  0.11997328  0.22071162  1  0  0.625272  0  3.96481  0  0  0.577548  0  4.253927  0  0  0.611721  0  4.249411  0  0  0.191882  0.55449  0  4.25604  0
C  C30  1  0.77539676  0.61996103  0.72070840  1  0  0.625394  0  3.964737  0  0  0.57759  0  4.253883  0  0  0.61176  0  4.249371  0  0  0.191891  0.554537  0  4.255995  0
C  C31  1  0.27539869  0.88002999  0.77929031  1  0  0.625412  0  3.964709  0  0  0.577575  0  4.253892  0  0  0.611745  0  4.249381  0  0  0.191887  0.554513  0  4.255997  0
C  C32  1  0.29825435  0.36831694  0.37793088  1  0  -0.062496  0  3.720756  0  0  -0.03793  0  3.963022  0  0  -0.048163  0  3.984704  0  0  -0.003669  -0.031762  0  3.948943  0
C  C33  1  0.79825355  0.13169371  0.12207568  1  0  -0.062281  0  3.720406  0  0  -0.037974  0  3.962947  0  0  -0.048208  0  3.984629  0  0  -0.003735  -0.031803  0  3.948874  0
C  C34  1  0.70174738  0.63169108  0.62207066  1  0  -0.062447  0  3.720833  0  0  -0.03791  0  3.963095  0  0  -0.048142  0  3.984778  0  0  -0.003648  -0.031745  0  3.949024  0
C  C35  1  0.20175127  0.86830008  0.87792780  1  0  -0.062472  0  3.720951  0  0  -0.037915  0  3.963218  0  0  -0.048144  0  3.984899  0  0  -0.003713  -0.031748  0  3.949141  0
C  C36  1  0.39506260  0.27083898  0.36715108  1  0  0.120199  0  3.64039  0  0  0.069454  0  3.900515  0  0  0.078573  0  3.916035  0  0  0.05404  0.063327  0  3.890459  0
C  C37  1  0.89506692  0.22916664  0.13284821  1  0  0.120236  0  3.640229  0  0  0.069592  0  3.900418  0  0  0.078711  0  3.915942  0  0  0.054123  0.063448  0  3.890359  0
C  C38  1  0.60493810  0.72916526  0.63285185  1  0  0.120079  0  3.64036  0  0  0.0694  0  3.90047  0  0  0.078514  0  3.915995  0  0  0.053999  0.063259  0  3.890409  0
C  C39  1  0.10494824  0.77083086  0.86714846  1  0  0.120075  0  3.640513  0  0  0.069429  0  3.900586  0  0  0.078542  0  3.916113  0  0  0.054049  0.063292  0  3.890523  0
C  C40  1  0.44888342  0.34174030  0.54954959  1  0  0.006534  0  3.713856  0  0  -0.040013  0  3.978753  0  0  -0.034913  0  3.997381  0  0  0.034169  -0.043315  0  3.966531  0
C  C41  1  0.94889027  0.15825436  0.95045118  1  0  0.00646  0  3.713984  0  0  -0.040135  0  3.978881  0  0  -0.035009  0  3.997495  0  0  0.034181  -0.043435  0  3.966661  0
C  C42  1  0.55111831  0.65826582  0.45045149  1  0  0.006582  0  3.713769  0  0  -0.039943  0  3.978676  0  0  -0.034856  0  3.99729  0  0  0.034295  -0.043244  0  3.96645  0
C  C43  1  0.05110836  0.84173751  0.04955106  1  0  0.00662  0  3.713892  0  0  -0.040018  0  3.978786  0  0  -0.03489  0  3.997402  0  0  0.03431  -0.04332  0  3.966556  0
C  C44  1  0.35270832  0.43960048  0.56515781  1  0  0.256295  0  3.80693  0  0  0.246347  0  4.097519  0  0  0.250787  0  4.111927  0  0  0.10218  0.242336  0  4.088812  0
C  C45  1  0.85270908  0.06040200  0.93484550  1  0  0.256373  0  3.807028  0  0  0.24642  0  4.0976  0  0  0.250871  0  4.111988  0  0  0.102193  0.242412  0  4.088886  0
C  C46  1  0.64729237  0.56040090  0.43484443  1  0  0.256291  0  3.80695  0  0  0.246362  0  4.097497  0  0  0.250809  0  4.111903  0  0  0.102172  0.242359  0  4.088779  0
C  C47  1  0.14728645  0.93959936  0.06515519  1  0  0.256252  0  3.806996  0  0  0.246385  0  4.097496  0  0  0.250843  0  4.111878  0  0  0.102203  0.242381  0  4.088779  0
C  C48  1  0.27501908  0.45507692  0.47997776  1  0  -0.123269  0  3.655253  0  0  -0.167657  0  3.913446  0  0  -0.164849  0  3.927949  0  0  -0.062399  -0.169336  0  3.904304  0
C  C49  1  0.77501628  0.04493380  0.02003052  1  0  -0.123338  0  3.655225  0  0  -0.167651  0  3.913465  0  0  -0.164843  0  3.927952  0  0  -0.062417  -0.169331  0  3.904319  0
C  C50  1  0.72498161  0.54492829  0.52002696  1  0  -0.123304  0  3.655393  0  0  -0.16768  0  3.913594  0  0  -0.164877  0  3.928088  0  0  -0.062432  -0.169353  0  3.90444  0
C  C51  1  0.22498648  0.95506091  0.97997088  1  0  -0.123206  0  3.655122  0  0  -0.167651  0  3.913326  0  0  -0.16484  0  3.927818  0  0  -0.062356  -0.169325  0  3.904172  0
C  C52  1  0.64286487  0.13920533  0.65191491  1  0  0.647325  0  3.948667  0  0  0.59637  0  4.241809  0  0  0.631883  0  4.234143  0  0  0.201577  0.572127  0  4.246248  0
C  C53  1  0.14285257  0.36078977  0.84807645  1  0  0.64746  0  3.948107  0  0  0.59638  0  4.241412  0  0  0.631914  0  4.23371  0  0  0.201512  0.572139  0  4.245851  0
C  C54  1  0.35714202  0.86079781  0.34807774  1  0  0.647408  0  3.948263  0  0  0.596391  0  4.241476  0  0  0.631914  0  4.233788  0  0  0.201643  0.572152  0  4.245918  0
C  C55  1  0.85714605  0.63920117  0.15192711  1  0  0.647058  0  3.948422  0  0  0.596024  0  4.241683  0  0  0.631552  0  4.233994  0  0  0.201398  0.57178  0  4.246118  0
C  C56  1  0.64990675  0.21942057  0.76829957  1  0  -0.085956  0  3.747703  0  0  -0.058728  0  3.987793  0  0  -0.070612  0  4.010878  0  0  -0.013233  -0.051295  0  3.972662  0
C  C57  1  0.14990295  0.28057553  0.73169584  1  0  -0.086091  0  3.747888  0  0  -0.058774  0  3.987966  0  0  -0.070666  0  4.011051  0  0  -0.013224  -0.051344  0  3.97284  0
C  C58  1  0.35009601  0.78057784  0.23169424  1  0  -0.086093  0  3.747767  0  0  -0.058828  0  3.987886  0  0  -0.070713  0  4.010969  0  0  -0.01326  -0.051398  0  3.972759  0
C  C59  1  0.85009981  0.71942012  0.26830501  1  0  -0.085924  0  3.747821  0  0  -0.05863  0  3.987901  0  0  -0.070518  0  4.010983  0  0  -0.013197  -0.051198  0  3.972772  0
C  C60  1  0.57411507  0.19122803  0.85002590  1  0  -0.125882  0  3.647071  0  0  -0.170301  0  3.904416  0  0  -0.16714  0  3.918757  0  0  -0.067715  -0.171949  0  3.89503  0
C  C61  1  0.07411738  0.30876817  0.64996618  1  0  -0.125841  0  3.647246  0  0  -0.170317  0  3.904676  0  0  -0.167154  0  3.919014  0  0  -0.067733  -0.171966  0  3.895296  0
C  C62  1  0.42588253  0.80876841  0.14996358  1  0  -0.125759  0  3.647215  0  0  -0.17027  0  3.904686  0  0  -0.167106  0  3.919017  0  0  -0.067728  -0.171919  0  3.895305  0
C  C63  1  0.92587815  0.69122851  0.35003954  1  0  -0.125872  0  3.647162  0  0  -0.170384  0  3.904659  0  0  -0.167217  0  3.918986  0  0  -0.067773  -0.172035  0  3.895281  0
C  C64  1  0.58416595  0.27693277  0.95303632  1  0  0.263712  0  3.787427  0  0  0.252696  0  4.078357  0  0  0.257246  0  4.091496  0  0  0.106634  0.248655  0  4.070131  0
C  C65  1  0.08417144  0.22306350  0.54696188  1  0  0.263869  0  3.787455  0  0  0.252767  0  4.078496  0  0  0.257315  0  4.091636  0  0  0.10663  0.248726  0  4.070273  0
C  C66  1  0.41582648  0.72306277  0.04695680  1  0  0.263849  0  3.787362  0  0  0.252821  0  4.078351  0  0  0.25737  0  4.091486  0  0  0.106675  0.24878  0  4.070126  0
C  C67  1  0.91582926  0.77694270  0.45304461  1  0  0.263836  0  3.78732  0  0  0.252799  0  4.078299  0  0  0.25735  0  4.091432  0  0  0.10666  0.24876  0  4.070077  0
C  C68  1  0.66619495  0.38570796  0.97412072  1  0  0.022936  0  3.681278  0  0  -0.0259  0  3.947988  0  0  -0.019302  0  3.963224  0  0  0.041426  -0.030003  0  3.937771  0
C  C69  1  0.16619439  0.11428530  0.52587774  1  0  0.022894  0  3.681353  0  0  -0.025884  0  3.948064  0  0  -0.019282  0  3.963296  0  0  0.041422  -0.02999  0  3.937851  0
C  C70  1  0.33379852  0.61428667  0.02587525  1  0  0.023002  0  3.681334  0  0  -0.025802  0  3.948027  0  0  -0.019202  0  3.963262  0  0  0.041462  -0.029911  0  3.937813  0
C  C71  1  0.83380114  0.88571986  0.47412311  1  0  0.022932  0  3.6813  0  0  -0.025848  0  3.947957  0  0  -0.019246  0  3.96319  0  0  0.041444  -0.029953  0  3.937741  0
C  C72  1  0.73123436  0.32946396  0.79409245  1  0  0.09878  0  3.684835  0  0  0.050849  0  3.940168  0  0  0.059732  0  3.957066  0  0  0.041344  0.045144  0  3.92883  0
C  C73  1  0.23123180  0.17053582  0.70590562  1  0  0.098799  0  3.684819  0  0  0.050826  0  3.940182  0  0  0.059709  0  3.957082  0  0  0.041331  0.045121  0  3.928845  0
C  C74  1  0.26876323  0.67053924  0.20590483  1  0  0.098782  0  3.684864  0  0  0.050869  0  3.940148  0  0  0.059752  0  3.957046  0  0  0.041348  0.045165  0  3.928812  0
C  C75  1  0.76876166  0.82945983  0.29409523  1  0  0.098663  0  3.684848  0  0  0.050733  0  3.940179  0  0  0.059615  0  3.95708  0  0  0.04133  0.045028  0  3.928842  0
N  N76  1  0.46807165  0.25809103  0.45126931  1  0  -0.30135  0  3.284821  0  0  -0.220188  0  3.556616  0  0  -0.240853  0  3.577371  0  0  -0.32163  -0.20599  0  3.542208  0
N  N77  1  0.96808313  0.24190495  0.04873023  1  0  -0.301383  0  3.284693  0  0  -0.220262  0  3.55654  0  0  -0.240923  0  3.577274  0  0  -0.321621  -0.206066  0  3.542142  0
N  N78  1  0.53193215  0.74191603  0.54873123  1  0  -0.301328  0  3.284818  0  0  -0.220214  0  3.556609  0  0  -0.24088  0  3.57737  0  0  -0.321679  -0.20602  0  3.542214  0
N  N79  1  0.03192273  0.75808689  0.95126969  1  0  -0.301329  0  3.284636  0  0  -0.220223  0  3.556499  0  0  -0.240888  0  3.577245  0  0  -0.32169  -0.206027  0  3.542099  0
N  N80  1  0.73883928  0.41030762  0.89433833  1  0  -0.303582  0  3.297874  0  0  -0.222137  0  3.56903  0  0  -0.242737  0  3.588831  0  0  -0.326609  -0.208151  0  3.555271  0
N  N81  1  0.23883573  0.08968451  0.60565706  1  0  -0.303602  0  3.297837  0  0  -0.222125  0  3.568939  0  0  -0.242726  0  3.588738  0  0  -0.32661  -0.20814  0  3.555183  0
N  N82  1  0.26115831  0.58969081  0.10565780  1  0  -0.303648  0  3.297924  0  0  -0.222182  0  3.569016  0  0  -0.242782  0  3.588819  0  0  -0.326636  -0.208196  0  3.555259  0
N  N83  1  0.76116083  0.91031299  0.39433961  1  0  -0.303502  0  3.297903  0  0  -0.222071  0  3.569023  0  0  -0.24267  0  3.588825  0  0  -0.32662  -0.208084  0  3.555264  0
O  O84  1  0.12335407  0.45646064  0.29168696  1  0  -0.636437  0  1.959345  0  0  -0.580655  0  2.190879  0  0  -0.608316  0  2.181005  0  0  -0.326786  -0.561054  0  2.196798  0
O  O85  1  0.62335222  0.04355423  0.20832488  1  0  -0.636348  0  1.959256  0  0  -0.580585  0  2.190789  0  0  -0.608251  0  2.180916  0  0  -0.326742  -0.560979  0  2.196705  0
O  O86  1  0.87664973  0.54354455  0.70831621  1  0  -0.636385  0  1.959298  0  0  -0.580627  0  2.190847  0  0  -0.608291  0  2.180976  0  0  -0.32674  -0.561024  0  2.196765  0
O  O87  1  0.37665570  0.95644623  0.79167945  1  0  -0.636395  0  1.959191  0  0  -0.580646  0  2.190778  0  0  -0.60831  0  2.180904  0  0  -0.326775  -0.56104  0  2.196691  0
O  O88  1  0.27131041  0.31448196  0.18771011  1  0  -0.6216  0  1.947546  0  0  -0.569995  0  2.184864  0  0  -0.598043  0  2.174415  0  0  -0.331868  -0.550385  0  2.191327  0
O  O89  1  0.77129922  0.18554301  0.31229702  1  0  -0.621571  0  1.947686  0  0  -0.569995  0  2.185024  0  0  -0.598043  0  2.174574  0  0  -0.331803  -0.550381  0  2.191481  0
O  O90  1  0.72869132  0.68552324  0.81229383  1  0  -0.621579  0  1.947655  0  0  -0.569986  0  2.184989  0  0  -0.598033  0  2.17454  0  0  -0.331832  -0.550377  0  2.191457  0
O  O91  1  0.22869940  0.81446028  0.68770568  1  0  -0.62155  0  1.94767  0  0  -0.569933  0  2.184997  0  0  -0.597982  0  2.174551  0  0  -0.331767  -0.55032  0  2.191459  0
O  O92  1  0.71382339  0.18046244  0.58598104  1  0  -0.637328  0  1.978898  0  0  -0.575272  0  2.225305  0  0  -0.603907  0  2.213799  0  0  -0.332046  -0.555196  0  2.232502  0
O  O93  1  0.21381341  0.31953168  0.91401732  1  0  -0.637527  0  1.978692  0  0  -0.575395  0  2.225109  0  0  -0.604039  0  2.21359  0  0  -0.332067  -0.555309  0  2.232282  0
O  O94  1  0.28619279  0.81953695  0.41401532  1  0  -0.637434  0  1.978794  0  0  -0.575325  0  2.22519  0  0  -0.603977  0  2.213696  0  0  -0.332092  -0.555231  0  2.232338  0
O  O95  1  0.78619038  0.68045449  0.08598431  1  0  -0.637318  0  1.978703  0  0  -0.575222  0  2.225119  0  0  -0.603861  0  2.213604  0  0  -0.332063  -0.555141  0  2.232304  0
O  O96  1  0.56845170  0.04045988  0.62526295  1  0  -0.659416  0  2.047646  0  0  -0.601086  0  2.317648  0  0  -0.628983  0  2.304637  0  0  -0.333385  -0.581275  0  2.326099  0
O  O97  1  0.06845054  0.45954774  0.87472964  1  0  -0.659387  0  2.047364  0  0  -0.601038  0  2.317438  0  0  -0.628939  0  2.304416  0  0  -0.333331  -0.581225  0  2.325887  0
O  O98  1  0.43154073  0.95954980  0.37472204  1  0  -0.659421  0  2.047648  0  0  -0.601087  0  2.317686  0  0  -0.628983  0  2.304668  0  0  -0.33342  -0.581275  0  2.326133  0
O  O99  1  0.93155222  0.54044805  0.12528050  1  0  -0.659248  0  2.047626  0  0  -0.600885  0  2.317635  0  0  -0.628787  0  2.304622  0  0  -0.333228  -0.581066  0  2.326076  0
F  F100  1  0.33614682  0.52041935  0.66637353  1  0  -0.193769  0  1.190761  0  0  -0.135408  0  1.335028  0  0  -0.145729  0  1.328654  0  0  -0.091433  -0.126104  0  1.336859  0
F  F101  1  0.83613665  0.97958589  0.83363054  1  0  -0.193808  0  1.190758  0  0  -0.135413  0  1.334994  0  0  -0.145771  0  1.328655  0  0  -0.091429  -0.126125  0  1.336846  0
F  F102  1  0.66384974  0.47958299  0.33362972  1  0  -0.193802  0  1.190748  0  0  -0.135418  0  1.33498  0  0  -0.145762  0  1.32863  0  0  -0.091458  -0.126139  0  1.336835  0
F  F103  1  0.16384752  0.02041164  0.16636845  1  0  -0.193773  0  1.190922  0  0  -0.135394  0  1.335121  0  0  -0.145762  0  1.328785  0  0  -0.091441  -0.126112  0  1.336973  0
F  F104  1  0.51353944  0.25503893  0.03577637  1  0  -0.182889  0  1.212879  0  0  -0.122374  0  1.358087  0  0  -0.131941  0  1.350173  0  0  -0.084573  -0.115462  0  1.363697  0
F  F105  1  0.01354639  0.24495972  0.46421684  1  0  -0.182984  0  1.212694  0  0  -0.122417  0  1.357906  0  0  -0.131986  0  1.34999  0  0  -0.08455  -0.115506  0  1.363516  0
F  F106  1  0.48644989  0.74495369  0.96421218  1  0  -0.183044  0  1.212775  0  0  -0.122482  0  1.357961  0  0  -0.132052  0  1.350039  0  0  -0.084583  -0.11557  0  1.36357  0
F  F107  1  0.98645017  0.75505216  0.53578795  1  0  -0.182974  0  1.212811  0  0  -0.122417  0  1.358001  0  0  -0.131988  0  1.350081  0  0  -0.084531  -0.115508  0  1.363613  0
