# generated using pymatgen
data_AlH7C13BrO6
_symmetry_space_group_name_H-M   'P 1'
_cell_length_a   6.60441186
_cell_length_b   11.16750622
_cell_length_c   15.24982117
_cell_angle_alpha   84.25619522
_cell_angle_beta   78.43182376
_cell_angle_gamma   71.23138153
_symmetry_Int_Tables_number   1
_chemical_formula_structural   AlH7C13BrO6
_chemical_formula_sum   'Al2 H14 C26 Br2 O12'
_cell_volume   1042.54067164
_cell_formula_units_Z   2
loop_
 _symmetry_equiv_pos_site_id
 _symmetry_equiv_pos_as_xyz
  1  'x, y, z'
loop_
 _atom_site_type_symbol
 _atom_site_label
 _atom_site_symmetry_multiplicity
 _atom_site_fract_x
 _atom_site_fract_y
 _atom_site_fract_z
 _atom_site_occupancy
 _atom_site_pbe_bader_charge
 _atom_site_pbe_bader_spin_density
 _atom_site_pbe_cm5_charge
 _atom_site_pbe_ddec_charge
 _atom_site_pbe_ddec_spin_density
 _atom_site_pbe_ddec_sum_bond_order
 _atom_site_pbe_magmom
Al  Al0  1  0.50331201  0.49549064  0.50047632  1  2.502607  0  0.392289  1.641141  0  2.579519  0
Al  Al1  1  0.00564256  0.48878937  0.50347216  1  2.50269  0  0.393229  1.638583  0  2.5803  0
H  H2  1  0.25719952  0.41284501  0.60603161  1  0.624563  0  0.351835  0.427943  0  0.860279  0
H  H3  1  0.70935801  0.64399913  0.45190491  1  0.636468  0  0.338917  0.41422  0  0.894638  0
H  H4  1  0.89157969  0.55994286  0.77773256  1  0.094798  0  0.107205  0.121499  0  1.012906  0
H  H5  1  0.20154601  0.37051572  0.23103248  1  0.100947  0  0.106876  0.120955  0  1.011166  0
H  H6  1  0.49761334  0.66145714  0.23194160  1  0.080017  0  0.097559  0.10316  0  1.034586  0
H  H7  1  0.55918651  0.67475160  0.06705072  1  0.098854  0  0.105615  0.115437  0  1.008774  0
H  H8  1  0.32197280  0.45802504  0.76997514  1  0.068483  0  0.10163  0.104777  0  1.01877  0
H  H9  1  0.22618522  0.46517877  0.93534212  1  0.092558  0  0.102559  0.10594  0  1.048364  0
H  H10  1  0.26324426  0.22212643  0.38208941  1  0.122665  0  0.112952  0.136964  0  1.018565  0
H  H11  1  0.46421120  0.75292621  0.38232103  1  0.091688  0  0.112423  0.125137  0  1.039897  0
H  H12  1  0.74795697  0.88328628  0.55702271  1  0.07302  0  0.112715  0.119972  0  0.976964  0
H  H13  1  0.63355054  0.12037203  0.54562856  1  0.090227  0  0.115093  0.123916  0  0.975882  0
H  H14  1  0.93876040  0.59671627  0.91084419  1  0.604515  0  0.328451  0.356273  0  0.900927  0
H  H15  1  0.22459571  0.29682113  0.10079064  1  0.61002  0  0.341629  0.371167  0  0.864298  0
C  C16  1  0.87073840  0.26841375  0.48395005  1  1.558315  0  0.271271  0.645  0  4.093201  0
C  C17  1  0.68121070  0.49474789  0.66465289  1  1.533064  0  0.266728  0.644784  0  4.082978  0
C  C18  1  0.13749410  0.72165065  0.50180752  1  1.573733  0  0.266218  0.644628  0  4.097215  0
C  C19  1  0.31136361  0.50142592  0.34142072  1  1.546797  0  0.266051  0.633933  0  4.098209  0
C  C20  1  0.61434543  0.50758566  0.76320123  1  0.050183  0  -0.020869  -0.021259  0  4.024174  0
C  C21  1  0.34754360  0.51361272  0.24211211  1  0.012558  0  -0.017568  -0.013574  0  4.027078  0
C  C22  1  0.74262518  0.54141421  0.81270251  1  -0.063601  0  -0.104294  -0.243201  0  3.9934  0
C  C23  1  0.68416508  0.55104109  0.90557203  1  0.465257  0  0.08494  0.267715  0  4.039838  0
C  C24  1  0.28374817  0.43591652  0.19439814  1  0.016038  0  -0.108338  -0.257084  0  4.030344  0
C  C25  1  0.33303854  0.43659188  0.10112206  1  0.420086  0  0.082822  0.26855  0  4.049007  0
C  C26  1  0.44847053  0.59969473  0.19538350  1  0.069732  0  -0.099832  -0.123393  0  4.00847  0
C  C27  1  0.48571555  0.60534329  0.10235411  1  -0.136346  0  -0.089602  -0.104655  0  3.981303  0
C  C28  1  0.42326167  0.48398302  0.80809736  1  -0.064268  0  -0.10135  -0.12634  0  4.038046  0
C  C29  1  0.36844106  0.49031358  0.90060865  1  -0.018038  0  -0.096237  -0.12932  0  4.014139  0
C  C30  1  0.49542430  0.52271342  0.95298085  1  0.027166  0  -0.008596  -0.001929  0  3.920788  0
C  C31  1  0.43652476  0.52240053  0.05180787  1  0.009526  0  -0.01366  -0.019103  0  3.929183  0
C  C32  1  0.94471215  0.12805818  0.47684172  1  0.034642  0  -0.005608  -0.07811  0  3.93956  0
C  C33  1  0.15781468  0.05897997  0.43340561  1  -0.013117  0  0.003082  0.071282  0  3.955591  0
C  C34  1  0.79795019  0.06507645  0.51656694  1  0.030189  0  -0.077577  -0.088655  0  3.981608  0
C  C35  1  0.30592634  0.11943380  0.38333621  1  0.058033  0  -0.091629  -0.173304  0  3.93606  0
C  C36  1  0.50333928  0.05013597  0.33590903  1  -0.053262  0  -0.022997  0.062384  0  3.992177  0
C  C37  1  0.07032760  0.86173076  0.48571095  1  0.004415  0  -0.007605  -0.077669  0  3.936132  0
C  C38  1  0.86121318  0.93220615  0.52195897  1  -0.095944  0  -0.078897  -0.088673  0  3.987527  0
C  C39  1  0.21933078  0.92333588  0.43605125  1  0.008561  0  0.001688  0.073499  0  3.950477  0
C  C40  1  0.42164426  0.85514843  0.38530103  1  0.056833  0  -0.095014  -0.182899  0  3.964626  0
C  C41  1  0.56168737  0.91612109  0.33633641  1  -0.124385  0  -0.02412  0.056058  0  3.995152  0
Br  Br42  1  0.68973272  0.13799306  0.26872522  1  -0.04449  0  0.035013  -0.046369  0  1.470986  0
Br  Br43  1  0.82820538  0.81655512  0.27014941  1  -0.038469  0  0.045256  -0.032737  0  1.47564  0
O  O44  1  0.67782560  0.32698792  0.47225606  1  -1.256704  0  -0.228796  -0.5781  0  2.347917  0
O  O45  1  0.86653297  0.50589630  0.62825357  1  -1.260176  0  -0.241412  -0.598329  0  2.320877  0
O  O46  1  0.00147112  0.66547840  0.49505816  1  -1.264522  0  -0.23607  -0.603004  0  2.360425  0
O  O47  1  0.44428715  0.52777441  0.38063872  1  -1.261977  0  -0.232848  -0.585266  0  2.349834  0
O  O48  1  0.32555884  0.66905072  0.52175031  1  -1.257814  0  -0.242863  -0.597192  0  2.335649  0
O  O49  1  0.15038024  0.46556351  0.38103451  1  -1.260613  0  -0.235102  -0.57922  0  2.337479  0
O  O50  1  0.00182791  0.31821653  0.50520506  1  -1.253171  0  -0.230941  -0.581502  0  2.340465  0
O  O51  1  0.54857812  0.47175097  0.62322859  1  -1.26942  0  -0.240695  -0.607887  0  2.352439  0
O  O52  1  0.26878501  0.43448335  0.54243837  1  -1.429784  0  -0.448798  -0.986559  0  2.201206  0
O  O53  1  0.74080553  0.55381337  0.46545581  1  -1.442334  0  -0.45076  -0.989283  0  2.221782  0
O  O54  1  0.81279842  0.58492150  0.95233715  1  -1.130193  0  -0.344221  -0.437932  0  2.325349  0
O  O55  1  0.28665930  0.35049035  0.05652703  1  -1.130621  0  -0.34775  -0.442369  0  2.298656  0
