# generated using pymatgen
data_AgH7C8SN3
_symmetry_space_group_name_H-M   'P 1'
_cell_length_a   7.91611299
_cell_length_b   10.56474813
_cell_length_c   11.46524142
_cell_angle_alpha   84.45424218
_cell_angle_beta   72.23704251
_cell_angle_gamma   79.79598788
_symmetry_Int_Tables_number   1
_chemical_formula_structural   AgH7C8SN3
_chemical_formula_sum   'Ag4 H28 C32 S4 N12'
_cell_volume   897.77470212
_cell_formula_units_Z   4
loop_
 _symmetry_equiv_pos_site_id
 _symmetry_equiv_pos_as_xyz
  1  'x, y, z'
loop_
 _atom_site_type_symbol
 _atom_site_label
 _atom_site_symmetry_multiplicity
 _atom_site_fract_x
 _atom_site_fract_y
 _atom_site_fract_z
 _atom_site_occupancy
 _atom_site_hle17_bader_spin_density
 _atom_site_hle17_ddec_charge
 _atom_site_hle17_ddec_spin_density
 _atom_site_hle17_ddec_sum_bond_order
 _atom_site_hle17_magmom
 _atom_site_hse06_10hf_bader_spin_density
 _atom_site_hse06_10hf_ddec_charge
 _atom_site_hse06_10hf_ddec_spin_density
 _atom_site_hse06_10hf_ddec_sum_bond_order
 _atom_site_hse06_10hf_magmom
 _atom_site_hse06_bader_spin_density
 _atom_site_hse06_ddec_charge
 _atom_site_hse06_ddec_spin_density
 _atom_site_hse06_ddec_sum_bond_order
 _atom_site_hse06_magmom
 _atom_site_pbe_bader_spin_density
 _atom_site_pbe_cm5_charge
 _atom_site_pbe_ddec_charge
 _atom_site_pbe_ddec_spin_density
 _atom_site_pbe_ddec_sum_bond_order
 _atom_site_pbe_magmom
Ag  Ag0  1  0.63506865  0.85343630  0.55242969  1  0  0.353742  0  1.816669  0  0  0.244625  0  2.306987  0  0  0.263548  0  2.265803  0  0  0.349186  0.232141  0  2.334747  0
Ag  Ag1  1  0.36493401  0.14656360  0.44756915  1  0  0.353716  0  1.816688  0  0  0.2446  0  2.307023  0  0  0.263519  0  2.265843  0  0  0.349173  0.232118  0  2.334774  0
Ag  Ag2  1  0.86107470  0.87903716  0.71358661  1  0  0.48743  0  1.776222  0  0  0.377298  0  2.279403  0  0  0.39513  0  2.234915  0  0  0.449221  0.365697  0  2.309306  0
Ag  Ag3  1  0.13892131  0.12096278  0.28641364  1  0  0.4874  0  1.776291  0  0  0.377274  0  2.279479  0  0  0.395105  0  2.234996  0  0  0.449194  0.365678  0  2.309384  0
H  H4  1  0.28330768  0.69704943  0.56827338  1  0  0.084942  0  0.985228  0  0  0.091465  0  1.05822  0  0  0.093209  0  1.05616  0  0  0.120571  0.090149  0  1.059839  0
H  H5  1  0.71669271  0.30294855  0.43172526  1  0  0.084897  0  0.985239  0  0  0.091444  0  1.058196  0  0  0.093188  0  1.056135  0  0  0.120554  0.090126  0  1.059815  0
H  H6  1  0.49960201  0.37131731  0.75138635  1  0  0.116091  0  0.959353  0  0  0.126988  0  1.019423  0  0  0.129288  0  1.019164  0  0  0.120871  0.125013  0  1.020399  0
H  H7  1  0.50039534  0.62868262  0.24861362  1  0  0.116103  0  0.959326  0  0  0.127009  0  1.019383  0  0  0.129294  0  1.019141  0  0  0.120885  0.125036  0  1.020364  0
H  H8  1  0.70538170  0.56593544  0.72515632  1  0  0.09863  0  0.97941  0  0  0.107703  0  1.043516  0  0  0.109341  0  1.044264  0  0  0.108546  0.106516  0  1.04308  0
H  H9  1  0.29461584  0.43406354  0.27484457  1  0  0.098589  0  0.979513  0  0  0.107689  0  1.043593  0  0  0.109327  0  1.04434  0  0  0.108542  0.1065  0  1.04316  0
H  H10  1  0.16168366  0.49604830  0.57311288  1  0  0.080787  0  0.945534  0  0  0.09277  0  1.015847  0  0  0.09324  0  1.016665  0  0  0.104171  0.093017  0  1.013903  0
H  H11  1  0.83831428  0.50394875  0.42688811  1  0  0.080772  0  0.945503  0  0  0.092735  0  1.015854  0  0  0.093218  0  1.016658  0  0  0.104156  0.09298  0  1.01391  0
H  H12  1  0.27872868  0.34899090  0.61473099  1  0  0.073045  0  0.963029  0  0  0.080622  0  1.044743  0  0  0.082263  0  1.042632  0  0  0.097451  0.079176  0  1.046896  0
H  H13  1  0.72127039  0.65100711  0.38526967  1  0  0.07303  0  0.963041  0  0  0.080613  0  1.044752  0  0  0.08225  0  1.042644  0  0  0.097452  0.079169  0  1.046907  0
H  H14  1  0.01422025  0.63618627  0.80449002  1  0  0.087113  0  0.970193  0  0  0.091566  0  1.049156  0  0  0.095668  0  1.045106  0  0  0.090791  0.088468  0  1.052433  0
H  H15  1  0.98578374  0.36381361  0.19550854  1  0  0.087152  0  0.970201  0  0  0.091599  0  1.049161  0  0  0.095702  0  1.04511  0  0  0.090814  0.088501  0  1.052438  0
H  H16  1  0.75647993  0.61278069  0.98881313  1  0  0.082791  0  0.981589  0  0  0.092463  0  1.044142  0  0  0.094391  0  1.044903  0  0  0.094674  0.091191  0  1.043543  0
H  H17  1  0.24352195  0.38722305  0.01118551  1  0  0.082798  0  0.981612  0  0  0.09247  0  1.04416  0  0  0.0944  0  1.044912  0  0  0.094682  0.091197  0  1.043559  0
H  H18  1  0.65750476  0.40122861  0.05394892  1  0  0.086982  0  0.972181  0  0  0.095411  0  1.039791  0  0  0.097872  0  1.039688  0  0  0.09472  0.093668  0  1.039945  0
H  H19  1  0.34249559  0.59877611  0.94604996  1  0  0.087052  0  0.972095  0  0  0.095456  0  1.039719  0  0  0.097917  0  1.039616  0  0  0.094725  0.093715  0  1.03987  0
H  H20  1  0.07776683  0.23113252  0.74797663  1  0  0.087781  0  0.998592  0  0  0.096024  0  1.069567  0  0  0.097647  0  1.070301  0  0  0.089253  0.094868  0  1.069069  0
H  H21  1  0.92223300  0.76886838  0.25202621  1  0  0.087769  0  0.998559  0  0  0.095969  0  1.069597  0  0  0.097587  0  1.070334  0  0  0.089235  0.094823  0  1.069079  0
H  H22  1  0.86333504  0.13237079  0.02636189  1  0  0.090678  0  0.929494  0  0  0.106877  0  0.990812  0  0  0.107483  0  0.990413  0  0  0.112591  0.106337  0  0.991177  0
H  H23  1  0.13666326  0.86763108  0.97364119  1  0  0.090642  0  0.929552  0  0  0.106858  0  0.990858  0  0  0.10746  0  0.990463  0  0  0.112594  0.106319  0  0.99122  0
H  H24  1  0.87562257  0.10121378  0.87423902  1  0  0.094084  0  0.941988  0  0  0.104998  0  1.012224  0  0  0.106089  0  1.011193  0  0  0.111059  0.104295  0  1.012795  0
H  H25  1  0.12438010  0.89878613  0.12576243  1  0  0.094055  0  0.942038  0  0  0.104994  0  1.012266  0  0  0.106085  0  1.011233  0  0  0.111055  0.104292  0  1.012838  0
H  H26  1  0.56124916  0.18399620  0.18222557  1  0  0.084558  0  0.988303  0  0  0.089723  0  1.062733  0  0  0.091928  0  1.059947  0  0  0.121236  0.088079  0  1.064692  0
H  H27  1  0.43874744  0.81600086  0.81777483  1  0  0.084566  0  0.988258  0  0  0.089742  0  1.062659  0  0  0.091948  0  1.059872  0  0  0.121239  0.088098  0  1.064616  0
H  H28  1  0.22524700  0.13645712  0.97152412  1  0  0.101142  0  0.94601  0  0  0.115467  0  0.999593  0  0  0.117078  0  0.999762  0  0  0.115038  0.114308  0  0.999555  0
H  H29  1  0.77475624  0.86353989  0.02847487  1  0  0.101116  0  0.946  0  0  0.115431  0  0.999604  0  0  0.117043  0  0.999771  0  0  0.115024  0.114273  0  0.999566  0
H  H30  1  0.57379912  0.13984927  0.81696985  1  0  0.115873  0  1.004004  0  0  0.120851  0  1.076805  0  0  0.123567  0  1.075115  0  0  0.110189  0.118762  0  1.078357  0
H  H31  1  0.42620182  0.86015256  0.18303004  1  0  0.11587  0  1.00403  0  0  0.12085  0  1.07682  0  0  0.123565  0  1.075131  0  0  0.110173  0.118765  0  1.07837  0
C  C32  1  0.09029888  0.83789061  0.43117508  1  0  0.272315  0  3.944125  0  0  0.259246  0  4.23811  0  0  0.276304  0  4.254807  0  0  0.139793  0.247575  0  4.227106  0
C  C33  1  0.90969660  0.16210551  0.56882826  1  0  0.27231  0  3.944344  0  0  0.25924  0  4.238325  0  0  0.276293  0  4.255018  0  0  0.139819  0.247571  0  4.227314  0
C  C34  1  0.23394021  0.97805955  0.71367766  1  0  0.261653  0  3.956013  0  0  0.24882  0  4.253813  0  0  0.266851  0  4.269085  0  0  0.136798  0.236464  0  4.243319  0
C  C35  1  0.76604026  0.02193859  0.28632608  1  0  0.261374  0  3.956005  0  0  0.248541  0  4.253835  0  0  0.266572  0  4.269115  0  0  0.136509  0.236182  0  4.243343  0
C  C36  1  0.37340926  0.63724800  0.61326571  1  0  0.156389  0  3.660753  0  0  0.098664  0  3.92326  0  0  0.1116  0  3.937622  0  0  0.1341  0.090018  0  3.913729  0
C  C37  1  0.62659112  0.36274997  0.38673118  1  0  0.156337  0  3.660612  0  0  0.098611  0  3.923117  0  0  0.111547  0  3.93748  0  0  0.134043  0.089969  0  3.91358  0
C  C38  1  0.48772203  0.46765241  0.70944997  1  0  -0.06377  0  3.664224  0  0  -0.100278  0  3.912916  0  0  -0.099063  0  3.931928  0  0  -0.000446  -0.100952  0  3.900388  0
C  C39  1  0.51227705  0.53234560  0.29055156  1  0  -0.063862  0  3.66423  0  0  -0.10038  0  3.912937  0  0  -0.099153  0  3.931958  0  0  -0.00047  -0.101057  0  3.900415  0
C  C40  1  0.58818623  0.56492130  0.69523321  1  0  -0.012551  0  3.757437  0  0  -0.04211  0  4.020583  0  0  -0.040327  0  4.040523  0  0  -0.011124  -0.043135  0  4.006765  0
C  C41  1  0.41181223  0.43507956  0.30476294  1  0  -0.012468  0  3.75735  0  0  -0.042036  0  4.020485  0  0  -0.040252  0  4.040418  0  0  -0.011112  -0.043059  0  4.006667  0
C  C42  1  0.21376940  0.44534724  0.64637504  1  0  -0.041151  0  3.661582  0  0  -0.107412  0  3.904715  0  0  -0.1034  0  3.916179  0  0  -0.052077  -0.110124  0  3.897321  0
C  C43  1  0.78623100  0.55465075  0.35362447  1  0  -0.0411  0  3.661465  0  0  -0.107376  0  3.904656  0  0  -0.103366  0  3.916091  0  0  -0.052082  -0.110085  0  3.897251  0
C  C44  1  0.06255994  0.43473516  0.76327927  1  0  0.071  0  3.760542  0  0  0.094479  0  3.995417  0  0  0.093969  0  4.02029  0  0  -0.017001  0.094842  0  3.978455  0
C  C45  1  0.93744346  0.56526762  0.23672001  1  0  0.070925  0  3.76057  0  0  0.094394  0  3.995448  0  0  0.093893  0  4.020306  0  0  -0.016979  0.094756  0  3.978489  0
C  C46  1  0.97169553  0.54212449  0.83175830  1  0  -0.125435  0  3.745592  0  0  -0.14812  0  3.997369  0  0  -0.15111  0  4.017498  0  0  -0.09725  -0.145903  0  3.983883  0
C  C47  1  0.02830580  0.45787542  0.16824169  1  0  -0.12544  0  3.745592  0  0  -0.14811  0  3.99737  0  0  -0.151104  0  4.017495  0  0  -0.097242  -0.145891  0  3.983882  0
C  C48  1  0.82632179  0.52911787  0.93554928  1  0  -0.051565  0  3.787686  0  0  -0.060973  0  4.033307  0  0  -0.062121  0  4.055219  0  0  -0.091942  -0.060221  0  4.018415  0
C  C49  1  0.17368088  0.47088204  0.06445130  1  0  -0.051528  0  3.787637  0  0  -0.060949  0  4.033255  0  0  -0.062096  0  4.05517  0  0  -0.091947  -0.060196  0  4.018359  0
C  C50  1  0.77100812  0.40967857  0.97226433  1  0  -0.118027  0  3.735976  0  0  -0.139134  0  3.979566  0  0  -0.141872  0  4.000422  0  0  -0.095549  -0.137306  0  3.965474  0
C  C51  1  0.22899262  0.59032422  0.02773377  1  0  -0.118214  0  3.7358  0  0  -0.139262  0  3.979396  0  0  -0.142  0  4.000251  0  0  -0.095605  -0.137435  0  3.965303  0
C  C52  1  0.86204671  0.30127323  0.90549550  1  0  0.077502  0  3.755408  0  0  0.100804  0  3.988622  0  0  0.100266  0  4.013179  0  0  -0.014656  0.101292  0  3.971764  0
C  C53  1  0.13795670  0.69872956  0.09450552  1  0  0.077503  0  3.755423  0  0  0.100757  0  3.988686  0  0  0.100217  0  4.013246  0  0  -0.014631  0.101247  0  3.971833  0
C  C54  1  0.00681629  0.31498567  0.80109591  1  0  -0.173763  0  3.734846  0  0  -0.197782  0  3.971149  0  0  -0.202616  0  3.995733  0  0  -0.097739  -0.194296  0  3.954357  0
C  C55  1  0.99318579  0.68501713  0.19890539  1  0  -0.17368  0  3.734961  0  0  -0.197634  0  3.971258  0  0  -0.20247  0  3.995841  0  0  -0.097724  -0.194151  0  3.954478  0
C  C56  1  0.81343776  0.16898135  0.94774629  1  0  -0.043258  0  3.638016  0  0  -0.106999  0  3.87879  0  0  -0.102401  0  3.889128  0  0  -0.046748  -0.109859  0  3.871396  0
C  C57  1  0.18656166  0.83102147  0.05225471  1  0  -0.043192  0  3.638094  0  0  -0.106957  0  3.878885  0  0  -0.102354  0  3.889222  0  0  -0.046763  -0.10982  0  3.871495  0
C  C58  1  0.51323226  0.17201148  0.10565144  1  0  0.144005  0  3.688925  0  0  0.085818  0  3.956594  0  0  0.098533  0  3.9707  0  0  0.130698  0.077527  0  3.94694  0
C  C59  1  0.48676814  0.82798652  0.89434894  1  0  0.143984  0  3.688863  0  0  0.085794  0  3.956548  0  0  0.098509  0  3.970652  0  0  0.130721  0.077506  0  3.946883  0
C  C60  1  0.34579416  0.14787689  0.99288894  1  0  -0.004706  0  3.762453  0  0  -0.037216  0  4.031723  0  0  -0.035245  0  4.051301  0  0  -0.008878  -0.038724  0  4.018502  0
C  C61  1  0.65420736  0.85212205  0.00710936  1  0  -0.004651  0  3.762411  0  0  -0.037157  0  4.031673  0  0  -0.035185  0  4.051252  0  0  -0.008865  -0.038664  0  4.018454  0
C  C62  1  0.51585915  0.15163219  0.91472885  1  0  -0.070129  0  3.676772  0  0  -0.111258  0  3.939516  0  0  -0.109883  0  3.958623  0  0  -0.004401  -0.112103  0  3.926702  0
C  C63  1  0.48414087  0.84836774  0.08527317  1  0  -0.070159  0  3.676694  0  0  -0.111284  0  3.939434  0  0  -0.109908  0  3.958537  0  0  -0.004384  -0.112132  0  3.92663  0
S  S64  1  0.96308660  0.74297630  0.52838255  1  0  -0.304284  0  2.544249  0  0  -0.25443  0  2.960611  0  0  -0.267514  0  2.943736  0  0  -0.149619  -0.245633  0  2.970581  0
S  S65  1  0.03691434  0.25702552  0.47161561  1  0  -0.304368  0  2.543924  0  0  -0.254513  0  2.960292  0  0  -0.267608  0  2.943443  0  0  -0.149663  -0.245716  0  2.970258  0
S  S66  1  0.40929565  0.05289268  0.65739112  1  0  -0.290579  0  2.511451  0  0  -0.240318  0  2.922501  0  0  -0.255689  0  2.906679  0  0  -0.145277  -0.229711  0  2.933708  0
S  S67  1  0.59069924  0.94710632  0.34261033  1  0  -0.290431  0  2.512021  0  0  -0.240175  0  2.923086  0  0  -0.255541  0  2.907267  0  0  -0.145207  -0.229567  0  2.934297  0
N  N68  1  0.18453973  0.90302325  0.35993812  1  0  -0.484348  0  2.856084  0  0  -0.436764  0  3.135951  0  0  -0.452113  0  3.142455  0  0  -0.377949  -0.426893  0  3.132177  0
N  N69  1  0.81547009  0.09698040  0.64005361  1  0  -0.48421  0  2.856577  0  0  -0.436633  0  3.13646  0  0  -0.451975  0  3.142963  0  0  -0.37792  -0.42676  0  3.132678  0
N  N70  1  0.11115762  0.92191656  0.75928710  1  0  -0.494348  0  2.85157  0  0  -0.449385  0  3.137155  0  0  -0.464282  0  3.141174  0  0  -0.390892  -0.439237  0  3.134605  0
N  N71  1  0.88883816  0.07809107  0.24071247  1  0  -0.494235  0  2.851003  0  0  -0.44928  0  3.136599  0  0  -0.464177  0  3.140625  0  0  -0.390701  -0.439126  0  3.134046  0
N  N72  1  0.51526376  0.67043915  0.63508764  1  0  -0.354607  0  3.284831  0  0  -0.281371  0  3.578731  0  0  -0.300048  0  3.594441  0  0  -0.37012  -0.268648  0  3.567828  0
N  N73  1  0.48473358  0.32956078  0.36491146  1  0  -0.354547  0  3.284557  0  0  -0.281349  0  3.578513  0  0  -0.300026  0  3.594226  0  0  -0.370081  -0.268625  0  3.567607  0
N  N74  1  0.35232172  0.51496704  0.65664299  1  0  -0.054445  0  3.565971  0  0  0.043263  0  3.776454  0  0  0.028186  0  3.803617  0  0  -0.240853  0.053241  0  3.758086  0
N  N75  1  0.64767999  0.48503093  0.34335449  1  0  -0.054358  0  3.56592  0  0  0.043363  0  3.776391  0  0  0.028281  0  3.803552  0  0  -0.240829  0.05334  0  3.758022  0
N  N76  1  0.34587658  0.16061066  0.11181994  1  0  -0.363074  0  3.331724  0  0  -0.290801  0  3.639798  0  0  -0.308795  0  3.653639  0  0  -0.374878  -0.278562  0  3.629959  0
N  N77  1  0.65412155  0.83938542  0.88818023  1  0  -0.363069  0  3.331793  0  0  -0.290795  0  3.639865  0  0  -0.30879  0  3.653707  0  0  -0.37486  -0.278554  0  3.63002  0
N  N78  1  0.62035332  0.16618511  0.98807858  1  0  -0.058488  0  3.582547  0  0  0.03842  0  3.793031  0  0  0.023042  0  3.820601  0  0  -0.24353  0.048657  0  3.774028  0
N  N79  1  0.37964383  0.83381580  0.01192308  1  0  -0.058453  0  3.582408  0  0  0.038445  0  3.792932  0  0  0.023068  0  3.820498  0  0  -0.24355  0.048684  0  3.773929  0
