# generated using pymatgen
data_NdH14C22N5O6
_symmetry_space_group_name_H-M   'P 1'
_cell_length_a   13.08150457
_cell_length_b   14.32496370
_cell_length_c   15.73114797
_cell_angle_alpha   117.04499689
_cell_angle_beta   106.40853225
_cell_angle_gamma   90.03020811
_symmetry_Int_Tables_number   1
_chemical_formula_structural   NdH14C22N5O6
_chemical_formula_sum   'Nd4 H56 C88 N20 O24'
_cell_volume   2489.74576430
_cell_formula_units_Z   4
loop_
 _symmetry_equiv_pos_site_id
 _symmetry_equiv_pos_as_xyz
  1  'x, y, z'
loop_
 _atom_site_type_symbol
 _atom_site_label
 _atom_site_symmetry_multiplicity
 _atom_site_fract_x
 _atom_site_fract_y
 _atom_site_fract_z
 _atom_site_occupancy
 _atom_site_pbe_bader_charge
 _atom_site_pbe_bader_spin_density
 _atom_site_pbe_cm5_charge
 _atom_site_pbe_ddec_charge
 _atom_site_pbe_ddec_spin_density
 _atom_site_pbe_ddec_sum_bond_order
 _atom_site_pbe_magmom
Nd  Nd0  1  0.57153570  0.60791501  0.64571804  1  2.213726  0.000406  1.503231  1.979128  0.004199  2.255086  0.0
Nd  Nd1  1  0.92909277  0.96249909  0.35396118  1  2.215097  0.000361  1.503527  1.979991  0.004153  2.25343  0.0
Nd  Nd2  1  0.42846925  0.39140535  0.35371070  1  2.215531  2e-06  1.501692  1.980566  0.000412  2.249366  0.0
Nd  Nd3  1  0.07125630  0.03754280  0.64604432  1  2.214355  0.000379  1.503134  1.979366  0.004126  2.252642  0.0
H  H4  1  0.50573605  0.84979499  0.96127889  1  0.129205  -6.4e-05  0.108582  0.119458  0.000441  1.003818  0.0
H  H5  1  0.99649934  0.88853410  0.03806161  1  0.093775  -3.7e-05  0.109087  0.120322  0.000531  1.004144  0.0
H  H6  1  0.49457513  0.14996328  0.03849723  1  0.12857  -2.8e-05  0.109016  0.120304  0.000541  1.003452  0.0
H  H7  1  0.00407609  0.11168307  0.96157612  1  0.133166  -9.7e-05  0.109355  0.120663  0.000413  1.004246  0.0
H  H8  1  0.43327947  0.89489776  0.10395976  1  0.058023  -0.000675  0.10029  0.097625  -0.000526  1.01758  0.0
H  H9  1  0.06852899  0.79021293  0.89546607  1  0.085323  -0.000587  0.099161  0.09599  -0.000253  1.018122  0.0
H  H10  1  0.56682597  0.10482659  0.89570218  1  0.049785  -0.000576  0.099556  0.096303  -0.000218  1.019985  0.0
H  H11  1  0.93188933  0.20980263  0.10418661  1  0.076598  -0.000624  0.099155  0.095952  -0.000411  1.019848  0.0
H  H12  1  0.38131646  0.56292074  0.02159584  1  0.097368  0.000105  0.109661  0.113589  0.000221  0.992599  0.0
H  H13  1  0.11830640  0.54068261  0.97822674  1  0.104868  -0.000114  0.109687  0.113597  -4.4e-05  0.993788  0.0
H  H14  1  0.61892867  0.43679390  0.97809707  1  0.093478  -0.000148  0.10984  0.114263  -2.9e-05  0.992473  0.0
H  H15  1  0.88214798  0.45956437  0.02171645  1  0.108482  -0.00014  0.109916  0.113587  -0.000156  0.993512  0.0
H  H16  1  0.45219319  0.51811488  0.87842339  1  0.160765  3.1e-05  0.103496  0.110193  0.000624  1.045552  0.0
H  H17  1  0.04761443  0.63988387  0.12143004  1  0.135553  -8.2e-05  0.103495  0.109725  -0.000635  1.045563  0.0
H  H18  1  0.54796330  0.48157567  0.12124115  1  0.160698  5.5e-05  0.103128  0.10977  0.000704  1.045515  0.0
H  H19  1  0.95278080  0.36053996  0.87854565  1  0.134791  3.2e-05  0.103904  0.110179  0.000692  1.04635  0.0
H  H20  1  0.21679283  0.83492480  0.26778886  1  0.116657  -0.000124  0.109414  0.118946  -0.000213  1.015902  0.0
H  H21  1  0.28393942  0.56642673  0.73259710  1  0.110786  -0.00016  0.109865  0.118919  0.000189  1.016292  0.0
H  H22  1  0.78357334  0.16493505  0.73202137  1  0.107119  -0.000208  0.110094  0.119183  7.6e-05  1.015439  0.0
H  H23  1  0.71625983  0.43347994  0.26722364  1  0.111733  -0.000221  0.109727  0.119139  -5e-06  1.016408  0.0
H  H24  1  0.42769730  0.61492987  0.30658503  1  0.134363  0.000197  0.122156  0.137366  0.000327  1.013472  0.001
H  H25  1  0.07258168  0.30723443  0.69291108  1  0.130108  -7.9e-05  0.12249  0.137835  0.000287  1.013133  0.0
H  H26  1  0.57254463  0.38480997  0.69309836  1  0.146523  -8.2e-05  0.122426  0.137905  0.000276  1.013054  0.0
H  H27  1  0.92756963  0.69268467  0.30694376  1  0.126155  -0.000224  0.122519  0.137665  -0.000322  1.012897  -0.001
H  H28  1  0.30935910  0.82288193  0.54700861  1  0.092856  -0.000872  0.112075  0.123591  -0.001607  1.00366  0.0
H  H29  1  0.19188297  0.27583299  0.45317584  1  0.140713  -0.000576  0.112292  0.124159  -0.000877  1.002738  0.001
H  H30  1  0.69072958  0.17667736  0.45266729  1  0.088881  -0.000805  0.112192  0.123851  -0.001041  1.003075  0.0
H  H31  1  0.80805959  0.72420311  0.54659208  1  0.139027  -0.000663  0.112471  0.124443  -0.001034  1.002796  0.0
H  H32  1  0.73369994  0.53343881  0.84082102  1  0.15402  0.001558  0.140908  0.099285  0.001193  0.972496  0.004
H  H33  1  0.76693979  0.69324871  0.15864368  1  0.161587  0.001752  0.140589  0.099362  0.001207  0.973658  0.004
H  H34  1  0.26675574  0.46757509  0.15960041  1  0.150909  -0.001661  0.140957  0.099166  -0.001094  0.972537  -0.004
H  H35  1  0.23330594  0.30682527  0.84114281  1  0.162077  0.001706  0.140782  0.099285  0.00119  0.973758  0.004
H  H36  1  0.81882163  0.50379621  0.59376695  1  0.136603  0.000156  0.127833  0.110794  0.001038  1.002532  0.003
H  H37  1  0.68086016  0.91063868  0.40491918  1  0.143856  0.000285  0.126881  0.110238  0.00102  1.004245  0.003
H  H38  1  0.18120454  0.49510086  0.40580479  1  0.13629  -0.000323  0.127724  0.110851  -0.001259  1.002567  -0.003
H  H39  1  0.31903239  0.08937855  0.59467656  1  0.135801  0.000373  0.126624  0.10949  0.0012  1.004854  0.003
H  H40  1  0.94508609  0.39149093  0.67958052  1  0.135931  0.001217  0.116091  0.095206  0.002109  1.035939  0.003
H  H41  1  0.55489037  0.71243395  0.31938350  1  0.121436  0.001336  0.116098  0.095085  0.00221  1.036368  0.003
H  H42  1  0.05506086  0.60821858  0.32092898  1  0.133672  -0.00147  0.116281  0.09631  -0.002181  1.036032  -0.003
H  H43  1  0.44488300  0.28753267  0.67993927  1  0.123798  0.001133  0.115893  0.094257  0.002095  1.037445  0.003
H  H44  1  0.86683704  0.72366501  0.77135290  1  0.14143  0.000669  0.133743  0.0762  -0.000617  0.998833  0.005
H  H45  1  0.63399582  0.95275191  0.22719420  1  0.154093  0.000935  0.133174  0.075172  -0.000669  0.999383  0.005
H  H46  1  0.13538667  0.27529055  0.21514502  1  0.126765  0.001714  0.132313  0.074312  0.000752  1.006637  0.005
H  H47  1  0.36607546  0.04756033  0.77197658  1  0.143398  0.000705  0.133053  0.075418  -0.000695  1.000213  0.005
H  H48  1  0.81472187  0.03368271  0.83899883  1  0.147075  0.001197  0.123052  0.098142  0.001783  1.007718  0.004
H  H49  1  0.68731058  0.19611327  0.16102854  1  0.132738  0.000785  0.123071  0.096117  0.001741  1.008793  0.004
H  H50  1  0.17685603  0.97079229  0.17552433  1  0.137977  0.001265  0.124083  0.098913  0.002037  1.008424  0.004
H  H51  1  0.31486673  0.80296976  0.83719313  1  0.118017  0.000824  0.123031  0.097011  0.001872  1.009294  0.004
H  H52  1  0.61447917  0.89521463  0.73752752  1  0.165581  0.001487  0.138392  0.118976  0.002719  0.979844  0.004
H  H53  1  0.88721025  0.15859447  0.26258872  1  0.16486  0.00136  0.138287  0.119521  0.0027  0.980431  0.004
H  H54  1  0.37931284  0.10589519  0.27708177  1  0.173238  0.001353  0.137528  0.117634  0.002603  0.981007  0.004
H  H55  1  0.11422920  0.84054499  0.73688560  1  0.142617  0.000887  0.137972  0.118944  0.002705  0.979965  0.004
H  H56  1  0.37598277  0.84669377  0.21018279  1  0.058843  0.000565  0.102112  0.05239  0.000469  0.994574  0.0
H  H57  1  0.12523407  0.63539395  0.78943610  1  0.032063  -0.001786  0.102592  0.052438  -0.001414  0.995581  -0.001
H  H58  1  0.62410437  0.15307228  0.78933215  1  0.057245  -0.00181  0.102485  0.052757  -0.001449  0.99532  -0.001
H  H59  1  0.87507027  0.36457637  0.21028547  1  0.033397  -0.000793  0.102939  0.052939  -0.000226  0.994641  0.0
C  C60  1  0.53060156  0.65733580  0.82890453  1  1.549073  0.000275  0.184179  0.561044  6.9e-05  4.243405  0.0
C  C61  1  0.97099332  0.82909806  0.17093539  1  1.541048  0.000186  0.184927  0.560596  4.9e-05  4.245612  0.0
C  C62  1  0.46937375  0.34236021  0.17060094  1  1.551014  0.000135  0.184928  0.561788  0.000157  4.243331  0.0
C  C63  1  0.02986363  0.17147380  0.82903997  1  1.555658  0.000143  0.185508  0.562503  -4.5e-05  4.243583  0.0
C  C64  1  0.48522023  0.68199980  0.91286438  1  -0.0342  0.006105  -0.008532  -0.012555  0.006266  3.93004  0.004
C  C65  1  0.01595947  0.76932747  0.08681464  1  -0.035755  -0.006401  -0.010827  -0.014984  -0.006291  3.936209  -0.004
C  C66  1  0.51494398  0.31773671  0.08677287  1  -0.035982  -0.005988  -0.008512  -0.011941  -0.005959  3.929684  -0.003
C  C67  1  0.98463607  0.23103815  0.91303851  1  -0.038264  -0.006603  -0.009572  -0.014465  -0.006461  3.932782  -0.004
C  C68  1  0.47825711  0.78792164  0.97544595  1  -0.060695  -0.003028  -0.084254  -0.099117  -0.002769  3.975598  -0.002
C  C69  1  0.02355540  0.81245376  0.02417319  1  -0.023204  -0.001594  -0.085397  -0.103397  -0.001447  3.978637  0.0
C  C70  1  0.52196965  0.21181013  0.02426653  1  -0.06045  -0.00157  -0.085126  -0.100829  -0.001327  3.977574  0.0
C  C71  1  0.97701534  0.18780839  0.97561572  1  -0.062212  -0.000764  -0.085875  -0.104097  -0.000299  3.980653  0.0
C  C72  1  0.43727965  0.81229338  0.05440620  1  -0.04149  0.001382  -0.090209  -0.13732  0.001266  3.995444  0.001
C  C73  1  0.06429271  0.75738513  0.94518359  1  -0.125432  -0.005879  -0.088326  -0.132355  -0.005947  3.990738  -0.003
C  C74  1  0.56290157  0.18742331  0.94528734  1  -0.037864  -0.005342  -0.090221  -0.136683  -0.005447  3.997181  -0.003
C  C75  1  0.93614170  0.24272377  0.05454681  1  -0.070394  -0.005246  -0.08924  -0.134073  -0.005013  3.994036  -0.003
C  C76  1  0.40266857  0.73127530  0.07170070  1  -0.06235  0.000834  -0.014633  0.049889  0.000717  4.048777  0.0
C  C77  1  0.09808252  0.65885223  0.92793619  1  0.004106  -0.00133  -0.014376  0.050796  -0.001211  4.048913  0.0
C  C78  1  0.59742920  0.26840728  0.92791016  1  -0.107969  -0.001867  -0.014954  0.050235  -0.001767  4.05005  -0.001
C  C79  1  0.90230460  0.34128773  0.07188517  1  -0.060483  -0.001198  -0.014894  0.049514  -0.000889  4.0484  0.0
C  C80  1  0.40788936  0.62500530  0.00732056  1  0.016187  0.003193  -0.07033  -0.083019  0.003508  3.910016  0.002
C  C81  1  0.09225555  0.61715378  0.99238642  1  -0.07348  -0.006231  -0.070535  -0.083961  -0.00614  3.909948  -0.004
C  C82  1  0.59228711  0.37469799  0.99231337  1  0.019044  -0.00587  -0.070638  -0.084736  -0.005886  3.911086  -0.003
C  C83  1  0.90817801  0.38305296  0.00749814  1  -0.071621  -0.005792  -0.070603  -0.083106  -0.005929  3.910504  -0.003
C  C84  1  0.44903092  0.60053699  0.92861966  1  -0.075652  -0.002773  -0.078596  -0.08974  -0.00276  3.933645  -0.002
C  C85  1  0.05130897  0.67184705  0.07109989  1  0.014079  -0.000196  -0.077585  -0.087434  -0.00037  3.932981  0.0
C  C86  1  0.55116258  0.39917981  0.07101088  1  -0.065286  -0.000459  -0.077955  -0.088329  -0.000483  3.934444  0.0
C  C87  1  0.94917658  0.32845785  0.92878710  1  0.009877  0.000905  -0.078876  -0.08871  0.001184  3.935738  0.001
C  C88  1  0.37112194  0.76061697  0.16107882  1  0.638987  0.008344  0.08574  0.092943  0.009514  3.972525  0.007
C  C89  1  0.12960252  0.59852921  0.83860438  1  0.677545  -0.010217  0.084375  0.091024  -0.012974  3.976989  -0.008
C  C90  1  0.62898969  0.23911231  0.83852974  1  0.670388  -0.009969  0.084583  0.09077  -0.012667  3.97564  -0.007
C  C91  1  0.87072087  0.40154081  0.16119269  1  0.691282  -0.008396  0.084846  0.091512  -0.009371  3.973675  -0.007
C  C92  1  0.18134707  0.91441312  0.44925267  1  1.6052  0.0003  0.226388  0.624879  -0.000113  4.176774  -0.001
C  C93  1  0.31951129  0.46532473  0.55119649  1  1.614702  4.3e-05  0.22594  0.624282  0.00014  4.179692  0.001
C  C94  1  0.81901356  0.08545370  0.55056699  1  1.604208  0.000224  0.225991  0.62469  0.000483  4.178575  0.001
C  C95  1  0.68072686  0.53443205  0.44857001  1  1.613596  0.000261  0.22673  0.624116  0.000499  4.180245  0.001
C  C96  1  0.25418215  0.83514316  0.41006667  1  -0.006971  0.022577  -0.010181  -0.01615  0.022828  3.956084  0.012
C  C97  1  0.24696020  0.42467950  0.59031529  1  -0.025325  -0.022262  -0.010519  -0.016232  -0.022335  3.95363  -0.012
C  C98  1  0.74610688  0.16462001  0.58970193  1  -0.009096  -0.022489  -0.01106  -0.018631  -0.022408  3.955529  -0.012
C  C99  1  0.75319449  0.57522162  0.40950916  1  -0.025807  -0.02257  -0.010129  -0.015975  -0.0226  3.953656  -0.012
C  C100  1  0.26310432  0.80242181  0.31465631  1  -0.056352  0.013875  -0.072426  -0.166759  0.014065  3.8852  0.006
C  C101  1  0.23781829  0.48702978  0.68566099  1  -0.011866  -0.016301  -0.071082  -0.165097  -0.016472  3.883599  -0.008
C  C102  1  0.73723851  0.19739884  0.68516611  1  -0.043733  -0.016369  -0.071874  -0.164495  -0.016515  3.88214  -0.008
C  C103  1  0.76238310  0.51287433  0.31415155  1  -0.011188  -0.015751  -0.071495  -0.165581  -0.016021  3.88405  -0.007
C  C104  1  0.32881639  0.72535250  0.27832409  1  0.456856  0.044469  0.108064  0.224648  0.045529  4.070471  0.028
C  C105  1  0.17177299  0.44601567  0.72161242  1  0.40364  -0.045625  0.106288  0.224277  -0.04633  4.067792  -0.028
C  C106  1  0.67144707  0.27442359  0.72137935  1  0.415986  -0.044976  0.106875  0.223501  -0.045764  4.069725  -0.028
C  C107  1  0.82836706  0.55394180  0.27821496  1  0.403324  -0.045455  0.10644  0.224253  -0.045994  4.067982  -0.028
C  C108  1  0.38089859  0.67785522  0.33708104  1  -0.067842  0.018212  -0.067618  -0.171319  0.020608  3.883416  0.011
C  C109  1  0.11972139  0.33980144  0.66270459  1  -0.094623  -0.018149  -0.068608  -0.173539  -0.019902  3.884034  -0.011
C  C110  1  0.61928974  0.32184245  0.66258511  1  -0.065064  -0.018528  -0.068774  -0.173332  -0.02024  3.886009  -0.011
C  C111  1  0.88037962  0.66015382  0.33713888  1  -0.098156  -0.018187  -0.068275  -0.173307  -0.020516  3.88572  -0.011
C  C112  1  0.37676906  0.71570092  0.43473738  1  -0.035455  -0.006352  -0.013376  -0.025551  -0.006903  3.997401  -0.006
C  C113  1  0.12433634  0.28030610  0.56522085  1  0.018133  0.006081  -0.014237  -0.026981  0.006627  3.99982  0.006
C  C114  1  0.62335778  0.28390566  0.56492054  1  -0.035489  0.005897  -0.014456  -0.026947  0.006529  4.000797  0.006
C  C115  1  0.87575726  0.71966647  0.43462657  1  0.017081  0.005941  -0.014559  -0.027577  0.006494  4.000838  0.006
C  C116  1  0.31350362  0.79385123  0.47114653  1  0.003383  0.052876  -0.067953  -0.099152  0.055621  3.900033  0.031
C  C117  1  0.18777367  0.32230016  0.52905079  1  -0.070548  -0.055665  -0.066669  -0.098268  -0.058183  3.896611  -0.033
C  C118  1  0.68665430  0.20577202  0.52852439  1  -0.002223  -0.055269  -0.067706  -0.098777  -0.057937  3.89905  -0.033
C  C119  1  0.81228347  0.67766686  0.47077645  1  -0.062596  -0.055473  -0.067311  -0.098993  -0.057959  3.897455  -0.033
C  C120  1  0.44264088  0.67643757  0.50246777  1  1.570704  -0.000119  0.218161  0.621461  -0.000276  4.170868  0.0
C  C121  1  0.05834572  0.17350615  0.49720888  1  1.578647  0.000179  0.218285  0.622719  0.000109  4.170412  0.0
C  C122  1  0.55729370  0.32298858  0.49715460  1  1.589318  0.000181  0.218739  0.622843  0.000128  4.170976  0.0
C  C123  1  0.94186757  0.82643590  0.50266936  1  1.576527  0.000192  0.219491  0.623796  0.000139  4.16905  0.0
C  C124  1  0.77660908  0.51085310  0.78606701  1  0.912184  -0.299933  0.181826  0.256324  -0.336081  3.809525  -0.202
C  C125  1  0.72386062  0.72536881  0.21326451  1  0.90568  -0.299679  0.182086  0.257249  -0.335536  3.80981  -0.202
C  C126  1  0.22383923  0.48982262  0.21432733  1  0.919646  0.295595  0.181085  0.255845  0.332819  3.809901  0.199
C  C127  1  0.27628097  0.27465700  0.78644928  1  0.910585  -0.297835  0.181472  0.25601  -0.333891  3.811679  -0.201
C  C128  1  0.81850812  0.49502049  0.65870821  1  0.453091  -0.276529  0.062802  0.074682  -0.285883  3.82519  -0.156
C  C129  1  0.68142170  0.83689158  0.34021123  1  0.466673  -0.276027  0.062532  0.073595  -0.285959  3.824008  -0.156
C  C130  1  0.18166139  0.50453558  0.34122785  1  0.466691  0.274318  0.06258  0.075477  0.286217  3.823149  0.155
C  C131  1  0.31850108  0.16315061  0.65936186  1  0.432475  -0.2767  0.061941  0.073544  -0.285141  3.825829  -0.156
C  C132  1  0.88337940  0.43754719  0.70374011  1  0.498226  -0.197233  0.052266  0.054218  -0.203519  3.86084  -0.109
C  C133  1  0.61665519  0.73435677  0.29526721  1  0.482711  -0.196899  0.053924  0.056733  -0.201881  3.861025  -0.108
C  C134  1  0.11685003  0.56239025  0.29664574  1  0.488644  0.193275  0.051457  0.051545  0.200232  3.863526  0.106
C  C135  1  0.38323569  0.26564358  0.70420524  1  0.514748  -0.194144  0.053089  0.055533  -0.200424  3.864087  -0.107
C  C136  1  0.82605549  0.79126828  0.77677195  1  0.897993  -0.368813  0.198411  0.283942  -0.409835  3.765449  -0.242
C  C137  1  0.67511141  0.01517095  0.22224241  1  0.891802  -0.369549  0.200596  0.286369  -0.410196  3.762489  -0.243
C  C138  1  0.17350276  0.20873171  0.21749090  1  0.885032  -0.369853  0.198601  0.284004  -0.409469  3.765558  -0.242
C  C139  1  0.32548519  0.98478901  0.77682206  1  0.897243  -0.368872  0.19875  0.284342  -0.409756  3.764837  -0.242
C  C140  1  0.79992770  0.94849008  0.81132257  1  0.521046  -0.311526  0.086984  0.098586  -0.324766  3.751738  -0.173
C  C141  1  0.70189372  0.13828532  0.18834602  1  0.537629  -0.309854  0.087716  0.102787  -0.323643  3.754388  -0.172
C  C142  1  0.19432727  0.05418916  0.19686996  1  0.537945  -0.31392  0.089848  0.104594  -0.328214  3.747093  -0.175
C  C143  1  0.29974883  0.86106761  0.81024388  1  0.526499  -0.312378  0.087559  0.100993  -0.325325  3.75117  -0.173
C  C144  1  0.69596896  0.87760007  0.75830669  1  0.51768  -0.302617  0.096876  0.112733  -0.314787  3.736301  -0.167
C  C145  1  0.80562416  0.12010260  0.24136146  1  0.516389  -0.303999  0.096692  0.109283  -0.31614  3.738941  -0.168
C  C146  1  0.29930181  0.12344007  0.25003403  1  0.496855  -0.299334  0.096005  0.109272  -0.309668  3.740436  -0.164
C  C147  1  0.19562569  0.87932129  0.75790691  1  0.548973  -0.301421  0.097125  0.111727  -0.314355  3.737552  -0.166
N  N148  1  0.34771500  0.69233861  0.18723273  1  -1.231741  0.014588  -0.295089  -0.263617  0.012423  3.353389  0.007
N  N149  1  0.15253148  0.50402493  0.81256202  1  -1.203489  -0.02822  -0.294395  -0.26295  -0.025434  3.352479  -0.017
N  N150  1  0.65249745  0.30743185  0.81247338  1  -1.190095  -0.029116  -0.29417  -0.26221  -0.026438  3.35225  -0.018
N  N151  1  0.84767548  0.49601834  0.18727472  1  -1.205628  -0.016767  -0.295276  -0.263731  -0.014447  3.351015  -0.009
N  N152  1  0.75206643  0.54120344  0.71202056  1  -1.242991  -0.000988  -0.406186  -0.448781  0.021721  3.427954  0.031
N  N153  1  0.74822484  0.82975975  0.28716009  1  -1.227935  -2.7e-05  -0.405916  -0.449482  0.02194  3.426031  0.031
N  N154  1  0.24829238  0.45886802  0.28794490  1  -1.247547  -0.000363  -0.405522  -0.448462  -0.021172  3.428662  -0.032
N  N155  1  0.25185629  0.17029821  0.71257568  1  -1.227701  0.000188  -0.406666  -0.4494  0.022129  3.428072  0.031
N  N156  1  0.85734135  0.44959087  0.78371514  1  -1.160668  -0.013867  -0.322407  -0.303373  0.008438  3.20864  0.015
N  N157  1  0.64301666  0.66642587  0.21555862  1  -1.168772  -0.01438  -0.324565  -0.306152  0.007995  3.208632  0.014
N  N158  1  0.14301271  0.55102697  0.21692817  1  -1.163253  0.014191  -0.322365  -0.303235  -0.00746  3.20857  -0.014
N  N159  1  0.35705277  0.33357934  0.78403207  1  -1.168801  -0.014795  -0.323616  -0.304429  0.007621  3.208793  0.014
N  N160  1  0.71527203  0.77979184  0.73751005  1  -1.20524  -0.001463  -0.39388  -0.408017  0.025469  3.398704  0.036
N  N161  1  0.78593726  0.04276022  0.26169952  1  -1.213324  -0.001076  -0.394493  -0.408566  0.025836  3.39567  0.036
N  N162  1  0.28340827  0.21966116  0.26222012  1  -1.198249  -0.003811  -0.391622  -0.404715  0.021994  3.393705  0.034
N  N163  1  0.21466286  0.95696316  0.73777863  1  -1.209612  -0.001922  -0.392957  -0.407483  0.024884  3.395374  0.035
N  N164  1  0.87897740  0.89239733  0.82236997  1  -1.154187  0.012534  -0.328026  -0.319408  0.045209  3.157752  0.046
N  N165  1  0.62260214  0.07105725  0.17684860  1  -1.15192  0.012146  -0.328899  -0.3197  0.04472  3.157119  0.045
N  N166  1  0.11809448  0.10963794  0.17707264  1  -1.129494  0.016881  -0.330728  -0.323967  0.047932  3.162966  0.048
N  N167  1  0.37863554  0.92862473  0.82155773  1  -1.136  0.013879  -0.328156  -0.319805  0.045573  3.156602  0.046
O  O168  1  0.54443072  0.73066345  0.80642699  1  -1.169992  -0.002774  -0.390931  -0.622307  -0.001488  2.190134  -0.002
O  O169  1  0.95895820  0.92537744  0.19413392  1  -1.171177  -0.005929  -0.38972  -0.622251  -0.004462  2.190288  -0.005
O  O170  1  0.45526222  0.26899053  0.19295261  1  -1.169021  -0.00412  -0.391597  -0.622698  -0.002713  2.186169  -0.003
O  O171  1  0.04349635  0.07570664  0.80669046  1  -1.178176  -0.005384  -0.390513  -0.623012  -0.004074  2.188988  -0.004
O  O172  1  0.55278041  0.56435466  0.78073559  1  -1.188308  -0.002582  -0.376246  -0.624134  -0.0017  2.198698  -0.002
O  O173  1  0.94736940  0.78422146  0.21856453  1  -1.187002  -0.003286  -0.376354  -0.623027  -0.002412  2.198906  -0.003
O  O174  1  0.44721109  0.43534717  0.21881715  1  -1.18718  -0.000593  -0.376477  -0.624166  -0.001376  2.198894  -0.001
O  O175  1  0.05220844  0.21610303  0.78071902  1  -1.190563  -0.003352  -0.376499  -0.623221  -0.002449  2.199368  -0.003
O  O176  1  0.12084615  0.94251309  0.38905877  1  -1.196386  -0.004664  -0.38332  -0.634506  -0.005283  2.26784  -0.004
O  O177  1  0.37988661  0.55366086  0.61142679  1  -1.199831  -0.003911  -0.383098  -0.632864  -0.003875  2.266181  -0.003
O  O178  1  0.87960497  0.05743574  0.61075728  1  -1.195087  -0.004907  -0.382377  -0.632643  -0.004914  2.267488  -0.004
O  O179  1  0.62020395  0.44622392  0.38829354  1  -1.198957  -0.004948  -0.382512  -0.632111  -0.004796  2.26632  -0.004
O  O180  1  0.18642834  0.94728706  0.54071743  1  -1.193354  -0.005546  -0.379759  -0.656852  -0.003886  2.312582  -0.005
O  O181  1  0.31416379  0.40707789  0.45964369  1  -1.210374  -0.010642  -0.381628  -0.65924  -0.011051  2.317455  -0.009
O  O182  1  0.81385233  0.05252245  0.45905762  1  -1.197034  -0.016631  -0.380352  -0.657008  -0.014738  2.313722  -0.014
O  O183  1  0.68629062  0.59244992  0.54024184  1  -1.206069  -0.016651  -0.381232  -0.658077  -0.014793  2.316026  -0.014
O  O184  1  0.46219200  0.58044286  0.46381770  1  -1.227037  -0.00131  -0.436119  -0.727154  -0.001849  2.436535  -0.001
O  O185  1  0.03803319  0.11607264  0.53558419  1  -1.219845  -0.000245  -0.43631  -0.726482  -1.6e-05  2.437894  0.0
O  O186  1  0.53806936  0.41908405  0.53569092  1  -1.225035  -0.000134  -0.435869  -0.726999  0.000267  2.438502  0.0
O  O187  1  0.96220330  0.88385787  0.46427873  1  -1.219676  0.00036  -0.437156  -0.727551  0.000583  2.436659  0.0
O  O188  1  0.47970652  0.73861296  0.59613202  1  -1.170326  -0.001788  -0.358812  -0.594273  -0.000649  2.160231  -0.001
O  O189  1  0.02187541  0.14219436  0.40352859  1  -1.163849  -0.000293  -0.360519  -0.595359  0.001124  2.161669  0.0
O  O190  1  0.51985210  0.26062738  0.40354696  1  -1.187165  -0.000301  -0.358931  -0.59515  0.001314  2.158822  0.0
O  O191  1  0.97854754  0.85766656  0.59632336  1  -1.162217  -0.00041  -0.360187  -0.59517  0.001021  2.159683  0.0
