# generated using pymatgen
data_Mn2H8C10N4O9
_symmetry_space_group_name_H-M   'P 1'
_cell_length_a   7.40242599
_cell_length_b   13.33383031
_cell_length_c   15.66580525
_cell_angle_alpha   98.82572565
_cell_angle_beta   89.99945118
_cell_angle_gamma   90.00308828
_symmetry_Int_Tables_number   1
_chemical_formula_structural   Mn2H8C10N4O9
_chemical_formula_sum   'Mn8 H32 C40 N16 O36'
_cell_volume   1527.94883240
_cell_formula_units_Z   4
loop_
 _symmetry_equiv_pos_site_id
 _symmetry_equiv_pos_as_xyz
  1  'x, y, z'
loop_
 _atom_site_type_symbol
 _atom_site_label
 _atom_site_symmetry_multiplicity
 _atom_site_fract_x
 _atom_site_fract_y
 _atom_site_fract_z
 _atom_site_occupancy
 _atom_site_pbe_bader_charge
 _atom_site_pbe_bader_spin_density
 _atom_site_pbe_cm5_charge
 _atom_site_pbe_ddec_charge
 _atom_site_pbe_ddec_spin_density
 _atom_site_pbe_ddec_sum_bond_order
 _atom_site_pbe_magmom
Mn  Mn0  1  0.08717812  0.40866489  0.07508414  1  1.496553  4.507414  0.633765  0.897686  4.644357  2.438971  4.428
Mn  Mn1  1  0.11759166  0.58368277  0.31225446  1  1.494848  4.561689  0.608359  0.951176  4.692154  2.292049  4.463
Mn  Mn2  1  0.58719148  0.09132560  0.42491438  1  1.496562  4.507417  0.633735  0.897684  4.644522  2.438762  4.428
Mn  Mn3  1  0.61759627  0.91627952  0.18775110  1  1.494848  4.561696  0.608327  0.951094  4.692288  2.292033  4.463
Mn  Mn4  1  0.91282812  0.59132001  0.92492309  1  1.496438  4.507461  0.633753  0.897655  4.644484  2.438842  4.428
Mn  Mn5  1  0.88241188  0.41631497  0.68774608  1  1.494925  4.561684  0.60834  0.951203  4.692186  2.291963  4.463
Mn  Mn6  1  0.41280125  0.90866756  0.57508175  1  1.496627  4.50743  0.633694  0.897671  4.644488  2.438719  4.428
Mn  Mn7  1  0.38238971  0.08371066  0.81225232  1  1.49489  4.561636  0.608343  0.951156  4.692167  2.292161  4.463
H  H8  1  0.15632341  0.98603491  0.34353987  1  0.139181  0.000681  0.139292  0.126212  -0.000478  0.995757  0.0
H  H9  1  0.05644035  0.01070885  0.19463980  1  0.151041  0.000409  0.122671  0.138226  -0.000202  0.979982  0.0
H  H10  1  0.04997817  0.18884330  0.15783491  1  0.130277  0.000301  0.116679  0.127286  -0.000487  1.016885  0.0
H  H11  1  0.23241900  0.29432993  0.41836509  1  0.15439  0.000986  0.137212  0.122237  0.000271  0.994367  0.0
H  H12  1  0.88627560  0.58568806  0.45390288  1  0.633071  0.001734  0.332051  0.412861  0.000845  0.862489  0.001
H  H13  1  0.86581665  0.67572971  0.40029719  1  0.647833  0.000609  0.307321  0.395201  0.000725  0.924949  0.001
H  H14  1  0.31845298  0.54334902  0.02848222  1  0.662357  0.001339  0.296126  0.384379  0.00063  0.948218  0.002
H  H15  1  0.34769079  0.54756586  0.12945053  1  0.641528  0.001665  0.29261  0.37359  0.000911  0.970359  0.002
H  H16  1  0.65631209  0.51394399  0.15645859  1  0.139496  0.00068  0.139284  0.126117  -0.000478  0.995796  0.0
H  H17  1  0.55642915  0.48926658  0.30536929  1  0.150895  0.000409  0.122634  0.138223  -0.000202  0.980126  0.0
H  H18  1  0.54999826  0.31113137  0.34217466  1  0.12974  0.000302  0.116656  0.127323  -0.000487  1.016779  0.0
H  H19  1  0.73242024  0.20565530  0.08164322  1  0.154538  0.000986  0.137213  0.122281  0.00027  0.994359  0.0
H  H20  1  0.38632533  0.91430287  0.04608924  1  0.632856  0.001732  0.332178  0.413121  0.000842  0.862237  0.001
H  H21  1  0.36581798  0.82424511  0.09967164  1  0.647216  0.000609  0.307454  0.395548  0.00072  0.924511  0.001
H  H22  1  0.81843703  0.95664955  0.47151590  1  0.662333  0.001339  0.296154  0.384453  0.000631  0.948126  0.002
H  H23  1  0.84767735  0.95243272  0.37054852  1  0.641553  0.001665  0.292648  0.373668  0.000911  0.97025  0.002
H  H24  1  0.84368823  0.01397638  0.65644896  1  0.139497  0.000682  0.139298  0.126276  -0.000478  0.995443  0.0
H  H25  1  0.94356454  0.98929571  0.80536031  1  0.15064  0.000409  0.12267  0.138198  -0.000202  0.979945  0.0
H  H26  1  0.95001051  0.81114907  0.84215794  1  0.130201  0.000302  0.116689  0.127283  -0.000487  1.016898  0.0
H  H27  1  0.76756022  0.70567614  0.58163394  1  0.15431  0.000987  0.137158  0.122214  0.00027  0.994465  0.0
H  H28  1  0.11371848  0.41432485  0.54609764  1  0.633017  0.001734  0.332024  0.41279  0.000845  0.862557  0.001
H  H29  1  0.13418283  0.32427402  0.59969453  1  0.647841  0.000611  0.307314  0.395252  0.000724  0.92489  0.001
H  H30  1  0.68156271  0.45664952  0.97152353  1  0.662139  0.00134  0.296111  0.384378  0.000631  0.948184  0.002
H  H31  1  0.65230734  0.45243495  0.87055422  1  0.641597  0.001665  0.292621  0.373611  0.000911  0.970363  0.002
H  H32  1  0.34368739  0.48604843  0.84354065  1  0.139525  0.00068  0.139228  0.126123  -0.000478  0.995733  0.0
H  H33  1  0.44357844  0.51071979  0.69463110  1  0.151037  0.000409  0.122627  0.138272  -0.000202  0.979958  0.0
H  H34  1  0.45002959  0.68885119  0.65782398  1  0.129869  0.000301  0.116673  0.127282  -0.000487  1.016851  0.0
H  H35  1  0.26759140  0.79434468  0.91835314  1  0.154708  0.000985  0.137174  0.122245  0.00027  0.994179  0.0
H  H36  1  0.61369442  0.08569181  0.95390837  1  0.632859  0.001732  0.332157  0.41308  0.000843  0.862342  0.001
H  H37  1  0.63418420  0.17575337  0.90032771  1  0.647277  0.00061  0.307398  0.395427  0.000721  0.92465  0.001
H  H38  1  0.18156380  0.04335580  0.52848815  1  0.662324  0.001339  0.296129  0.384403  0.000631  0.948199  0.002
H  H39  1  0.15230862  0.04757033  0.62945204  1  0.641484  0.001667  0.292617  0.373623  0.000912  0.970283  0.002
C  C40  1  0.91810889  0.79315533  0.26896446  1  1.605764  0.013093  0.220357  0.57599  0.01252  4.226044  0.01
C  C41  1  0.92029556  0.71453925  0.19063305  1  0.372985  0.015909  0.094773  -0.013413  0.011565  3.955713  0.01
C  C42  1  0.87965292  0.71133459  0.10271382  1  0.486626  0.015792  0.101085  -0.007604  0.011648  3.950249  0.01
C  C43  1  0.81508370  0.78157114  0.04363631  1  1.622861  0.018687  0.22933  0.592919  0.019039  4.207985  0.016
C  C44  1  0.14711269  0.05986335  0.32316108  1  0.414144  0.02281  0.055136  -0.0046  0.017623  3.815165  0.014
C  C45  1  0.09201428  0.07614579  0.24199629  1  -0.025473  -0.004733  -0.064867  -0.082007  -0.005682  3.947672  -0.004
C  C46  1  0.08506107  0.17443457  0.22229190  1  0.052837  0.025956  -0.062232  -0.061771  0.019961  3.905054  0.016
C  C47  1  0.12792668  0.25552642  0.28704554  1  0.043776  -0.002603  -0.006122  -0.063161  -0.00449  4.00254  -0.004
C  C48  1  0.18731258  0.23584628  0.36685012  1  0.360005  0.021638  0.056724  -0.039877  0.016684  3.82103  0.013
C  C49  1  0.11288632  0.36339617  0.27242671  1  1.572763  0.031766  0.230824  0.597518  0.032264  4.186944  0.027
C  C50  1  0.41812253  0.70682744  0.23105187  1  1.608005  0.013073  0.220299  0.576153  0.012508  4.227007  0.01
C  C51  1  0.42028983  0.78545028  0.30937584  1  0.371338  0.015914  0.094774  -0.013564  0.011565  3.955548  0.01
C  C52  1  0.37963886  0.78864814  0.39729572  1  0.486797  0.015787  0.100938  -0.007714  0.011646  3.950171  0.01
C  C53  1  0.31506663  0.71840702  0.45636944  1  1.622421  0.018696  0.229681  0.59336  0.019048  4.208219  0.016
C  C54  1  0.64712708  0.44011579  0.17684176  1  0.414477  0.022824  0.055282  -0.004237  0.017635  3.815045  0.014
C  C55  1  0.59201567  0.42383418  0.25801310  1  -0.025355  -0.004734  -0.064969  -0.082183  -0.005683  3.948036  -0.004
C  C56  1  0.58504912  0.32555375  0.27771846  1  0.052449  0.025955  -0.062229  -0.061904  0.019959  3.904776  0.016
C  C57  1  0.62792567  0.24444592  0.21295880  1  0.043623  -0.002602  -0.006153  -0.063158  -0.004491  4.002224  -0.004
C  C58  1  0.68731975  0.26414047  0.13315727  1  0.360631  0.021623  0.056738  -0.039922  0.016672  3.821456  0.013
C  C59  1  0.61289481  0.13658376  0.22757906  1  1.573042  0.031753  0.231157  0.598176  0.032252  4.186731  0.027
C  C60  1  0.08188654  0.20684236  0.73103033  1  1.605897  0.013103  0.220597  0.576421  0.012526  4.22538  0.01
C  C61  1  0.07969176  0.28547139  0.80936846  1  0.373575  0.015915  0.094742  -0.013475  0.011571  3.955513  0.01
C  C62  1  0.12034656  0.28866165  0.89728909  1  0.48635  0.015801  0.100927  -0.007742  0.011653  3.949872  0.01
C  C63  1  0.18489281  0.21840997  0.95637109  1  1.62334  0.01872  0.229518  0.592869  0.019077  4.207915  0.016
C  C64  1  0.85285168  0.94014577  0.67684089  1  0.414343  0.022791  0.055178  -0.004588  0.017608  3.814845  0.014
C  C65  1  0.90793792  0.92386257  0.75800430  1  -0.025729  -0.004729  -0.064689  -0.081575  -0.005679  3.947495  -0.004
C  C66  1  0.91493031  0.82557372  0.77770102  1  0.051967  0.025942  -0.062492  -0.062171  0.019949  3.90536  0.016
C  C67  1  0.87210388  0.74447955  0.71294135  1  0.04598  -0.0026  -0.006078  -0.063373  -0.004481  4.002709  -0.004
C  C68  1  0.81270311  0.76415518  0.63314195  1  0.359359  0.021624  0.056915  -0.039458  0.016671  3.820773  0.013
C  C69  1  0.88714694  0.63660454  0.72756526  1  1.572417  0.031751  0.230834  0.597686  0.032249  4.186556  0.027
C  C70  1  0.58188911  0.29317415  0.76895618  1  1.608111  0.013064  0.220306  0.576062  0.0125  4.227015  0.01
C  C71  1  0.57970965  0.21455507  0.69062884  1  0.371016  0.015916  0.094841  -0.013499  0.011566  3.95536  0.01
C  C72  1  0.62035657  0.21134811  0.60270783  1  0.487084  0.015775  0.10091  -0.007731  0.011636  3.950274  0.01
C  C73  1  0.68492610  0.28158087  0.54363179  1  1.622071  0.018683  0.229556  0.593206  0.019034  4.208082  0.016
C  C74  1  0.35288321  0.55987890  0.82315649  1  0.414236  0.022816  0.055333  -0.004141  0.017627  3.814899  0.014
C  C75  1  0.40800408  0.57615754  0.74199307  1  -0.025523  -0.004734  -0.064897  -0.082271  -0.005682  3.947872  -0.004
C  C76  1  0.41496793  0.67444094  0.72227914  1  0.05205  0.025963  -0.062264  -0.06177  0.019965  3.904928  0.016
C  C77  1  0.37208867  0.75553889  0.78703630  1  0.04375  -0.002602  -0.006151  -0.063136  -0.004488  4.002737  -0.004
C  C78  1  0.31270000  0.73585796  0.86683378  1  0.360553  0.021624  0.056699  -0.039971  0.016673  3.82158  0.013
C  C79  1  0.38712089  0.86340940  0.77241835  1  1.57302  0.031755  0.230991  0.598103  0.03225  4.18683  0.027
N  N80  1  0.97676711  0.61961599  0.20012002  1  -0.716672  0.061103  -0.220994  -0.21503  0.039448  3.513581  0.016
N  N81  1  0.97070981  0.56126485  0.12333623  1  -0.196309  0.065742  -0.10237  -0.045384  0.045934  3.503587  0.032
N  N82  1  0.91318257  0.61512242  0.06444831  1  -0.714036  0.062795  -0.221747  -0.192559  0.045113  3.517899  0.025
N  N83  1  0.20087611  0.13925700  0.38310718  1  -0.671302  0.005394  -0.111676  0.323898  0.002424  3.944474  0.001
N  N84  1  0.47676640  0.88036977  0.29989217  1  -0.716399  0.061117  -0.220876  -0.21474  0.039437  3.51351  0.016
N  N85  1  0.47069524  0.93872237  0.37666906  1  -0.196482  0.065747  -0.10226  -0.045184  0.045932  3.50386  0.032
N  N86  1  0.41316425  0.88486331  0.43555811  1  -0.714165  0.062802  -0.221988  -0.19297  0.045113  3.51822  0.025
N  N87  1  0.70088651  0.36072367  0.11689895  1  -0.671736  0.005391  -0.111784  0.323635  0.002424  3.945702  0.001
N  N88  1  0.02323238  0.38039465  0.79988149  1  -0.716943  0.06113  -0.221008  -0.214964  0.039457  3.51386  0.016
N  N89  1  0.02929508  0.43874352  0.87666628  1  -0.196569  0.065766  -0.102405  -0.045384  0.04594  3.503691  0.032
N  N90  1  0.08681015  0.38488371  0.93555902  1  -0.713865  0.062831  -0.221702  -0.192615  0.045128  3.51769  0.025
N  N91  1  0.79910581  0.86075212  0.61689350  1  -0.671016  0.005394  -0.111782  0.323561  0.002425  3.944125  0.001
N  N92  1  0.52322093  0.11963105  0.70011450  1  -0.715998  0.061107  -0.22089  -0.214686  0.039426  3.513159  0.016
N  N93  1  0.52929343  0.06128298  0.62333498  1  -0.196652  0.065735  -0.102256  -0.0453  0.045924  3.503667  0.032
N  N94  1  0.58683929  0.11513902  0.56444683  1  -0.714301  0.062782  -0.221921  -0.192832  0.045101  3.518226  0.025
N  N95  1  0.29912243  0.63927479  0.88309721  1  -0.671612  0.005392  -0.111674  0.323673  0.002424  3.945285  0.001
O  O96  1  0.98167713  0.76794952  0.33760482  1  -1.185303  0.044609  -0.306228  -0.564143  0.032473  2.196579  0.029
O  O97  1  0.85385393  0.88155500  0.26361167  1  -1.202903  0.062023  -0.29996  -0.56539  0.043959  2.332212  0.029
O  O98  1  0.75334111  0.86860539  0.07375192  1  -1.188183  0.076646  -0.31813  -0.546221  0.050661  2.318697  0.038
O  O99  1  0.82600302  0.74740810  0.96329338  1  -1.167228  0.071309  -0.305526  -0.532274  0.049592  2.241903  0.039
O  O100  1  0.27946039  0.12276826  0.45603590  1  -0.667137  0.034335  -0.225783  -0.510467  0.024462  2.058637  0.014
O  O101  1  0.15446080  0.43323637  0.33431370  1  -1.178026  0.080247  -0.305839  -0.53633  0.052932  2.262496  0.037
O  O102  1  0.05569912  0.38036788  0.19959482  1  -1.219752  0.079195  -0.307671  -0.565791  0.055899  2.430971  0.031
O  O103  1  0.85810105  0.60129522  0.39660085  1  -1.2552  0.052101  -0.550547  -0.731349  0.036874  2.010431  0.025
O  O104  1  0.33370784  0.49979589  0.07422659  1  -1.295253  0.069353  -0.564558  -0.741691  0.050231  2.141598  0.035
O  O105  1  0.48169234  0.73204766  0.16241459  1  -1.185583  0.044644  -0.306311  -0.564377  0.032491  2.197086  0.029
O  O106  1  0.35388854  0.61842691  0.23638920  1  -1.203441  0.062011  -0.299851  -0.565346  0.04395  2.332682  0.029
O  O107  1  0.25332268  0.63136824  0.42625326  1  -1.187926  0.076651  -0.318165  -0.546358  0.050664  2.318803  0.038
O  O108  1  0.32595220  0.75259009  0.53670998  1  -1.167186  0.071346  -0.305624  -0.532397  0.049606  2.242079  0.039
O  O109  1  0.77944666  0.37720248  0.04396406  1  -0.666931  0.03433  -0.225753  -0.510379  0.024467  2.059225  0.014
O  O110  1  0.65447279  0.06675037  0.16569144  1  -1.178159  0.080195  -0.305888  -0.536518  0.052925  2.262257  0.037
O  O111  1  0.55573166  0.11962731  0.30042120  1  -1.219606  0.079194  -0.307942  -0.56624  0.055912  2.431134  0.031
O  O112  1  0.35810215  0.89867516  0.10338075  1  -1.254386  0.052075  -0.550818  -0.731947  0.036867  2.009919  0.025
O  O113  1  0.83371499  0.00020445  0.42577954  1  -1.29533  0.069367  -0.56462  -0.741771  0.050227  2.141315  0.035
O  O114  1  0.01832235  0.23207249  0.66239747  1  -1.185671  0.044617  -0.306395  -0.564377  0.032481  2.196644  0.029
O  O115  1  0.14613610  0.11843897  0.73639159  1  -1.202824  0.062025  -0.299971  -0.565567  0.043961  2.332186  0.029
O  O116  1  0.24665027  0.13138007  0.92622985  1  -1.188507  0.076671  -0.318114  -0.546094  0.050674  2.318852  0.038
O  O117  1  0.17396809  0.25260028  0.03670976  1  -1.167402  0.071344  -0.305572  -0.532209  0.049608  2.242159  0.039
O  O118  1  0.72053369  0.87723089  0.54395141  1  -0.667475  0.034343  -0.22583  -0.510509  0.024472  2.058477  0.014
O  O119  1  0.84554409  0.56676815  0.66568195  1  -1.178448  0.080222  -0.30575  -0.536316  0.052915  2.262721  0.037
O  O120  1  0.94428416  0.61964129  0.80041289  1  -1.219281  0.079176  -0.307744  -0.565905  0.055896  2.430464  0.031
O  O121  1  0.14189438  0.39870856  0.60339662  1  -1.255121  0.052097  -0.550518  -0.731332  0.036874  2.010423  0.025
O  O122  1  0.66628894  0.50020565  0.92577571  1  -1.295289  0.06937  -0.564551  -0.741692  0.050238  2.141598  0.035
O  O123  1  0.51830715  0.26796912  0.83759663  1  -1.185496  0.044622  -0.306321  -0.564367  0.03248  2.196829  0.029
O  O124  1  0.64612311  0.38157165  0.76361910  1  -1.203478  0.062019  -0.299857  -0.565304  0.043949  2.332687  0.029
O  O125  1  0.74666330  0.36862872  0.57374463  1  -1.187676  0.076647  -0.318162  -0.546381  0.050663  2.318367  0.038
O  O126  1  0.67402702  0.24741980  0.46329399  1  -1.167319  0.071326  -0.30562  -0.532376  0.049593  2.242332  0.039
O  O127  1  0.22055958  0.62278842  0.95603499  1  -0.666897  0.034321  -0.225798  -0.510457  0.024464  2.059077  0.014
O  O128  1  0.34554425  0.93323906  0.83431253  1  -1.178007  0.080196  -0.305874  -0.536587  0.052927  2.262347  0.037
O  O129  1  0.44429890  0.88038339  0.69958798  1  -1.2197  0.079189  -0.307747  -0.566122  0.055895  2.431211  0.031
O  O130  1  0.64189598  0.10132103  0.89661512  1  -1.254492  0.052086  -0.550743  -0.731821  0.036866  2.010203  0.025
O  O131  1  0.16629530  0.99980017  0.57422888  1  -1.295228  0.069363  -0.564574  -0.741673  0.050225  2.141435  0.035
