# generated using pymatgen
data_ZnH3C2N5O3
_symmetry_space_group_name_H-M   'P 1'
_cell_length_a   6.57110181
_cell_length_b   8.69099780
_cell_length_c   10.25742534
_cell_angle_alpha   90.00020110
_cell_angle_beta   89.99983734
_cell_angle_gamma   94.71721366
_symmetry_Int_Tables_number   1
_chemical_formula_structural   ZnH3C2N5O3
_chemical_formula_sum   'Zn4 H12 C8 N20 O12'
_cell_volume   583.81147735
_cell_formula_units_Z   4
loop_
 _symmetry_equiv_pos_site_id
 _symmetry_equiv_pos_as_xyz
  1  'x, y, z'
loop_
 _atom_site_type_symbol
 _atom_site_label
 _atom_site_symmetry_multiplicity
 _atom_site_fract_x
 _atom_site_fract_y
 _atom_site_fract_z
 _atom_site_occupancy
 _atom_site_hle17_bader_spin_density
 _atom_site_hle17_ddec_charge
 _atom_site_hle17_ddec_spin_density
 _atom_site_hle17_ddec_sum_bond_order
 _atom_site_hle17_magmom
 _atom_site_hse06_10hf_bader_spin_density
 _atom_site_hse06_10hf_ddec_charge
 _atom_site_hse06_10hf_ddec_spin_density
 _atom_site_hse06_10hf_ddec_sum_bond_order
 _atom_site_hse06_10hf_magmom
 _atom_site_hse06_bader_spin_density
 _atom_site_hse06_ddec_charge
 _atom_site_hse06_ddec_spin_density
 _atom_site_hse06_ddec_sum_bond_order
 _atom_site_hse06_magmom
 _atom_site_pbe_bader_spin_density
 _atom_site_pbe_cm5_charge
 _atom_site_pbe_ddec_charge
 _atom_site_pbe_ddec_spin_density
 _atom_site_pbe_ddec_sum_bond_order
 _atom_site_pbe_magmom
Zn  Zn0  1  0.76314810  0.70041402  0.30102223  1  0  1.062162  0  1.881636  0  0  0.876853  0  2.364626  0  0  0.919746  0  2.310377  0  0  0.67013  0.846168  0  2.402159  0
Zn  Zn1  1  0.73684875  0.29959028  0.80102239  1  0  1.062244  0  1.881546  0  0  0.876962  0  2.364561  0  0  0.919851  0  2.310307  0  0  0.670155  0.846269  0  2.402093  0
Zn  Zn2  1  0.23684884  0.29959108  0.69897678  1  0  1.062213  0  1.881554  0  0  0.876926  0  2.364569  0  0  0.919825  0  2.310313  0  0  0.670144  0.846239  0  2.402106  0
Zn  Zn3  1  0.26314792  0.70041250  0.19897858  1  0  1.06215  0  1.881682  0  0  0.876841  0  2.364686  0  0  0.919736  0  2.310436  0  0  0.670118  0.846156  0  2.402227  0
H  H4  1  0.52968100  0.90428273  0.25214596  1  0  0.410854  0  0.891861  0  0  0.380527  0  0.955475  0  0  0.38856  0  0.943841  0  0  0.279885  0.374986  0  0.963516  0
H  H5  1  0.97031729  0.09571906  0.75214411  1  0  0.410743  0  0.892007  0  0  0.380459  0  0.955554  0  0  0.388487  0  0.943926  0  0  0.279817  0.374911  0  0.963601  0
H  H6  1  0.47030946  0.09571892  0.74785988  1  0  0.410712  0  0.892045  0  0  0.38043  0  0.955585  0  0  0.38846  0  0.943957  0  0  0.279795  0.374879  0  0.963634  0
H  H7  1  0.02968381  0.90428255  0.24785589  1  0  0.410873  0  0.891832  0  0  0.380545  0  0.955449  0  0  0.388576  0  0.943819  0  0  0.279878  0.375  0  0.963493  0
H  H8  1  0.82094704  0.24606322  0.53022913  1  0  0.355341  0  0.874696  0  0  0.334406  0  0.941726  0  0  0.342071  0  0.935243  0  0  0.306711  0.329201  0  0.945851  0
H  H9  1  0.67905957  0.75393650  0.03023319  1  0  0.355373  0  0.874743  0  0  0.334416  0  0.94178  0  0  0.342084  0  0.935294  0  0  0.306734  0.32921  0  0.945905  0
H  H10  1  0.17905988  0.75393606  0.46976989  1  0  0.355353  0  0.874778  0  0  0.334409  0  0.941799  0  0  0.342075  0  0.935314  0  0  0.306729  0.329203  0  0.945921  0
H  H11  1  0.32094623  0.24606624  0.96976778  1  0  0.355277  0  0.874763  0  0  0.334359  0  0.941768  0  0  0.342025  0  0.935285  0  0  0.306682  0.329156  0  0.945892  0
H  H12  1  0.79638096  0.33485661  0.37431199  1  0  0.332118  0  0.948687  0  0  0.301039  0  1.034266  0  0  0.309699  0  1.027114  0  0  0.294395  0.294253  0  1.040333  0
H  H13  1  0.70362532  0.66513986  0.87432107  1  0  0.332094  0  0.94878  0  0  0.301016  0  1.03436  0  0  0.309676  0  1.027207  0  0  0.294364  0.294227  0  1.040414  0
H  H14  1  0.20362403  0.66513921  0.62568313  1  0  0.332094  0  0.948858  0  0  0.301016  0  1.034433  0  0  0.309676  0  1.027278  0  0  0.294373  0.294228  0  1.040486  0
H  H15  1  0.29637995  0.33485827  0.12568672  1  0  0.332082  0  0.9488  0  0  0.301024  0  1.034344  0  0  0.309686  0  1.02719  0  0  0.294391  0.294238  0  1.04041  0
C  C16  1  0.75330987  0.46830343  0.53680719  1  0  0.606611  0  3.809159  0  0  0.55561  0  4.087704  0  0  0.579739  0  4.098762  0  0  0.330092  0.538862  0  4.079553  0
C  C17  1  0.74670240  0.53169283  0.03681535  1  0  0.606367  0  3.809207  0  0  0.55547  0  4.087591  0  0  0.579601  0  4.098659  0  0  0.330047  0.538721  0  4.079443  0
C  C18  1  0.24670564  0.53169119  0.46318695  1  0  0.606526  0  3.808979  0  0  0.555595  0  4.08743  0  0  0.579723  0  4.098492  0  0  0.330081  0.538837  0  4.079293  0
C  C19  1  0.25330604  0.46830644  0.96319342  1  0  0.606354  0  3.809426  0  0  0.555489  0  4.087803  0  0  0.579623  0  4.098864  0  0  0.330022  0.53872  0  4.079686  0
C  C20  1  0.70151508  0.69816639  0.58996809  1  0  0.318846  0  3.813304  0  0  0.253746  0  4.111931  0  0  0.264874  0  4.132184  0  0  0.297322  0.249033  0  4.100591  0
C  C21  1  0.79848688  0.30183474  0.08997061  1  0  0.319189  0  3.812977  0  0  0.253886  0  4.111882  0  0  0.265061  0  4.132152  0  0  0.297447  0.249174  0  4.10055  0
C  C22  1  0.29848728  0.30183291  0.41002800  1  0  0.319014  0  3.813191  0  0  0.253754  0  4.112017  0  0  0.264907  0  4.132281  0  0  0.297379  0.249043  0  4.100684  0
C  C23  1  0.20151145  0.69816919  0.91003329  1  0  0.318951  0  3.813214  0  0  0.253753  0  4.111974  0  0  0.264924  0  4.132248  0  0  0.297334  0.249042  0  4.100631  0
N  N24  1  0.73141658  0.60948475  0.48283871  1  0  -0.577624  0  3.137629  0  0  -0.498568  0  3.438851  0  0  -0.520036  0  3.443006  0  0  -0.363104  -0.483648  0  3.43594  0
N  N25  1  0.76858526  0.39051678  0.98284395  1  0  -0.577626  0  3.137492  0  0  -0.49856  0  3.43876  0  0  -0.520032  0  3.442911  0  0  -0.363091  -0.483637  0  3.435847  0
N  N26  1  0.26858895  0.39051568  0.51715543  1  0  -0.577593  0  3.137543  0  0  -0.498541  0  3.438812  0  0  -0.520015  0  3.442968  0  0  -0.36305  -0.483618  0  3.435902  0
N  N27  1  0.23141155  0.60948716  0.01715995  1  0  -0.577555  0  3.137697  0  0  -0.498525  0  3.4389  0  0  -0.52  0  3.443054  0  0  -0.363058  -0.483598  0  3.435993  0
N  N28  1  0.73751297  0.47701256  0.66992250  1  0  -0.378186  0  3.119092  0  0  -0.310808  0  3.426967  0  0  -0.332612  0  3.436482  0  0  -0.250885  -0.295397  0  3.419317  0
N  N29  1  0.76248815  0.52298427  0.16992573  1  0  -0.378001  0  3.118947  0  0  -0.310661  0  3.426772  0  0  -0.332468  0  3.436296  0  0  -0.250859  -0.295248  0  3.419123  0
N  N30  1  0.26248747  0.52298328  0.33007652  1  0  -0.378119  0  3.119058  0  0  -0.310775  0  3.426926  0  0  -0.332576  0  3.43644  0  0  -0.250921  -0.295363  0  3.419287  0
N  N31  1  0.23751117  0.47701503  0.83007817  1  0  -0.378018  0  3.11917  0  0  -0.310668  0  3.426983  0  0  -0.332476  0  3.436501  0  0  -0.250855  -0.295253  0  3.419343  0
N  N32  1  0.70383097  0.62325879  0.70192687  1  0  -0.218787  0  3.057816  0  0  -0.201913  0  3.34533  0  0  -0.203974  0  3.358702  0  0  -0.200259  -0.199318  0  3.335757  0
N  N33  1  0.79616850  0.37673818  0.20192669  1  0  -0.218903  0  3.057764  0  0  -0.201946  0  3.34533  0  0  -0.204006  0  3.358692  0  0  -0.200242  -0.199349  0  3.335773  0
N  N34  1  0.29616808  0.37673821  0.29807214  1  0  -0.218804  0  3.057772  0  0  -0.20188  0  3.34533  0  0  -0.203943  0  3.358695  0  0  -0.200234  -0.199285  0  3.335773  0
N  N35  1  0.20382902  0.62325883  0.79807428  1  0  -0.218821  0  3.057876  0  0  -0.201938  0  3.345433  0  0  -0.203995  0  3.358795  0  0  -0.200232  -0.199344  0  3.335861  0
N  N36  1  0.78145782  0.33660024  0.47476802  1  0  -0.682603  0  3.07797  0  0  -0.647916  0  3.325687  0  0  -0.672474  0  3.324066  0  0  -0.573662  -0.63008  0  3.32653  0
N  N37  1  0.71854598  0.66340472  0.97477317  1  0  -0.682596  0  3.077944  0  0  -0.647903  0  3.325609  0  0  -0.672458  0  3.32397  0  0  -0.573681  -0.630058  0  3.326465  0
N  N38  1  0.21854534  0.66340598  0.52523100  1  0  -0.682622  0  3.077819  0  0  -0.647914  0  3.32545  0  0  -0.67248  0  3.323837  0  0  -0.573693  -0.630066  0  3.326295  0
N  N39  1  0.28145567  0.33660151  0.02523170  1  0  -0.682474  0  3.078145  0  0  -0.647854  0  3.325764  0  0  -0.672414  0  3.324139  0  0  -0.573625  -0.630006  0  3.32662  0
N  N40  1  0.67470616  0.85853286  0.58580844  1  0  0.42519  0  3.974749  0  0  0.489202  0  4.230214  0  0  0.493249  0  4.263028  0  0  0.052012  0.474672  0  4.226894  0
N  N41  1  0.82528848  0.14147060  0.08580654  1  0  0.425041  0  3.974735  0  0  0.489094  0  4.230256  0  0  0.492975  0  4.263302  0  0  0.051892  0.474565  0  4.226942  0
N  N42  1  0.32528873  0.14146762  0.41418863  1  0  0.425143  0  3.975233  0  0  0.489272  0  4.230586  0  0  0.493232  0  4.26353  0  0  0.052013  0.474743  0  4.227272  0
N  N43  1  0.17470516  0.85853220  0.91419248  1  0  0.425076  0  3.97485  0  0  0.489161  0  4.23028  0  0  0.493053  0  4.26331  0  0  0.051945  0.474634  0  4.226957  0
O  O44  1  0.62656612  0.92138297  0.68938232  1  0  -0.341713  0  1.792044  0  0  -0.331517  0  1.988932  0  0  -0.33497  0  1.991306  0  0  -0.12812  -0.325839  0  1.993797  0
O  O45  1  0.87342512  0.07860821  0.18937527  1  0  -0.341664  0  1.792012  0  0  -0.331443  0  1.988905  0  0  -0.334836  0  1.991338  0  0  -0.128112  -0.325759  0  1.993774  0
O  O46  1  0.37341883  0.07861063  0.31061572  1  0  -0.341729  0  1.792007  0  0  -0.331538  0  1.988856  0  0  -0.33497  0  1.991279  0  0  -0.128144  -0.325856  0  1.993724  0
O  O47  1  0.12657048  0.92138534  0.81061985  1  0  -0.341699  0  1.792088  0  0  -0.331503  0  1.988956  0  0  -0.334913  0  1.99141  0  0  -0.128118  -0.325824  0  1.993816  0
O  O48  1  0.70281670  0.92625369  0.47892886  1  0  -0.346119  0  1.77352  0  0  -0.333987  0  1.973744  0  0  -0.337287  0  1.974561  0  0  -0.127401  -0.3271  0  1.979729  0
O  O49  1  0.79718323  0.07374437  0.97893214  1  0  -0.346201  0  1.773656  0  0  -0.334049  0  1.973851  0  0  -0.337293  0  1.974741  0  0  -0.127392  -0.327144  0  1.979805  0
O  O50  1  0.29718829  0.07374213  0.52106236  1  0  -0.346174  0  1.774044  0  0  -0.334062  0  1.974185  0  0  -0.337332  0  1.975052  0  0  -0.127407  -0.327152  0  1.980131  0
O  O51  1  0.20281014  0.92625611  0.02106980  1  0  -0.346111  0  1.773619  0  0  -0.334006  0  1.973829  0  0  -0.337252  0  1.974708  0  0  -0.127383  -0.327113  0  1.979799  0
O  O52  1  0.54225110  0.80195081  0.21505170  1  0  -0.966133  0  1.889003  0  0  -0.866727  0  2.185153  0  0  -0.89663  0  2.148987  0  0  -0.587126  -0.845847  0  2.209406  0
O  O53  1  0.95774581  0.19805084  0.71505017  1  0  -0.966034  0  1.889103  0  0  -0.8667  0  2.185262  0  0  -0.896595  0  2.149101  0  0  -0.58708  -0.84582  0  2.209522  0
O  O54  1  0.45774280  0.19805430  0.78495024  1  0  -0.965973  0  1.889093  0  0  -0.86664  0  2.185254  0  0  -0.896538  0  2.14909  0  0  -0.587062  -0.845789  0  2.20959  0
O  O55  1  0.04225073  0.80195079  0.28495080  1  0  -0.966111  0  1.888911  0  0  -0.866718  0  2.185065  0  0  -0.896617  0  2.148901  0  0  -0.587089  -0.845859  0  2.209371  0
