# generated using pymatgen
data_YbH3C4O9
_symmetry_space_group_name_H-M   'P 1'
_cell_length_a   10.32113930
_cell_length_b   9.86454282
_cell_length_c   11.95814597
_cell_angle_alpha   89.99956925
_cell_angle_beta   105.77259399
_cell_angle_gamma   89.99936937
_symmetry_Int_Tables_number   1
_chemical_formula_structural   YbH3C4O9
_chemical_formula_sum   'Yb4 H12 C16 O36'
_cell_volume   1171.65744146
_cell_formula_units_Z   4
loop_
 _symmetry_equiv_pos_site_id
 _symmetry_equiv_pos_as_xyz
  1  'x, y, z'
loop_
 _atom_site_type_symbol
 _atom_site_label
 _atom_site_symmetry_multiplicity
 _atom_site_fract_x
 _atom_site_fract_y
 _atom_site_fract_z
 _atom_site_occupancy
 _atom_site_pbe_bader_charge
 _atom_site_pbe_bader_spin_density
 _atom_site_pbe_cm5_charge
 _atom_site_pbe_ddec_charge
 _atom_site_pbe_ddec_spin_density
 _atom_site_pbe_ddec_sum_bond_order
 _atom_site_pbe_magmom
Yb  Yb0  1  0.20762921  0.07558250  0.88355703  1  2.173082  0  1.595531  1.991937  0  2.180946  0
Yb  Yb1  1  0.29236308  0.57558867  0.61644311  1  2.173062  0  1.595585  1.991964  0  2.181023  0
Yb  Yb2  1  0.79237875  0.92441191  0.11645539  1  2.173139  0  1.595576  1.99229  0  2.180496  0
Yb  Yb3  1  0.70762613  0.42441386  0.38355757  1  2.173061  0  1.595578  1.99213  0  2.180651  0
H  H4  1  0.09305133  0.26240698  0.66479505  1  0.660688  0  0.308  0.40901  0  0.918148  0
H  H5  1  0.40695170  0.76240847  0.83520659  1  0.660676  0  0.308018  0.409034  0  0.918133  0
H  H6  1  0.90694263  0.73757324  0.33520313  1  0.660604  0  0.308015  0.409027  0  0.918035  0
H  H7  1  0.59305365  0.23757581  0.16479782  1  0.660582  0  0.308034  0.409042  0  0.918032  0
H  H8  1  0.13531770  0.05620728  0.61388750  1  0.665501  0  0.314279  0.368008  0  0.959588  0
H  H9  1  0.36467048  0.55620892  0.88610525  1  0.665552  0  0.31434  0.368078  0  0.959591  0
H  H10  1  0.86469172  0.94379017  0.38610590  1  0.665271  0  0.314238  0.367968  0  0.959636  0
H  H11  1  0.63531056  0.44379056  0.11389230  1  0.665373  0  0.314256  0.367967  0  0.959609  0
H  H12  1  0.98362002  0.16315843  0.69124347  1  0.634398  0  0.345659  0.442679  0  0.8265  0
H  H13  1  0.51637813  0.66315321  0.80875459  1  0.634429  0  0.345602  0.442466  0  0.826659  0
H  H14  1  0.01639524  0.83683598  0.30876103  1  0.634306  0  0.345582  0.442584  0  0.826486  0
H  H15  1  0.48360907  0.33683918  0.19124574  1  0.634301  0  0.345551  0.442536  0  0.826576  0
C  C16  1  0.28194971  0.37986819  0.89346377  1  1.558277  0  0.245874  0.486398  0  4.099098  0
C  C17  1  0.21802756  0.87986945  0.60652127  1  1.557125  0  0.245961  0.486735  0  4.098823  0
C  C18  1  0.71803616  0.62011710  0.10654470  1  1.556234  0  0.245897  0.48666  0  4.098841  0
C  C19  1  0.78197055  0.12013815  0.39346675  1  1.557511  0  0.245804  0.486485  0  4.098938  0
C  C20  1  0.34531547  0.32192206  0.79944961  1  1.637263  0  0.227745  0.52844  0  4.242181  0
C  C21  1  0.15469850  0.82191564  0.70055721  1  1.63744  0  0.227819  0.528415  0  4.241974  0
C  C22  1  0.65470448  0.67807641  0.20056412  1  1.63794  0  0.22783  0.528456  0  4.242362  0
C  C23  1  0.84530357  0.17808284  0.29944325  1  1.637552  0  0.22774  0.528358  0  4.242289  0
C  C24  1  0.05353161  0.95825894  0.04502438  1  1.625473  0  0.223482  0.519427  0  4.220144  0
C  C25  1  0.44647351  0.45825059  0.45498980  1  1.625778  0  0.223605  0.519839  0  4.219772  0
C  C26  1  0.94648352  0.04174156  0.95499099  1  1.5875  0  0.223771  0.520159  0  4.219035  0
C  C27  1  0.55351349  0.54176005  0.54500797  1  1.587277  0  0.22351  0.519546  0  4.219816  0
C  C28  1  0.49685976  0.94063263  0.95782799  1  1.623844  0  0.230327  0.524532  0  4.182122  0
C  C29  1  0.00314241  0.44063725  0.54216388  1  1.593959  0  0.230191  0.524202  0  4.182208  0
C  C30  1  0.50314893  0.05939118  0.04216864  1  1.594748  0  0.230252  0.524322  0  4.181934  0
C  C31  1  0.99685020  0.55939163  0.45781729  1  1.624274  0  0.230396  0.5245  0  4.181988  0
O  O32  1  0.20585677  0.30589689  0.93053324  1  -1.129191  0  -0.329552  -0.511052  0  2.265209  0
O  O33  1  0.29413614  0.80591094  0.56946566  1  -1.128596  0  -0.329591  -0.511228  0  2.265238  0
O  O34  1  0.79414510  0.69406914  0.06947725  1  -1.128284  0  -0.329534  -0.511272  0  2.264909  0
O  O35  1  0.70585755  0.19409362  0.43052912  1  -1.128872  0  -0.329515  -0.511137  0  2.265068  0
O  O36  1  0.31074675  0.50369622  0.93151232  1  -1.155398  0  -0.295271  -0.392944  0  2.291839  0
O  O37  1  0.18924459  0.00370245  0.56848027  1  -1.155077  0  -0.295252  -0.393008  0  2.291645  0
O  O38  1  0.68924058  0.49629414  0.06847713  1  -1.15466  0  -0.29526  -0.392968  0  2.291604  0
O  O39  1  0.81076055  0.99631123  0.43152159  1  -1.15512  0  -0.295204  -0.392901  0  2.291513  0
O  O40  1  0.34687728  0.19450413  0.79444208  1  -1.141948  0  -0.371376  -0.578158  0  2.263484  0
O  O41  1  0.15311145  0.69448546  0.70554711  1  -1.141661  0  -0.371367  -0.578105  0  2.262864  0
O  O42  1  0.65313638  0.80549839  0.20556717  1  -1.141962  0  -0.371436  -0.578217  0  2.26329  0
O  O43  1  0.84687440  0.30550186  0.29443621  1  -1.14191  0  -0.37136  -0.578101  0  2.263334  0
O  O44  1  0.38512517  0.40490262  0.73579610  1  -1.182664  0  -0.402162  -0.610141  0  2.330759  0
O  O45  1  0.11488252  0.90490120  0.76419264  1  -1.182724  0  -0.402254  -0.610177  0  2.331138  0
O  O46  1  0.61488197  0.59509078  0.26419354  1  -1.18282  0  -0.402215  -0.610131  0  2.331001  0
O  O47  1  0.88514024  0.09509828  0.23580649  1  -1.182547  0  -0.402191  -0.610205  0  2.330686  0
O  O48  1  0.17237890  0.96098394  0.03506252  1  -1.16572  0  -0.395777  -0.591677  0  2.253233  0
O  O49  1  0.32762501  0.46098757  0.46494976  1  -1.165979  0  -0.395816  -0.591789  0  2.253052  0
O  O50  1  0.82763564  0.03899223  0.96497035  1  -1.16574  0  -0.395968  -0.591931  0  2.25264  0
O  O51  1  0.67236044  0.53902104  0.53504103  1  -1.165741  0  -0.395749  -0.591636  0  2.252998  0
O  O52  1  0.01214098  0.89510889  0.12075346  1  -1.170007  0  -0.391523  -0.592989  0  2.276057  0
O  O53  1  0.48787686  0.39510284  0.37926565  1  -1.169814  0  -0.391612  -0.593144  0  2.276129  0
O  O54  1  0.98790115  0.10488248  0.87927764  1  -1.169791  0  -0.39162  -0.593222  0  2.276218  0
O  O55  1  0.51209929  0.60489969  0.62073269  1  -1.16966  0  -0.391562  -0.593003  0  2.276186  0
O  O56  1  0.38175652  0.91629352  0.88731539  1  -1.186989  0  -0.355648  -0.597337  0  2.290221  0
O  O57  1  0.11824306  0.41629798  0.61267440  1  -1.186779  0  -0.355629  -0.597174  0  2.290126  0
O  O58  1  0.61826710  0.08371103  0.11268223  1  -1.187545  0  -0.355601  -0.59723  0  2.290136  0
O  O59  1  0.88172618  0.58371874  0.38731182  1  -1.187576  0  -0.355568  -0.597226  0  2.290251  0
O  O60  1  0.60289794  0.87520735  0.96452761  1  -1.161549  0  -0.362687  -0.574996  0  2.307895  0
O  O61  1  0.89710734  0.37520099  0.53545868  1  -1.161385  0  -0.362678  -0.574901  0  2.307927  0
O  O62  1  0.39710734  0.12481241  0.03546338  1  -1.161565  0  -0.362645  -0.574823  0  2.307883  0
O  O63  1  0.10288862  0.62481168  0.46452729  1  -1.161635  0  -0.362733  -0.574896  0  2.307905  0
O  O64  1  0.07827702  0.16805469  0.69125412  1  -1.251375  0  -0.586926  -0.821393  0  2.148875  0
O  O65  1  0.42171547  0.66805865  0.80873747  1  -1.251409  0  -0.586915  -0.821206  0  2.148972  0
O  O66  1  0.92171600  0.83196101  0.30873215  1  -1.251257  0  -0.586943  -0.821466  0  2.148679  0
O  O67  1  0.57828238  0.33195604  0.19127230  1  -1.251263  0  -0.58691  -0.821413  0  2.148689  0
