# generated using pymatgen
data_Zn4H15C24N3O13
_symmetry_space_group_name_H-M   'P 1'
_cell_length_a   18.36793085
_cell_length_b   18.23485791
_cell_length_c   18.38703688
_cell_angle_alpha   60.55709007
_cell_angle_beta   60.87625366
_cell_angle_gamma   60.17544610
_symmetry_Int_Tables_number   1
_chemical_formula_structural   Zn4H15C24N3O13
_chemical_formula_sum   'Zn8 H30 C48 N6 O26'
_cell_volume   4407.15058878
_cell_formula_units_Z   2
loop_
 _symmetry_equiv_pos_site_id
 _symmetry_equiv_pos_as_xyz
  1  'x, y, z'
loop_
 _atom_site_type_symbol
 _atom_site_label
 _atom_site_symmetry_multiplicity
 _atom_site_fract_x
 _atom_site_fract_y
 _atom_site_fract_z
 _atom_site_occupancy
 _atom_site_pbe_bader_charge
 _atom_site_pbe_bader_spin_density
 _atom_site_pbe_cm5_charge
 _atom_site_pbe_ddec_charge
 _atom_site_pbe_ddec_spin_density
 _atom_site_pbe_ddec_sum_bond_order
 _atom_site_pbe_magmom
Zn  Zn0  1  0.04456474  0.84992672  0.05181472  1  1.318919  0  0.672242  0.963245  0  2.368793  0
Zn  Zn1  1  0.04461116  0.02864978  0.04845968  1  1.325795  0  0.668753  0.962152  0  2.377031  0
Zn  Zn2  1  0.87205647  0.02586181  0.04810400  1  1.324811  0  0.669922  0.960753  0  2.387827  0
Zn  Zn3  1  0.04541460  0.02316987  0.87749708  1  1.299334  0  0.671059  0.959554  0  2.388379  0
Zn  Zn4  1  0.45929035  0.61045671  0.46844209  1  1.307203  0  0.66524  0.936587  0  2.421502  0
Zn  Zn5  1  0.45609488  0.43666078  0.46286097  1  1.329251  0  0.680633  0.985352  0  2.325505  0
Zn  Zn6  1  0.45831385  0.44029547  0.63303808  1  1.29475  0  0.66671  0.937885  0  2.434645  0
Zn  Zn7  1  0.63153613  0.44024721  0.46507009  1  1.32554  0  0.6735  0.964085  0  2.375146  0
H  H8  1  0.18851336  0.66529484  0.22700634  1  0.08984  0  0.104745  0.115679  0  1.002173  0
H  H9  1  0.28183748  0.57392211  0.32650691  1  0.080362  0  0.107368  0.113122  0  0.993582  0
H  H10  1  0.28467907  0.89181310  0.27896220  1  0.451098  0  0.311676  0.305718  0  0.942228  0
H  H11  1  0.33695959  0.78911258  0.34712063  1  0.495656  0  0.298319  0.310948  0  0.993212  0
H  H12  1  0.21090120  0.90296488  0.19687677  1  0.105406  0  0.104765  0.118841  0  1.00549  0
H  H13  1  0.91306919  0.66128801  0.19298617  1  0.082973  0  0.104426  0.114903  0  1.004293  0
H  H14  1  0.81210054  0.57030439  0.28886984  1  0.099777  0  0.1063  0.111444  0  0.995554  0
H  H15  1  0.54628455  0.88872999  0.29908646  1  0.424796  0  0.310789  0.303895  0  0.942302  0
H  H16  1  0.52725904  0.78663872  0.35243922  1  0.497241  0  0.297686  0.309448  0  0.994293  0
H  H17  1  0.68877727  0.89925086  0.22108066  1  0.094894  0  0.106129  0.1207  0  1.004914  0
H  H18  1  0.16988113  0.66569585  0.91139584  1  0.073526  0  0.104173  0.114474  0  1.003702  0
H  H19  1  0.27040963  0.57404986  0.81045787  1  0.079726  0  0.103779  0.10801  0  0.998772  0
H  H20  1  0.38864120  0.85522233  0.58658269  1  0.435979  0  0.315166  0.310506  0  0.934717  0
H  H21  1  0.42230505  0.76272344  0.55697850  1  0.488877  0  0.299779  0.311537  0  0.985376  0
H  H22  1  0.26499927  0.88253285  0.71340289  1  0.089496  0  0.106865  0.121825  0  0.997855  0
H  H23  1  0.68482230  0.21950421  0.17587980  1  0.080314  0  0.10255  0.112871  0  1.006075  0
H  H24  1  0.59231462  0.31137737  0.27663577  1  0.107328  0  0.106755  0.113159  0  0.993592  0
H  H25  1  0.89516483  0.19760437  0.34663300  1  0.459985  0  0.315654  0.310998  0  0.935536  0
H  H26  1  0.79425557  0.27217540  0.39340902  1  0.504632  0  0.30276  0.318315  0  0.984088  0
H  H27  1  0.91142968  0.14539543  0.24321677  1  0.059993  0  0.104443  0.118623  0  1.004259  0
H  H28  1  0.21613276  0.16750041  0.69034570  1  0.103685  0  0.102766  0.112725  0  1.005262  0
H  H29  1  0.31320909  0.26260519  0.59610014  1  0.08669  0  0.106488  0.112211  0  0.99366  0
H  H30  1  0.22878423  0.31785929  0.89684787  1  0.456739  0  0.312366  0.306596  0  0.938928  0
H  H31  1  0.30114498  0.36362772  0.79609779  1  0.511477  0  0.300168  0.314522  0  0.988204  0
H  H32  1  0.17421581  0.21458305  0.91692077  1  0.101922  0  0.105532  0.119428  0  1.00394  0
H  H33  1  0.91227683  0.20470664  0.69007723  1  0.081464  0  0.104109  0.114556  0  1.004832  0
H  H34  1  0.81051641  0.30453446  0.59885619  1  0.102546  0  0.105474  0.111353  0  0.997461  0
H  H35  1  0.55305760  0.19783442  0.89834076  1  0.433099  0  0.315924  0.310824  0  0.936574  0
H  H36  1  0.53187421  0.27473445  0.79855835  1  0.503555  0  0.301654  0.316423  0  0.988198  0
H  H37  1  0.69256764  0.14155199  0.91572427  1  0.093489  0  0.106084  0.120326  0  1.002762  0
C  C38  1  0.13953713  0.84618154  0.14634865  1  1.531141  0  0.230442  0.60883  0  4.148232  0
C  C39  1  0.19481336  0.78975166  0.20636215  1  0.006165  0  -0.015081  -0.005305  0  4.009618  0
C  C40  1  0.21420325  0.69634313  0.24262065  1  0.067985  0  -0.103891  -0.142834  0  4.017412  0
C  C41  1  0.26565212  0.64628156  0.29761480  1  -0.087935  0  -0.083387  -0.068957  0  4.015702  0
C  C42  1  0.29867369  0.68580137  0.31904848  1  0.033181  0  -0.031445  -0.16868  0  3.92466  0
C  C43  1  0.35351225  0.62652662  0.37807768  1  1.470847  0  0.223963  0.617096  0  4.147  0
C  C44  1  0.27870232  0.78060926  0.28253407  1  0.456153  0  0.110655  0.310389  0  4.069775  0
C  C45  1  0.22664245  0.83055351  0.22602717  1  -0.045373  0  -0.098505  -0.223117  0  3.930718  0
C  C46  1  0.86351076  0.84248517  0.14518041  1  1.588014  0  0.229902  0.60745  0  4.153549  0
C  C47  1  0.80552634  0.78588720  0.20194312  1  -0.120424  0  -0.014308  -0.004646  0  4.008669  0
C  C48  1  0.84205241  0.69244451  0.22054475  1  0.121513  0  -0.103311  -0.142103  0  4.020177  0
C  C49  1  0.78609172  0.64263144  0.27348962  1  -0.11987  0  -0.083752  -0.069117  0  4.016981  0
C  C50  1  0.69390922  0.68240270  0.30920623  1  0.028413  0  -0.031409  -0.168459  0  3.926792  0
C  C51  1  0.63904107  0.62408088  0.36436851  1  1.461855  0  0.222924  0.614689  0  4.144419  0
C  C52  1  0.65705307  0.77711724  0.29070374  1  0.440505  0  0.11057  0.31003  0  4.0687  0
C  C53  1  0.71505207  0.82683115  0.23642673  1  0.007567  0  -0.098296  -0.22246  0  3.93287  0
C  C54  1  0.14939192  0.83784512  0.87332127  1  1.576516  0  0.229785  0.60726  0  4.158486  0
C  C55  1  0.21226529  0.77960643  0.81694775  1  -0.044049  0  -0.013349  0.000387  0  4.011726  0
C  C56  1  0.21343126  0.69180503  0.84644335  1  -0.010477  0  -0.105427  -0.147101  0  4.027054  0
C  C57  1  0.26901516  0.64162367  0.79051493  1  -0.016049  0  -0.085062  -0.069522  0  4.023861  0
C  C58  1  0.32477107  0.67543468  0.70574685  1  -0.010922  0  -0.033485  -0.1702  0  3.93254  0
C  C59  1  0.37896832  0.61804015  0.64971942  1  1.510721  0  0.220237  0.612939  0  4.15496  0
C  C60  1  0.32565918  0.76346943  0.67690523  1  0.469233  0  0.112517  0.313019  0  4.070722  0
C  C61  1  0.26759592  0.81416184  0.73444764  1  0.003909  0  -0.097266  -0.223162  0  3.92337  0
C  C62  1  0.86157223  0.12293791  0.14366177  1  1.494189  0  0.229994  0.609031  0  4.147263  0
C  C63  1  0.80388503  0.17748395  0.20411730  1  7.2e-05  0  -0.015538  -0.003806  0  4.011933  0
C  C64  1  0.71315660  0.22364706  0.21315580  1  -0.03963  0  -0.107751  -0.149268  0  4.028029  0
C  C65  1  0.66239965  0.27408247  0.26902996  1  -0.007761  0  -0.084916  -0.070876  0  4.020353  0
C  C66  1  0.69835559  0.28045607  0.31740286  1  -0.018785  0  -0.032954  -0.171323  0  3.924366  0
C  C67  1  0.63962575  0.33793018  0.37361172  1  1.524976  0  0.22289  0.615716  0  4.14834  0
C  C68  1  0.79010852  0.23225832  0.30942998  1  0.488313  0  0.113667  0.315559  0  4.076238  0
C  C69  1  0.84105718  0.18186135  0.25136934  1  -0.027828  0  -0.099363  -0.22604  0  3.928627  0
C  C70  1  0.13344584  0.12793509  0.86749651  1  1.574159  0  0.229744  0.607062  0  4.152358  0
C  C71  1  0.19004201  0.18591960  0.80940954  1  -0.015305  0  -0.014564  -0.003947  0  4.009821  0
C  C72  1  0.22861895  0.19909538  0.71823590  1  -0.104236  0  -0.10576  -0.145108  0  4.018607  0
C  C73  1  0.28190791  0.25171219  0.66664850  1  0.070754  0  -0.084013  -0.069253  0  4.016417  0
C  C74  1  0.29825063  0.29314073  0.70219067  1  -0.02897  0  -0.031912  -0.170555  0  3.925395  0
C  C75  1  0.35630423  0.34802169  0.64254919  1  1.512763  0  0.221706  0.61353  0  4.151786  0
C  C76  1  0.25809609  0.28075616  0.79449522  1  0.422137  0  0.111716  0.311588  0  4.066195  0
C  C77  1  0.20462088  0.22610671  0.84617267  1  -0.037929  0  -0.098363  -0.222429  0  3.931899  0
C  C78  1  0.86499727  0.11087030  0.86567773  1  1.511307  0  0.230721  0.609146  0  4.148989  0
C  C79  1  0.80711494  0.16764502  0.80837419  1  0.014802  0  -0.015075  -0.003512  0  4.012469  0
C  C80  1  0.84226219  0.21267943  0.71826514  1  0.061561  0  -0.106141  -0.146074  0  4.026475  0
C  C81  1  0.78584005  0.26742917  0.66830530  1  -0.118111  0  -0.085446  -0.071698  0  4.025032  0
C  C82  1  0.69484088  0.27851157  0.70430809  1  0.035778  0  -0.033659  -0.173471  0  3.93017  0
C  C83  1  0.63957060  0.33929985  0.64617775  1  1.492059  0  0.220849  0.613287  0  4.151381  0
C  C84  1  0.65961793  0.23125121  0.79535459  1  0.455986  0  0.115079  0.317052  0  4.07294  0
C  C85  1  0.71801601  0.17682309  0.84567882  1  -0.02925  0  -0.098207  -0.223814  0  3.927396  0
N  N86  1  0.30977415  0.82425160  0.29788657  1  -1.292898  0  -0.595  -0.622889  0  3.35622  0
N  N87  1  0.56895660  0.82123718  0.32519255  1  -1.264694  0  -0.596341  -0.622481  0  3.346864  0
N  N88  1  0.37886860  0.80066024  0.59664283  1  -1.264595  0  -0.592517  -0.622173  0  3.356279  0
N  N89  1  0.82986153  0.23188509  0.35571812  1  -1.289842  0  -0.59002  -0.620015  0  3.36174  0
N  N90  1  0.27028495  0.31738190  0.83540994  1  -1.294727  0  -0.594131  -0.622211  0  3.348285  0
N  N91  1  0.57307649  0.23700848  0.83543156  1  -1.273914  0  -0.589542  -0.618135  0  3.364504  0
O  O92  1  0.00197261  0.98138078  0.00674749  1  -1.235532  0  -0.572284  -1.027655  0  2.540959  0
O  O93  1  0.12317138  0.93060812  0.11726910  1  -1.188926  0  -0.318135  -0.550822  0  2.338384  0
O  O94  1  0.11331836  0.80523122  0.12906898  1  -1.162587  0  -0.31277  -0.54343  0  2.332538  0
O  O95  1  0.37680612  0.54214097  0.39810884  1  -1.181257  0  -0.316228  -0.552196  0  2.341257  0
O  O96  1  0.37440916  0.66405389  0.40601420  1  -1.174249  0  -0.320394  -0.559822  0  2.363048  0
O  O97  1  0.82485134  0.92710978  0.12736095  1  -1.179615  0  -0.31789  -0.551604  0  2.343517  0
O  O98  1  0.94682647  0.80167190  0.11943321  1  -1.176805  0  -0.311703  -0.539669  0  2.331398  0
O  O99  1  0.67834065  0.53925588  0.38448091  1  -1.162454  0  -0.318049  -0.551435  0  2.331461  0
O  O100  1  0.55412612  0.66243322  0.38888050  1  -1.172103  0  -0.319117  -0.558254  0  2.372946  0
O  O101  1  0.13162237  0.92214705  0.83409036  1  -1.179025  0  -0.315949  -0.548144  0  2.344714  0
O  O102  1  0.11822953  0.79866900  0.95561302  1  -1.17432  0  -0.312803  -0.541464  0  2.324989  0
O  O103  1  0.38698571  0.53508035  0.68647506  1  -1.180348  0  -0.321369  -0.551269  0  2.347308  0
O  O104  1  0.41459272  0.65452685  0.56659949  1  -1.19195  0  -0.32124  -0.564696  0  2.35602  0
O  O105  1  0.82270859  0.10872963  0.11250252  1  -1.160421  0  -0.314233  -0.543306  0  2.327334  0
O  O106  1  0.94511197  0.09475922  0.12809525  1  -1.160906  0  -0.317987  -0.552644  0  2.337702  0
O  O107  1  0.67573820  0.35094889  0.40954564  1  -1.177496  0  -0.318366  -0.562972  0  2.364992  0
O  O108  1  0.55687097  0.37183496  0.38300518  1  -1.181827  0  -0.318347  -0.552598  0  2.327053  0
O  O109  1  0.11336830  0.10197659  0.82882604  1  -1.167943  0  -0.312996  -0.540747  0  2.341505  0
O  O110  1  0.10993339  0.10891592  0.95081433  1  -1.180913  0  -0.317624  -0.551037  0  2.332897  0
O  O111  1  0.37129471  0.38338348  0.67757288  1  -1.178722  0  -0.319701  -0.558652  0  2.387319  0
O  O112  1  0.38843073  0.35775573  0.56027732  1  -1.178244  0  -0.317679  -0.553757  0  2.315684  0
O  O113  1  0.94856228  0.09120715  0.82692588  1  -1.156254  0  -0.313227  -0.542025  0  2.32991  0
O  O114  1  0.82599887  0.08707202  0.94884764  1  -1.171097  0  -0.316646  -0.549913  0  2.343755  0
O  O115  1  0.55571419  0.35129717  0.68060914  1  -1.190056  0  -0.318772  -0.559314  0  2.372166  0
O  O116  1  0.67715000  0.37724873  0.56509175  1  -1.185371  0  -0.321611  -0.555814  0  2.334008  0
O  O117  1  0.50194804  0.48101548  0.50486487  1  -1.222746  0  -0.575804  -1.019673  0  2.564961  0
