# generated using pymatgen
data_Nd2MnH20C32(NO7)4
_symmetry_space_group_name_H-M   'P 1'
_cell_length_a   9.83967908
_cell_length_b   11.19654962
_cell_length_c   11.66655462
_cell_angle_alpha   59.99543755
_cell_angle_beta   70.72398575
_cell_angle_gamma   82.55222709
_symmetry_Int_Tables_number   1
_chemical_formula_structural   Nd2MnH20C32(NO7)4
_chemical_formula_sum   'Nd2 Mn1 H20 C32 N4 O28'
_cell_volume   1049.67161860
_cell_formula_units_Z   1
loop_
 _symmetry_equiv_pos_site_id
 _symmetry_equiv_pos_as_xyz
  1  'x, y, z'
loop_
 _atom_site_type_symbol
 _atom_site_label
 _atom_site_symmetry_multiplicity
 _atom_site_fract_x
 _atom_site_fract_y
 _atom_site_fract_z
 _atom_site_occupancy
 _atom_site_hle17_ddec_charge
 _atom_site_hle17_ddec_spin_density
 _atom_site_hle17_ddec_sum_bond_order
 _atom_site_hle17_magmom
 _atom_site_hse06_10hf_ddec_charge
 _atom_site_hse06_10hf_ddec_spin_density
 _atom_site_hse06_10hf_ddec_sum_bond_order
 _atom_site_hse06_10hf_magmom
 _atom_site_hse06_ddec_charge
 _atom_site_hse06_ddec_spin_density
 _atom_site_hse06_ddec_sum_bond_order
 _atom_site_hse06_magmom
 _atom_site_pbe_cm5_charge
 _atom_site_pbe_ddec_charge
 _atom_site_pbe_ddec_spin_density
 _atom_site_pbe_ddec_sum_bond_order
 _atom_site_pbe_magmom
Nd  Nd0  1  0.89273554  0.72812326  0.86675562  1  2.290434  -0.001845  1.607154  0.0  2.128188  -0.001678  2.073936  0.0  2.226449  -0.001943  1.924646  0.0  1.474677  2.092458  -0.000909  2.111656  0.001
Nd  Nd1  1  0.10726661  0.27187627  0.13324461  1  2.290505  -0.001873  1.607081  0.0  2.128251  -0.001594  2.073854  0.0  2.226514  -0.002115  1.924571  0.0  1.474674  2.09255  -0.000908  2.111522  0.001
Mn  Mn2  1  0.00000031  0.99999494  0.50000002  1  1.27153  4.745382  1.920927  4.648  1.153382  4.635962  2.424712  4.478  1.196927  4.705214  2.356026  4.568  0.650682  1.121557  4.549083  2.482462  4.37
H  H3  1  0.74186430  0.44317987  0.09771641  1  0.441357  1.4e-05  0.853511  0.0  0.410208  5e-05  0.916972  0.0  0.420968  3.4e-05  0.901427  0.0  0.302494  0.402745  4.6e-05  0.927837  0.0
H  H4  1  0.25813382  0.55682583  0.90228373  1  0.441584  1.4e-05  0.853213  0.0  0.41029  5e-05  0.916874  0.0  0.42105  3.4e-05  0.901329  0.0  0.302556  0.402826  4.6e-05  0.927741  0.0
H  H5  1  0.61652891  0.87836826  0.93621050  1  0.440791  -2.8e-05  0.842338  0.0  0.413391  -1e-05  0.899045  0.0  0.422637  -1.9e-05  0.88549  0.0  0.313262  0.406921  5.1e-05  0.908665  0.0
H  H6  1  0.38346993  0.12163120  0.06379406  1  0.440762  -2.8e-05  0.842382  0.0  0.413341  -1e-05  0.899118  0.0  0.422586  -1.9e-05  0.885563  0.0  0.313239  0.406868  5.1e-05  0.908743  0.0
H  H7  1  0.64082708  0.56116096  0.11013770  1  0.436944  2e-06  0.813747  0.0  0.420967  1.2e-05  0.863548  0.0  0.429144  5e-06  0.851772  0.0  0.32903  0.41533  1.4e-05  0.871367  0.0
H  H8  1  0.35917323  0.43884574  0.88986226  1  0.436916  2e-06  0.813843  0.0  0.420952  1.3e-05  0.863573  0.0  0.42913  5e-06  0.851797  0.0  0.329032  0.415316  1.4e-05  0.871429  0.0
H  H9  1  0.69206646  0.85588682  0.04363456  1  0.429072  -1e-06  0.865367  0.0  0.395807  5e-06  0.93246  0.0  0.40629  -2e-06  0.917015  0.0  0.306187  0.388564  2.9e-05  0.943277  0.0
H  H10  1  0.30793683  0.14411472  0.95636615  1  0.429135  -1e-06  0.865291  0.0  0.395877  5e-06  0.932367  0.0  0.406363  -3e-06  0.916917  0.0  0.306209  0.388633  2.9e-05  0.943183  0.0
H  H11  1  0.30323422  0.88769977  0.40455201  1  0.128507  -0.000413  0.980234  0.0  0.129249  -0.000142  1.05552  0.0  0.134095  -0.000234  1.04994  0.0  0.11973  0.125611  -6.6e-05  1.059357  0.0
H  H12  1  0.69676997  0.11229768  0.59544865  1  0.128545  -0.000408  0.980202  0.0  0.129249  -0.000142  1.05551  0.0  0.134096  -0.000234  1.049928  0.0  0.119726  0.125616  -6.6e-05  1.059347  0.0
H  H13  1  0.16203669  0.76332727  0.44561476  1  0.123071  -0.000363  0.982578  0.0  0.126562  -0.000242  1.054192  0.0  0.130982  -0.000298  1.049347  0.0  0.118675  0.123279  -0.000191  1.057617  0.0
H  H14  1  0.83795541  0.23666608  0.55439270  1  0.123024  -0.000369  0.982715  0.0  0.126515  -0.000243  1.054328  0.0  0.130928  -0.000298  1.049501  0.0  0.118686  0.12322  -0.000191  1.057786  0.0
H  H15  1  0.14810940  0.44332047  0.34774624  1  0.131667  -0.000119  0.943054  0.0  0.136245  -1.8e-05  1.010876  0.0  0.14089  -4.2e-05  1.006439  0.0  0.121701  0.132583  4.8e-05  1.014355  0.0
H  H16  1  0.85189709  0.55667809  0.65224900  1  0.131653  -0.000137  0.943047  0.0  0.136231  -1.7e-05  1.010865  0.0  0.140879  -4.1e-05  1.006428  0.0  0.121663  0.132585  4.8e-05  1.014331  0.0
H  H17  1  0.99101861  0.84395377  0.11817354  1  0.136432  -0.000113  0.919893  0.0  0.141484  -1.9e-05  0.98599  0.0  0.146211  -2.1e-05  0.980956  0.0  0.122959  0.138016  1.9e-05  0.9896  0.0
H  H18  1  0.00899009  0.15604678  0.88182276  1  0.136465  -0.000117  0.919819  0.0  0.141504  -1.9e-05  0.985936  0.0  0.146233  -2.2e-05  0.980897  0.0  0.122948  0.138032  1.9e-05  0.989544  0.0
H  H19  1  0.44501709  0.75088921  0.76371530  1  0.126313  -0.000173  0.918263  0.0  0.133956  1.3e-05  0.978575  0.0  0.138963  -1.7e-05  0.973569  0.0  0.120107  0.13024  8.3e-05  0.982563  0.0
H  H20  1  0.55498637  0.24911543  0.23628392  1  0.126318  -0.000168  0.918228  0.0  0.133937  1.3e-05  0.978559  0.0  0.138944  -1.7e-05  0.973554  0.0  0.120098  0.130222  8.3e-05  0.982545  0.0
H  H21  1  0.75529876  0.89196112  0.35718433  1  0.136316  -0.000351  0.932485  0.0  0.138307  -0.000237  1.001775  0.0  0.14233  -0.000286  0.998069  0.0  0.124588  0.135284  -0.000153  1.004226  0.0
H  H22  1  0.24470233  0.10803843  0.64281531  1  0.13637  -0.000358  0.932422  0.0  0.138361  -0.000237  1.001712  0.0  0.142386  -0.000285  0.998  0.0  0.124586  0.135335  -0.000153  1.004162  0.0
C  C23  1  0.61148196  0.82472129  0.56624804  1  -0.059321  -0.003051  3.713492  -0.002  -0.032866  -0.001934  3.950663  -0.002  -0.044406  -0.00255  3.973049  -0.002  -0.006506  -0.026483  -0.001062  3.936916  -0.001
C  C24  1  0.38852033  0.17528033  0.43374946  1  -0.059265  -0.002998  3.713599  -0.002  -0.032853  -0.00192  3.950754  -0.002  -0.044395  -0.002564  3.973141  -0.002  -0.006568  -0.026465  -0.001063  3.937001  -0.001
C  C25  1  0.46844415  0.79116070  0.65230297  1  -0.020557  0.004146  3.609922  0.004  -0.064441  0.004979  3.859953  0.004  -0.058394  0.003867  3.875752  0.003  -0.052026  -0.070091  0.008809  3.851646  0.007
C  C26  1  0.53155611  0.20884400  0.34769536  1  -0.020493  0.004095  3.609871  0.004  -0.064351  0.004967  3.859892  0.004  -0.058302  0.003884  3.875689  0.003  -0.05197  -0.070005  0.008813  3.851589  0.007
C  C27  1  0.35615112  0.81195727  0.59593786  1  -0.05667  -0.003728  3.721225  -0.002  -0.029586  -0.002494  3.958576  -0.002  -0.041244  -0.002827  3.9813  -0.002  -0.00741  -0.022132  -0.002065  3.944346  -0.002
C  C28  1  0.64384805  0.18804741  0.40406162  1  -0.056796  -0.003685  3.721156  -0.002  -0.029661  -0.00248  3.958503  -0.002  -0.041318  -0.002856  3.981225  -0.002  -0.007452  -0.022207  -0.002065  3.944279  -0.002
C  C29  1  0.38754894  0.86421720  0.45301552  1  -0.066004  0.004501  3.648207  0.004  -0.111446  0.00632  3.912071  0.005  -0.10463  0.004141  3.926553  0.003  -0.059535  -0.115372  0.008763  3.903079  0.007
C  C30  1  0.61245232  0.13578644  0.54698389  1  -0.066005  0.004458  3.648137  0.004  -0.111356  0.006308  3.912011  0.005  -0.104538  0.004162  3.926492  0.003  -0.059475  -0.115286  0.008768  3.903039  0.007
C  C31  1  0.53153265  0.88655154  0.37132172  1  0.06898  -0.002652  3.707746  -0.002  0.056938  -0.001553  3.971362  -0.001  0.049996  -0.001985  3.993533  -0.001  0.081583  0.057114  -0.001318  3.953133  -0.001
C  C32  1  0.46846651  0.11345412  0.62867988  1  0.068994  -0.002606  3.707828  -0.002  0.056861  -0.00154  3.971606  -0.001  0.049914  -0.001999  3.993777  -0.001  0.081583  0.057013  -0.001318  3.953365  -0.001
C  C33  1  0.64423279  0.87041010  0.42430992  1  -0.040301  0.003445  3.644194  0.003  -0.083139  0.003506  3.907446  0.003  -0.075356  0.002998  3.920342  0.003  -0.051059  -0.08586  0.002156  3.897869  0.002
C  C34  1  0.35576965  0.12959460  0.57568697  1  -0.040454  0.003425  3.644221  0.003  -0.083238  0.003496  3.907498  0.003  -0.075455  0.003004  3.9204  0.003  -0.051076  -0.085958  0.002154  3.897921  0.002
C  C35  1  0.73157524  0.81380216  0.62334543  1  0.677419  0.009757  3.888759  0.009  0.625627  0.015151  4.187355  0.013  0.66122  0.011329  4.182024  0.011  0.226344  0.601648  0.017556  4.190655  0.015
C  C36  1  0.26842769  0.18619120  0.37665573  1  0.677213  0.009751  3.888978  0.009  0.625536  0.015147  4.187427  0.013  0.661126  0.011333  4.1821  0.011  0.226324  0.601554  0.017554  4.190722  0.015
C  C37  1  0.20346808  0.77866211  0.68766462  1  0.681165  0.004909  3.866837  0.006  0.629666  0.008011  4.157048  0.009  0.664047  0.005888  4.154426  0.007  0.223058  0.605576  0.010371  4.16125  0.011
C  C38  1  0.79653303  0.22133746  0.31233415  1  0.681298  0.004909  3.866519  0.006  0.629669  0.008009  4.156941  0.009  0.664049  0.005888  4.154321  0.007  0.223065  0.60558  0.01037  4.161146  0.011
C  C39  1  0.06078565  0.63707039  0.22820557  1  -0.063838  -0.001851  3.694515  -0.001  -0.039168  -0.001241  3.931356  -0.001  -0.050441  -0.001337  3.953423  -0.001  -0.006065  -0.032369  -0.001513  3.91654  -0.001
C  C40  1  0.93921884  0.36293127  0.77178962  1  -0.063799  -0.002024  3.694367  -0.001  -0.039128  -0.001245  3.931207  -0.001  -0.050392  -0.001353  3.95326  -0.001  -0.006048  -0.032332  -0.001513  3.916391  -0.001
C  C41  1  0.03925228  0.77457575  0.19924294  1  -0.003265  0.002554  3.571393  0.002  -0.048405  0.002722  3.821543  0.002  -0.041265  0.002204  3.83562  0.002  -0.043782  -0.052776  0.004784  3.8122  0.004
C  C42  1  0.96074897  0.22542689  0.80075522  1  -0.003311  0.002668  3.571268  0.002  -0.048456  0.002725  3.821393  0.002  -0.041319  0.002219  3.835469  0.002  -0.043757  -0.052817  0.004784  3.812039  0.004
C  C43  1  0.07995690  0.82232821  0.27417672  1  -0.046494  -0.002835  3.70543  -0.002  -0.018821  -0.001914  3.941438  -0.001  -0.030106  -0.002195  3.963368  -0.001  -0.004097  -0.0121  -0.001645  3.927438  -0.001
C  C44  1  0.92004523  0.17767032  0.72582226  1  -0.046552  -0.00296  3.705316  -0.002  -0.0188  -0.001918  3.941236  -0.001  -0.030084  -0.00221  3.963166  -0.001  -0.00412  -0.012077  -0.001645  3.92723  -0.001
C  C45  1  0.13918016  0.73181824  0.37960538  1  -0.058725  0.002238  3.650509  0.002  -0.102593  0.002564  3.909463  0.002  -0.096669  0.001791  3.924716  0.002  -0.059738  -0.105401  0.002812  3.899007  0.002
C  C46  1  0.86081426  0.26817722  0.62039793  1  -0.058693  0.002352  3.650571  0.002  -0.102569  0.002563  3.909536  0.002  -0.096647  0.001806  3.92479  0.002  -0.059769  -0.105378  0.002812  3.899073  0.002
C  C47  1  0.16607964  0.59841428  0.40179132  1  0.057944  -0.00153  3.727848  -0.001  0.046938  -0.000979  3.982294  -0.001  0.040545  -0.001124  4.005755  -0.001  0.071907  0.050648  -0.001132  3.966387  -0.001
C  C48  1  0.83392014  0.40158015  0.59820933  1  0.058025  -0.0017  3.727771  -0.001  0.046974  -0.000975  3.982288  -0.001  0.04058  -0.001142  4.005751  -0.001  0.071938  0.050685  -0.001132  3.966383  -0.001
C  C49  1  0.12837315  0.54890858  0.32751816  1  -0.072891  0.002269  3.665537  0.002  -0.11337  0.002626  3.920386  0.002  -0.108034  0.001998  3.936348  0.002  -0.061558  -0.11662  0.004805  3.909855  0.004
C  C50  1  0.87162800  0.45109103  0.67247886  1  -0.072938  0.00244  3.665409  0.002  -0.113399  0.002628  3.920265  0.002  -0.108069  0.002009  3.936237  0.002  -0.061559  -0.116661  0.004806  3.909727  0.004
C  C51  1  0.01088096  0.58209301  0.15385355  1  0.744569  -1e-06  3.850701  0.0  0.69533  -8e-06  4.141904  0.0  0.731506  -3e-06  4.134263  0.0  0.245391  0.671077  1.7e-05  4.148349  0.0
C  C52  1  0.98911267  0.41790861  0.84614882  1  0.744766  1.4e-05  3.850509  0.0  0.695511  -8e-06  4.141731  0.0  0.731688  -1e-06  4.134086  0.0  0.245488  0.671261  1.7e-05  4.148176  0.0
C  C53  1  0.06615419  0.96952105  0.24132503  1  0.654778  0.008761  3.898467  0.009  0.60356  0.014483  4.191617  0.013  0.638877  0.010093  4.188136  0.009  0.208481  0.578338  0.018848  4.19676  0.016
C  C54  1  0.93384471  0.03047750  0.75867479  1  0.654774  0.008755  3.898333  0.009  0.603519  0.014485  4.191508  0.013  0.638835  0.010091  4.188026  0.009  0.208428  0.578298  0.018848  4.196645  0.016
N  N55  1  0.56462260  0.92424122  0.22588512  1  0.480896  5.2e-05  3.913892  0.0  0.523967  0.000143  4.185046  0.0  0.544195  2.9e-05  4.196238  0.0  0.064869  0.524435  0.00297  4.155929  0.003
N  N56  1  0.43538296  0.07576140  0.77411191  1  0.480892  5.6e-05  3.914001  0.0  0.52391  0.000142  4.18529  0.0  0.544143  3.3e-05  4.196477  0.0  0.064877  0.52446  0.002976  4.156059  0.003
N  N57  1  0.23569208  0.50749525  0.50809496  1  0.46518  1.8e-05  3.96448  0.0  0.52754  -5e-06  4.21434  0.0  0.548465  1.6e-05  4.223555  0.0  0.057007  0.513688  9.3e-05  4.207979  0.0
N  N58  1  0.76429895  0.49249714  0.49191066  1  0.465064  3.9e-05  3.964442  0.0  0.52744  -7e-06  4.214323  0.0  0.548366  1.9e-05  4.223538  0.0  0.056987  0.513591  9.3e-05  4.207957  0.0
O  O59  1  0.85609183  0.85956084  0.53328241  1  -0.669517  0.031649  2.069572  0.016  -0.607657  0.035438  2.343001  0.016  -0.639521  0.032325  2.332245  0.013  -0.311474  -0.583005  0.040633  2.351745  0.022
O  O60  1  0.14391091  0.14042841  0.46671986  1  -0.66947  0.031649  2.06957  0.016  -0.607707  0.035441  2.343032  0.016  -0.639562  0.032323  2.33227  0.013  -0.311511  -0.583058  0.040636  2.351773  0.022
O  O61  1  0.70424352  0.76238402  0.75335960  1  -0.684027  0.005569  1.963848  0.007  -0.636637  0.009918  2.206134  0.011  -0.667112  0.007323  2.193294  0.009  -0.368207  -0.617246  0.010503  2.211716  0.012
O  O62  1  0.29575748  0.23761348  0.24664016  1  -0.683933  0.005575  1.963921  0.007  -0.636573  0.009918  2.206163  0.011  -0.66705  0.007323  2.193327  0.009  -0.368182  -0.617189  0.010502  2.21174  0.012
O  O63  1  0.17446950  0.70789595  0.81894020  1  -0.6709  0.003593  1.996464  0.004  -0.615914  0.006696  2.221758  0.007  -0.645658  0.005012  2.21206  0.006  -0.32585  -0.597545  0.008364  2.227634  0.009
O  O64  1  0.82553280  0.29210667  0.18105855  1  -0.670902  0.003596  1.996355  0.004  -0.615941  0.006696  2.221725  0.007  -0.645686  0.005013  2.21203  0.006  -0.32588  -0.597573  0.008364  2.227601  0.009
O  O65  1  0.10145082  0.82178507  0.63184078  1  -0.735032  0.027361  2.132655  0.012  -0.674434  0.034398  2.41236  0.016  -0.707297  0.032208  2.398417  0.014  -0.349444  -0.654952  0.037371  2.424663  0.019
O  O66  1  0.89855322  0.17820734  0.36815711  1  -0.735136  0.027367  2.1326  0.012  -0.674447  0.0344  2.412309  0.016  -0.707309  0.03221  2.398362  0.014  -0.349449  -0.654965  0.037373  2.424613  0.019
O  O67  1  0.46343690  0.95285652  0.17558351  1  -0.364537  -0.000552  1.791852  0.0  -0.347734  -0.00032  1.990357  0.0  -0.359281  -0.000546  1.985231  0.0  -0.124353  -0.346546  0.001123  1.987959  0.001
O  O68  1  0.53657089  0.04714813  0.82441285  1  -0.364385  -0.000553  1.791628  0.0  -0.347621  -0.000318  1.990211  0.0  -0.359167  -0.000549  1.985083  0.0  -0.124324  -0.346462  0.001126  1.987774  0.001
O  O69  1  0.69251952  0.92144759  0.15925791  1  -0.335597  -0.000424  1.775207  0.0  -0.310394  2e-05  1.961886  0.0  -0.32248  -0.000262  1.95698  0.0  -0.101168  -0.309189  0.002032  1.959926  0.002
O  O70  1  0.30748508  0.07855809  0.84073966  1  -0.335647  -0.000423  1.775282  0.0  -0.310405  2.2e-05  1.961997  0.0  -0.322508  -0.000268  1.95711  0.0  -0.101193  -0.309232  0.002036  1.960001  0.002
O  O71  1  0.05101284  0.46378919  0.17000319  1  -0.744554  -0.000211  2.044074  0.0  -0.692334  -6.9e-05  2.307692  0.0  -0.725843  -0.000172  2.292783  0.0  -0.409931  -0.674643  -9.3e-05  2.316557  0.0
O  O72  1  0.94898118  0.53621675  0.82998936  1  -0.744614  -0.000219  2.044085  0.0  -0.692392  -6.9e-05  2.307729  0.0  -0.725903  -0.000172  2.292824  0.0  -0.409943  -0.674696  -9.3e-05  2.316595  0.0
O  O73  1  0.93093757  0.65713354  0.08094632  1  -0.735046  -3e-06  2.044922  0.0  -0.684416  6.9e-05  2.304334  0.0  -0.716876  4.6e-05  2.28849  0.0  -0.409479  -0.666662  8.5e-05  2.312987  0.0
O  O74  1  0.06905947  0.34287118  0.91905285  1  -0.735164  -2.2e-05  2.044874  0.0  -0.68453  7.1e-05  2.304295  0.0  -0.716991  3.9e-05  2.288455  0.0  -0.409524  -0.666769  8.5e-05  2.312923  0.0
O  O75  1  0.01186945  0.05586844  0.14901096  1  -0.636383  0.007479  1.937334  0.009  -0.594318  0.012591  2.170021  0.014  -0.622156  0.00957  2.16052  0.011  -0.337508  -0.576901  0.015203  2.175904  0.016
O  O76  1  0.98813055  0.94413013  0.85098771  1  -0.636379  0.00747  1.937278  0.009  -0.594308  0.012591  2.169997  0.014  -0.622146  0.009561  2.160495  0.011  -0.337489  -0.576883  0.015202  2.175876  0.016
O  O77  1  0.11919307  0.00810903  0.30729497  1  -0.771144  0.029685  2.144168  0.012  -0.705944  0.035033  2.423972  0.014  -0.740169  0.03258  2.409743  0.012  -0.367796  -0.682801  0.037553  2.43389  0.016
O  O78  1  0.88081011  0.99188848  0.69270335  1  -0.771124  0.029681  2.14409  0.012  -0.705912  0.035032  2.423863  0.014  -0.74013  0.032577  2.409628  0.012  -0.367768  -0.682766  0.037551  2.433787  0.016
O  O79  1  0.26948823  0.55492945  0.57154805  1  -0.342313  -0.00028  1.749224  0.0  -0.337618  -0.000209  1.933774  0.0  -0.349376  -0.000248  1.93053  0.0  -0.130089  -0.330105  7e-05  1.936326  0.0
O  O80  1  0.73050387  0.44506293  0.42845730  1  -0.342195  -0.00027  1.749365  0.0  -0.337482  -0.00021  1.933897  0.0  -0.349237  -0.00025  1.930656  0.0  -0.129957  -0.329961  7e-05  1.936446  0.0
O  O81  1  0.25726513  0.38790430  0.52818486  1  -0.350172  -0.00015  1.807065  0.0  -0.34615  -2.6e-05  2.009906  0.0  -0.360003  -5.1e-05  2.00891  0.0  -0.124932  -0.337316  -5.8e-05  2.010899  0.0
O  O82  1  0.74272267  0.61208908  0.47182373  1  -0.350189  -0.000191  1.806832  0.0  -0.346188  -2.5e-05  2.009672  0.0  -0.360045  -5.4e-05  2.008688  0.0  -0.125023  -0.337354  -5.8e-05  2.010677  0.0
O  O83  1  0.70479620  0.53477895  0.04347506  1  -0.87534  8.3e-05  1.817432  0.0  -0.828939  0.000211  1.989822  0.0  -0.851849  0.000154  1.955623  0.0  -0.622251  -0.816637  0.000239  2.010158  0.0
O  O84  1  0.29520083  0.46522674  0.95652624  1  -0.875521  8.6e-05  1.817218  0.0  -0.829005  0.00021  1.989795  0.0  -0.851915  0.000157  1.955597  0.0  -0.62231  -0.816707  0.000239  2.01017  0.0
O  O85  1  0.67616205  0.81387961  0.99186448  1  -0.885023  -4.2e-05  1.83836  0.0  -0.834284  0.00011  2.008002  0.0  -0.858093  4.6e-05  1.973758  0.0  -0.623115  -0.821588  0.000204  2.028888  0.0
O  O86  1  0.32383792  0.18612088  0.00813930  1  -0.88505  -4.1e-05  1.838358  0.0  -0.834308  0.000107  2.008025  0.0  -0.858118  4.9e-05  1.973779  0.0  -0.62312  -0.821614  0.000204  2.02892  0.0
