# generated using pymatgen
data_Ag2H11C14(NO2)3
_symmetry_space_group_name_H-M   'P 1'
_cell_length_a   7.22566848
_cell_length_b   7.93204980
_cell_length_c   25.60800000
_cell_angle_alpha   90.00000000
_cell_angle_beta   90.52388413
_cell_angle_gamma   90.00000000
_symmetry_Int_Tables_number   1
_chemical_formula_structural   Ag2H11C14(NO2)3
_chemical_formula_sum   'Ag8 H44 C56 N12 O24'
_cell_volume   1467.64483495
_cell_formula_units_Z   4
loop_
 _symmetry_equiv_pos_site_id
 _symmetry_equiv_pos_as_xyz
  1  'x, y, z'
loop_
 _atom_site_type_symbol
 _atom_site_label
 _atom_site_symmetry_multiplicity
 _atom_site_fract_x
 _atom_site_fract_y
 _atom_site_fract_z
 _atom_site_occupancy
 _atom_site_hle17_bader_spin_density
 _atom_site_hle17_ddec_charge
 _atom_site_hle17_ddec_spin_density
 _atom_site_hle17_ddec_sum_bond_order
 _atom_site_hle17_magmom
 _atom_site_hse06_10hf_bader_spin_density
 _atom_site_hse06_10hf_ddec_charge
 _atom_site_hse06_10hf_ddec_spin_density
 _atom_site_hse06_10hf_ddec_sum_bond_order
 _atom_site_hse06_10hf_magmom
 _atom_site_hse06_bader_spin_density
 _atom_site_hse06_ddec_charge
 _atom_site_hse06_ddec_spin_density
 _atom_site_hse06_ddec_sum_bond_order
 _atom_site_hse06_magmom
 _atom_site_pbe_bader_charge
 _atom_site_pbe_bader_spin_density
 _atom_site_pbe_cm5_charge
 _atom_site_pbe_ddec_charge
 _atom_site_pbe_ddec_spin_density
 _atom_site_pbe_ddec_sum_bond_order
 _atom_site_pbe_magmom
Ag  Ag0  1  0.17989814  0.28790666  0.07968195  1  0  0.532833  0  1.425273  0  0  0.398434  0  1.870532  0  0  0.428522  0  1.819941  0  0.605727  0  0.462423  0.378418  0  1.905157  0
Ag  Ag1  1  0.82010927  0.78790479  0.42031834  1  0  0.532837  0  1.425279  0  0  0.398441  0  1.870506  0  0  0.428536  0  1.819928  0  0.60565  0  0.462424  0.378425  0  1.905131  0
Ag  Ag2  1  0.82010789  0.71209840  0.92031990  1  0  0.532778  0  1.42523  0  0  0.398386  0  1.870496  0  0  0.428476  0  1.819913  0  0.605734  0  0.462404  0.378373  0  1.905116  0
Ag  Ag3  1  0.17989122  0.21209650  0.57968076  1  0  0.532859  0  1.425155  0  0  0.39843  0  1.870427  0  0  0.42852  0  1.819843  0  0.605727  0  0.462425  0.378422  0  1.90504  0
Ag  Ag4  1  0.28533363  0.97787964  0.02328808  1  0  0.591104  0  1.359515  0  0  0.466861  0  1.809337  0  0  0.502247  0  1.753036  0  0.607049  0  0.426281  0.442279  0  1.84837  0
Ag  Ag5  1  0.71466964  0.47787521  0.47671064  1  0  0.591099  0  1.359472  0  0  0.466859  0  1.809285  0  0  0.502243  0  1.752986  0  0.607045  0  0.426254  0.442276  0  1.848318  0
Ag  Ag6  1  0.71466687  0.02212417  0.97671493  1  0  0.591056  0  1.359435  0  0  0.466812  0  1.809275  0  0  0.502197  0  1.752974  0  0.606995  0  0.42624  0.442233  0  1.848305  0
Ag  Ag7  1  0.28533639  0.52212481  0.52328613  1  0  0.591076  0  1.359382  0  0  0.466825  0  1.809205  0  0  0.502207  0  1.752906  0  0.606993  0  0.426233  0.442243  0  1.848237  0
H  H8  1  0.52635808  0.17073393  0.20551956  1  0  0.128588  0  0.947039  0  0  0.146065  0  1.012284  0  0  0.147291  0  1.012225  0  0.104857  0  0.097943  0.145216  0  1.012256  0
H  H9  1  0.47364380  0.67073457  0.29447877  1  0  0.12854  0  0.94704  0  0  0.146039  0  1.012271  0  0  0.147266  0  1.012211  0  0.104802  0  0.097931  0.145191  0  1.012242  0
H  H10  1  0.47364518  0.82926484  0.79448111  1  0  0.128576  0  0.947052  0  0  0.146062  0  1.012277  0  0  0.147287  0  1.012219  0  0.104873  0  0.09796  0.145212  0  1.012249  0
H  H11  1  0.52636362  0.32926041  0.70552036  1  0  0.128495  0  0.947075  0  0  0.145974  0  1.01234  0  0  0.147197  0  1.012286  0  0.104775  0  0.0979  0.145128  0  1.012302  0
H  H12  1  0.33236930  0.14252180  0.16264326  1  0  0.111023  0  0.974724  0  0  0.127659  0  1.049967  0  0  0.130286  0  1.046983  0  0.068704  0  0.08821  0.125602  0  1.052235  0
H  H13  1  0.66762981  0.64252118  0.33735623  1  0  0.111052  0  0.974675  0  0  0.127684  0  1.049926  0  0  0.130317  0  1.046936  0  0.068709  0  0.088228  0.125629  0  1.052191  0
H  H14  1  0.66763396  0.85747571  0.83735702  1  0  0.110992  0  0.974734  0  0  0.127631  0  1.049997  0  0  0.130259  0  1.047012  0  0.068664  0  0.088209  0.125574  0  1.052261  0
H  H15  1  0.33237069  0.35747128  0.66264600  1  0  0.110985  0  0.974642  0  0  0.127614  0  1.049908  0  0  0.130249  0  1.046914  0  0.068574  0  0.088185  0.12556  0  1.052172  0
H  H16  1  0.50097944  0.98025103  0.16978359  1  0  0.139936  0  0.924429  0  0  0.163316  0  0.978294  0  0  0.164496  0  0.978491  0  0.075726  0  0.104405  0.1624  0  0.97822  0
H  H17  1  0.49901691  0.48025291  0.33021589  1  0  0.139911  0  0.924409  0  0  0.163318  0  0.978255  0  0  0.164497  0  0.978456  0  0.075762  0  0.10441  0.162403  0  0.978182  0
H  H18  1  0.49902521  0.01974773  0.83021513  1  0  0.139889  0  0.924416  0  0  0.163295  0  0.978261  0  0  0.164473  0  0.978461  0  0.075733  0  0.104407  0.16238  0  0.978185  0
H  H19  1  0.50097667  0.51974333  0.66978593  1  0  0.139893  0  0.924338  0  0  0.163311  0  0.978179  0  0  0.16449  0  0.978378  0  0.075796  0  0.104415  0.162395  0  0.978106  0
H  H20  1  0.53687519  0.51612888  0.20760777  1  0  0.098267  0  0.973636  0  0  0.10352  0  1.039514  0  0  0.107123  0  1.037283  0  0.118314  0  0.103306  0.100977  0  1.041151  0
H  H21  1  0.46311838  0.01613959  0.29239093  1  0  0.098236  0  0.973735  0  0  0.10353  0  1.039558  0  0  0.107134  0  1.03733  0  0.118396  0  0.103286  0.100989  0  1.041195  0
H  H22  1  0.46311008  0.48385601  0.79239208  1  0  0.098324  0  0.973693  0  0  0.103598  0  1.039528  0  0  0.107198  0  1.037306  0  0.118121  0  0.103324  0.101057  0  1.041164  0
H  H23  1  0.53688073  0.98385161  0.70760544  1  0  0.098284  0  0.973594  0  0  0.1035  0  1.039507  0  0  0.107101  0  1.037285  0  0.118048  0  0.103284  0.100959  0  1.041142  0
H  H24  1  0.50415159  0.36803980  0.00949109  1  0  0.097309  0  0.947595  0  0  0.106714  0  1.009371  0  0  0.108787  0  1.008525  0  0.109458  0  0.121376  0.105125  0  1.010277  0
H  H25  1  0.49585582  0.86803414  0.49050803  1  0  0.097303  0  0.947535  0  0  0.106719  0  1.009306  0  0  0.108791  0  1.008461  0  0.10943  0  0.12137  0.10513  0  1.010212  0
H  H26  1  0.49585305  0.63196779  0.99050959  1  0  0.097306  0  0.947563  0  0  0.106719  0  1.009332  0  0  0.108791  0  1.008487  0  0.109416  0  0.121368  0.10513  0  1.010239  0
H  H27  1  0.50414329  0.13196841  0.50949107  1  0  0.097333  0  0.947554  0  0  0.106744  0  1.009329  0  0  0.108816  0  1.008484  0  0.10945  0  0.121386  0.105154  0  1.010235  0
H  H28  1  0.85269724  0.47164479  0.24564805  1  0  0.118545  0  0.940915  0  0  0.128287  0  0.999332  0  0  0.131644  0  0.997485  0  0.127042  0  0.113502  0.125881  0  1.000704  0
H  H29  1  0.14729634  0.97164922  0.25435143  1  0  0.11856  0  0.940927  0  0  0.128328  0  0.999321  0  0  0.131689  0  0.997469  0  0.126959  0  0.113502  0.125924  0  1.000692  0
H  H30  1  0.14729357  0.52835397  0.75435181  1  0  0.118548  0  0.940886  0  0  0.128301  0  0.999298  0  0  0.13166  0  0.997447  0  0.127007  0  0.113494  0.125895  0  1.00067  0
H  H31  1  0.85270139  0.02835207  0.74564649  1  0  0.118537  0  0.94104  0  0  0.128303  0  0.999427  0  0  0.131662  0  0.997576  0  0.12703  0  0.113453  0.125898  0  1.000798  0
H  H32  1  0.01440481  0.04781362  0.14773905  1  0  0.134195  0  0.978332  0  0  0.150841  0  1.047039  0  0  0.153767  0  1.044568  0  0.103401  0  0.094745  0.148578  0  1.048916  0
H  H33  1  0.98559569  0.54781804  0.35226278  1  0  0.134262  0  0.978392  0  0  0.150892  0  1.047104  0  0  0.153819  0  1.044633  0  0.103443  0  0.094766  0.148629  0  1.048979  0
H  H34  1  0.98559292  0.95218641  0.85226239  1  0  0.134259  0  0.978366  0  0  0.150892  0  1.047069  0  0  0.153819  0  1.044599  0  0.103422  0  0.094759  0.148631  0  1.048943  0
H  H35  1  0.01440757  0.45218072  0.64773867  1  0  0.134236  0  0.978338  0  0  0.15087  0  1.047053  0  0  0.153796  0  1.044583  0  0.103464  0  0.094761  0.148607  0  1.048928  0
H  H36  1  0.94556035  0.20787313  0.19246955  1  0  0.116546  0  0.966919  0  0  0.131572  0  1.043081  0  0  0.131944  0  1.044039  0  0.090674  0  0.091283  0.131283  0  1.042408  0
H  H37  1  0.05443599  0.70787503  0.30753110  1  0  0.116509  0  0.966999  0  0  0.131579  0  1.043076  0  0  0.13195  0  1.044034  0  0.090667  0  0.091288  0.131289  0  1.042403  0
H  H38  1  0.05443738  0.79212438  0.80753149  1  0  0.116524  0  0.966994  0  0  0.131587  0  1.043085  0  0  0.131957  0  1.044044  0  0.090699  0  0.091297  0.131296  0  1.042413  0
H  H39  1  0.94556173  0.29212247  0.69246917  1  0  0.116498  0  0.966968  0  0  0.131589  0  1.043036  0  0  0.13196  0  1.043993  0  0.09066  0  0.091291  0.1313  0  1.042363  0
H  H40  1  0.81472685  0.01804704  0.18719723  1  0  0.128577  0  0.966957  0  0  0.146529  0  1.028976  0  0  0.147556  0  1.030255  0  0.059874  0  0.094896  0.145781  0  1.028098  0
H  H41  1  0.18526811  0.51805272  0.31280343  1  0  0.128572  0  0.966984  0  0  0.146517  0  1.029002  0  0  0.147544  0  1.030282  0  0.059985  0  0.094905  0.145768  0  1.028127  0
H  H42  1  0.18526950  0.98195047  0.81280265  1  0  0.128549  0  0.966972  0  0  0.146483  0  1.029016  0  0  0.147509  0  1.030296  0  0.05994  0  0.094888  0.145735  0  1.028138  0
H  H43  1  0.81472961  0.48194730  0.68719840  1  0  0.128583  0  0.966915  0  0  0.146553  0  1.028923  0  0  0.147579  0  1.030202  0  0.059916  0  0.094917  0.145802  0  1.02805  0
H  H44  1  0.50077322  0.65947897  0.12138061  1  0  0.116482  0  0.979179  0  0  0.12272  0  1.046026  0  0  0.126594  0  1.043606  0  0.174792  0  0.10445  0.119845  0  1.047905  0
H  H45  1  0.49921759  0.15949093  0.37861730  1  0  0.116412  0  0.979235  0  0  0.122681  0  1.046068  0  0  0.126551  0  1.043658  0  0.174791  0  0.104444  0.119821  0  1.047929  0
H  H46  1  0.49921344  0.34050971  0.87861807  1  0  0.116288  0  0.979403  0  0  0.122598  0  1.046187  0  0  0.126466  0  1.043783  0  0.174902  0  0.104431  0.11974  0  1.048046  0
H  H47  1  0.50079398  0.84049901  0.62137910  1  0  0.116271  0  0.979392  0  0  0.122575  0  1.046193  0  0  0.126437  0  1.04379  0  0.174837  0  0.104402  0.119718  0  1.048054  0
H  H48  1  0.85205090  0.37909747  0.01018324  1  0  0.122644  0  0.957937  0  0  0.128668  0  1.020425  0  0  0.132051  0  1.017623  0  0.191319  0  0.123066  0.126063  0  1.022831  0
H  H49  1  0.14795651  0.87909937  0.48981783  1  0  0.122523  0  0.958135  0  0  0.128576  0  1.020573  0  0  0.131955  0  1.017781  0  0.191545  0  0.123036  0.125971  0  1.022979  0
H  H50  1  0.14795374  0.62090508  0.98981782  1  0  0.122668  0  0.958002  0  0  0.128705  0  1.020443  0  0  0.132086  0  1.017648  0  0.191448  0  0.123097  0.126099  0  1.02285  0
H  H51  1  0.85204398  0.12090191  0.51018283  1  0  0.122616  0  0.958056  0  0  0.128639  0  1.020529  0  0  0.13202  0  1.01773  0  0.191251  0  0.123084  0.126033  0  1.022936  0
C  C52  1  0.58562566  0.19128095  0.12356570  1  0  0.235595  0  3.643055  0  0  0.238746  0  3.882621  0  0  0.24381  0  3.902901  0  0.600333  0  0.135666  0.234938  0  3.869231  0
C  C53  1  0.41437622  0.69128537  0.37643340  1  0  0.23582  0  3.643208  0  0  0.238979  0  3.882762  0  0  0.244044  0  3.903042  0  0.600327  0  0.135816  0.235172  0  3.869373  0
C  C54  1  0.41437622  0.80872286  0.87643457  1  0  0.235598  0  3.642986  0  0  0.238796  0  3.882478  0  0  0.24386  0  3.90276  0  0.60035  0  0.135682  0.234988  0  3.869085  0
C  C55  1  0.58562428  0.30871843  0.62356648  1  0  0.235719  0  3.642978  0  0  0.238893  0  3.882559  0  0  0.243957  0  3.90284  0  0.60032  0  0.135738  0.235085  0  3.869171  0
C  C56  1  0.48071887  0.11765937  0.16794789  1  0  -0.360674  0  3.688834  0  0  -0.444094  0  3.922584  0  0  -0.447039  0  3.930882  0  -0.114427  0  -0.237181  -0.441638  0  3.916901  0
C  C57  1  0.51928024  0.61766254  0.33205082  1  0  -0.36067  0  3.688793  0  0  -0.444143  0  3.92256  0  0  -0.447095  0  3.930854  0  -0.114443  0  -0.237213  -0.441687  0  3.916873  0
C  C58  1  0.51928577  0.88234065  0.83205200  1  0  -0.360589  0  3.688748  0  0  -0.444071  0  3.922517  0  0  -0.447016  0  3.93081  0  -0.114446  0  -0.23721  -0.441625  0  3.916854  0
C  C59  1  0.48072164  0.38233623  0.66794946  1  0  -0.36056  0  3.688696  0  0  -0.444009  0  3.922458  0  0  -0.446962  0  3.930748  0  -0.114296  0  -0.237166  -0.441553  0  3.916773  0
C  C60  1  0.13900333  0.71490726  0.09923788  1  0  0.662389  0  3.941792  0  0  0.602215  0  4.246665  0  0  0.637608  0  4.239758  0  1.611619  0  0.204293  0.578075  0  4.250275  0
C  C61  1  0.86099163  0.21490536  0.40076004  1  0  0.662559  0  3.941506  0  0  0.60231  0  4.246511  0  0  0.637701  0  4.239604  0  1.611641  0  0.20438  0.578166  0  4.250127  0
C  C62  1  0.86099301  0.28510033  0.90076395  1  0  0.662213  0  3.94189  0  0  0.602065  0  4.246752  0  0  0.637455  0  4.239851  0  1.612076  0  0.204247  0.577923  0  4.25036  0
C  C63  1  0.13901855  0.78508836  0.59923831  1  0  0.662301  0  3.941988  0  0  0.602225  0  4.246708  0  0  0.637616  0  4.239802  0  1.611785  0  0.204355  0.578082  0  4.250319  0
C  C64  1  0.97173480  0.66750842  0.13104614  1  0  -0.090093  0  3.689913  0  0  -0.086799  0  3.933969  0  0  -0.088094  0  3.950716  0  0.050807  0  3.7e-05  -0.0861  0  3.922993  0
C  C65  1  0.02825877  0.16751029  0.36895138  1  0  -0.090204  0  3.690166  0  0  -0.086897  0  3.934264  0  0  -0.088195  0  3.951016  0  0.050567  0  -0.000107  -0.086221  0  3.923274  0
C  C66  1  0.02825601  0.33249161  0.86895294  1  0  -0.089895  0  3.689854  0  0  -0.086607  0  3.933957  0  0  -0.087903  0  3.950708  0  0.050847  0  -4.8e-05  -0.085931  0  3.922965  0
C  C67  1  0.97175002  0.83248343  0.63104696  1  0  -0.089959  0  3.689709  0  0  -0.086703  0  3.933774  0  0  -0.087997  0  3.950526  0  0.050374  0  -1.7e-05  -0.086027  0  3.922782  0
C  C68  1  0.79293418  0.69255617  0.11037085  1  0  -0.04143  0  3.677683  0  0  -0.02066  0  3.906138  0  0  -0.0263  0  3.925586  0  0.00464  0  -0.003735  -0.017362  0  3.893499  0
C  C69  1  0.20705939  0.19256561  0.38962706  1  0  -0.041486  0  3.677806  0  0  -0.020734  0  3.90632  0  0  -0.026377  0  3.925772  0  0.004658  0  -0.003597  -0.017361  0  3.893592  0
C  C70  1  0.20705663  0.30744134  0.88962940  1  0  -0.041427  0  3.677945  0  0  -0.020784  0  3.906474  0  0  -0.026421  0  3.92592  0  0.004303  0  -0.00358  -0.017409  0  3.893745  0
C  C71  1  0.79294802  0.80742937  0.61037089  1  0  -0.041296  0  3.677444  0  0  -0.020521  0  3.905924  0  0  -0.026164  0  3.925368  0  0.004715  0  -0.003496  -0.017145  0  3.893196  0
C  C72  1  0.65827665  0.55818737  0.18645151  1  0  -0.05026  0  3.736505  0  0  -0.06394  0  3.994515  0  0  -0.066955  0  4.014431  0  -0.016004  0  -0.087408  -0.061968  0  3.980983  0
C  C73  1  0.34171554  0.05819933  0.31354640  1  0  -0.05019  0  3.736492  0  0  -0.063895  0  3.994515  0  0  -0.066915  0  4.01444  0  -0.015909  0  -0.087403  -0.061924  0  3.980991  0
C  C74  1  0.34171001  0.44179753  0.81354677  1  0  -0.050422  0  3.736452  0  0  -0.064102  0  3.994515  0  0  -0.067121  0  4.014442  0  -0.015885  0  -0.08746  -0.062128  0  3.980988  0
C  C75  1  0.65828495  0.94178935  0.68645075  1  0  -0.050258  0  3.736331  0  0  -0.063846  0  3.994346  0  0  -0.06687  0  4.014263  0  -0.016363  0  -0.08731  -0.061871  0  3.980824  0
C  C76  1  0.77167436  0.76491073  0.05609389  1  0  0.649262  0  3.915898  0  0  0.5985  0  4.201133  0  0  0.633312  0  4.196242  0  1.592353  0  0.202485  0.574855  0  4.203418  0
C  C77  1  0.22832475  0.26491765  0.44390482  1  0  0.649425  0  3.915924  0  0  0.598668  0  4.201152  0  0  0.633483  0  4.196266  0  1.591848  0  0.202565  0.575001  0  4.203436  0
C  C78  1  0.22832475  0.23509938  0.94390873  1  0  0.64891  0  3.916434  0  0  0.598433  0  4.201277  0  0  0.633246  0  4.196389  0  1.592589  0  0.202488  0.574768  0  4.203558  0
C  C79  1  0.77168958  0.73508363  0.55609197  1  0  0.649211  0  3.915984  0  0  0.598561  0  4.201064  0  0  0.633374  0  4.19617  0  1.592144  0  0.202487  0.574896  0  4.203347  0
C  C80  1  0.58405619  0.32031065  0.04250339  1  0  0.061412  0  3.707638  0  0  0.027897  0  3.974995  0  0  0.030415  0  3.991259  0  0.476467  0  0.034511  0.025706  0  3.964961  0
C  C81  1  0.41594707  0.82030751  0.45749572  1  0  0.061428  0  3.707573  0  0  0.027863  0  3.974963  0  0  0.03038  0  3.991226  0  0.476486  0  0.034469  0.025673  0  3.964927  0
C  C82  1  0.41594984  0.67969694  0.95749768  1  0  0.061428  0  3.707393  0  0  0.027907  0  3.974751  0  0  0.03042  0  3.991028  0  0.476575  0  0.034545  0.025716  0  3.964716  0
C  C83  1  0.58405066  0.17969378  0.54250338  1  0  0.061355  0  3.70755  0  0  0.027815  0  3.974909  0  0  0.030332  0  3.991173  0  0.476562  0  0.034505  0.025624  0  3.964877  0
C  C84  1  0.83346223  0.53218400  0.20780281  1  0  -0.098064  0  3.728081  0  0  -0.122884  0  3.982737  0  0  -0.122572  0  4.00171  0  0.045288  0  -0.081548  -0.122909  0  3.969799  0
C  C85  1  0.16653273  0.03219218  0.29219589  1  0  -0.098192  0  3.728104  0  0  -0.12305  0  3.982757  0  0  -0.12274  0  4.001728  0  0.045296  0  -0.081535  -0.123072  0  3.969818  0
C  C86  1  0.16652581  0.46780846  0.79219587  1  0  -0.097984  0  3.727844  0  0  -0.122808  0  3.982476  0  0  -0.1225  0  4.001453  0  0.045179  0  -0.081432  -0.122831  0  3.969539  0
C  C87  1  0.83347053  0.96780280  0.70780361  1  0  -0.098088  0  3.728105  0  0  -0.122936  0  3.982752  0  0  -0.122624  0  4.001725  0  0.045178  0  -0.081477  -0.122959  0  3.969812  0
C  C88  1  0.78210566  0.19012614  0.12281011  1  0  0.242875  0  3.638767  0  0  0.247771  0  3.874718  0  0  0.253118  0  3.895505  0  0.518932  0  0.136775  0.243816  0  3.860961  0
C  C89  1  0.21789760  0.69013182  0.37719017  1  0  0.24294  0  3.638762  0  0  0.247744  0  3.874836  0  0  0.253103  0  3.895625  0  0.518871  0  0.136744  0.243789  0  3.861078  0
C  C90  1  0.21789622  0.80987515  0.87719056  1  0  0.242946  0  3.638734  0  0  0.247844  0  3.874668  0  0  0.253193  0  3.895456  0  0.518779  0  0.136784  0.24389  0  3.860907  0
C  C91  1  0.78210289  0.30987072  0.62281011  1  0  0.242879  0  3.638728  0  0  0.247649  0  3.874869  0  0  0.253003  0  3.895657  0  0.518748  0  0.136711  0.243694  0  3.861111  0
C  C92  1  0.89443768  0.11086163  0.16518287  1  0  -0.388425  0  3.698755  0  0  -0.472396  0  3.937338  0  0  -0.476481  0  3.946724  0  -0.120561  0  -0.251232  -0.469173  0  3.930915  0
C  C93  1  0.10555866  0.61086732  0.33481818  1  0  -0.388505  0  3.698802  0  0  -0.472442  0  3.937412  0  0  -0.476519  0  3.946779  0  -0.12056  0  -0.25127  -0.46922  0  3.93099  0
C  C94  1  0.10555866  0.88913335  0.83481818  1  0  -0.388496  0  3.698908  0  0  -0.472447  0  3.937476  0  0  -0.476531  0  3.946864  0  -0.120483  0  -0.251241  -0.469225  0  3.931052  0
C  C95  1  0.89443907  0.38913397  0.66518209  1  0  -0.388493  0  3.698686  0  0  -0.472472  0  3.937344  0  0  -0.476556  0  3.946728  0  -0.120458  0  -0.251269  -0.469251  0  3.930924  0
C  C96  1  0.63797041  0.64044353  0.13844302  1  0  -0.050941  0  3.662327  0  0  -0.084629  0  3.919894  0  0  -0.082944  0  3.937466  0  -0.117477  0  -0.078884  -0.085617  0  3.908197  0
C  C97  1  0.36202178  0.14045676  0.36155606  1  0  -0.050871  0  3.662342  0  0  -0.084613  0  3.92001  0  0  -0.08292  0  3.937571  0  -0.117396  0  -0.078947  -0.085637  0  3.908286  0
C  C98  1  0.36201486  0.35954767  0.86155839  1  0  -0.050705  0  3.662627  0  0  -0.084494  0  3.920366  0  0  -0.08279  0  3.937899  0  -0.1173  0  -0.078965  -0.085523  0  3.908646  0
C  C99  1  0.63798564  0.85953570  0.63844189  1  0  -0.050807  0  3.6624  0  0  -0.084657  0  3.920158  0  0  -0.082952  0  3.93771  0  -0.116702  0  -0.079032  -0.085691  0  3.908444  0
C  C100  1  0.77602708  0.32368556  0.04232895  1  0  0.059871  0  3.703238  0  0  0.025689  0  3.970126  0  0  0.029804  0  3.98445  0  0.465461  0  0.034236  0.022421  0  3.96152  0
C  C101  1  0.22398034  0.82368873  0.45767134  1  0  0.059972  0  3.703473  0  0  0.025782  0  3.970369  0  0  0.029907  0  3.984703  0  0.465456  0  0.034269  0.022513  0  3.961759  0
C  C102  1  0.22397480  0.67631824  0.95767328  1  0  0.059789  0  3.703215  0  0  0.025601  0  3.970167  0  0  0.02972  0  3.984489  0  0.4654  0  0.034143  0.022331  0  3.961565  0
C  C103  1  0.77602431  0.17631256  0.54232777  1  0  0.059938  0  3.703254  0  0  0.025781  0  3.970102  0  0  0.029905  0  3.98443  0  0.465616  0  0.034235  0.022511  0  3.961497  0
C  C104  1  0.98580606  0.59002907  0.17998006  1  0  0.047494  0  3.740913  0  0  0.025689  0  3.998751  0  0  0.023115  0  4.019436  0  0.130711  0  0.075342  0.027253  0  3.984994  0
C  C105  1  0.01418613  0.09003473  0.32001903  1  0  0.047555  0  3.740965  0  0  0.02585  0  3.998787  0  0  0.023278  0  4.019471  0  0.130809  0  0.075409  0.02741  0  3.985037  0
C  C106  1  0.01418060  0.40996969  0.82002096  1  0  0.04729  0  3.740858  0  0  0.025546  0  3.998707  0  0  0.02297  0  4.019394  0  0.131142  0  0.075213  0.027108  0  3.984955  0
C  C107  1  0.98581575  0.90996277  0.67998047  1  0  0.047371  0  3.740766  0  0  0.025585  0  3.998677  0  0  0.02301  0  4.019364  0  0.131093  0  0.075258  0.027148  0  3.984925  0
N  N108  1  0.87423386  0.26059216  0.08289745  1  0  -0.290985  0  3.250227  0  0  -0.215851  0  3.52459  0  0  -0.231776  0  3.540043  0  -1.212146  0  -0.321638  -0.20528  0  3.514501  0
N  N109  1  0.12577217  0.76060037  0.41710283  1  0  -0.290958  0  3.250255  0  0  -0.215803  0  3.524644  0  0  -0.231762  0  3.540136  0  -1.212188  0  -0.321624  -0.205231  0  3.514554  0
N  N110  1  0.12577078  0.73940660  0.91710322  1  0  -0.29096  0  3.250158  0  0  -0.215846  0  3.524525  0  0  -0.231781  0  3.53999  0  -1.212173  0  -0.321621  -0.205274  0  3.514434  0
N  N111  1  0.87422971  0.23940344  0.58289744  1  0  -0.290971  0  3.250156  0  0  -0.215802  0  3.524546  0  0  -0.231747  0  3.540024  0  -1.212163  0  -0.321618  -0.20523  0  3.514457  0
N  N112  1  0.48940494  0.25782112  0.08326240  1  0  -0.307327  0  3.286793  0  0  -0.229395  0  3.55223  0  0  -0.24502  0  3.567502  0  -1.177593  0  -0.324647  -0.218898  0  3.542196  0
N  N113  1  0.51060109  0.75782429  0.41673633  1  0  -0.307514  0  3.286883  0  0  -0.229512  0  3.552271  0  0  -0.245134  0  3.56754  0  -1.177699  0  -0.324698  -0.219012  0  3.54223  0
N  N114  1  0.51059833  0.74218268  0.91673827  1  0  -0.307275  0  3.28669  0  0  -0.229351  0  3.552121  0  0  -0.244978  0  3.567393  0  -1.17772  0  -0.324636  -0.218852  0  3.542085  0
N  N115  1  0.48940078  0.24218078  0.58326239  1  0  -0.307348  0  3.286651  0  0  -0.229374  0  3.552067  0  0  -0.244998  0  3.567339  0  -1.177719  0  -0.324643  -0.218877  0  3.542031  0
N  N116  1  0.16694655  0.57318475  0.20481528  1  0  0.474646  0  3.947122  0  0  0.528879  0  4.204571  0  0  0.550944  0  4.210532  0  0.324803  0  0.054563  0.513825  0  4.200845  0
N  N117  1  0.83304564  0.07318537  0.29518458  1  0  0.474957  0  3.946704  0  0  0.528952  0  4.204504  0  0  0.551012  0  4.210467  0  0.32473  0  0.054537  0.513898  0  4.200778  0
N  N118  1  0.83304149  0.42681905  0.79518614  1  0  0.474792  0  3.946932  0  0  0.52885  0  4.204638  0  0  0.550912  0  4.210604  0  0.324666  0  0.054484  0.513796  0  4.200912  0
N  N119  1  0.16695624  0.92681718  0.70481530  1  0  0.474789  0  3.946686  0  0  0.528883  0  4.204372  0  0  0.550942  0  4.21034  0  0.324765  0  0.054437  0.51383  0  4.200646  0
O  O120  1  0.24527061  0.60020425  0.08377438  1  0  -0.609996  0  1.996407  0  0  -0.549668  0  2.254709  0  0  -0.577431  0  2.244028  0  -1.171328  0  -0.316958  -0.529636  0  2.260885  0
O  O121  1  0.75472850  0.10019604  0.41622472  1  0  -0.61008  0  1.996339  0  0  -0.549713  0  2.254666  0  0  -0.577492  0  2.244025  0  -1.171414  0  -0.316971  -0.529691  0  2.260865  0
O  O122  1  0.75472020  0.39980712  0.91622587  1  0  -0.609935  0  1.996448  0  0  -0.549623  0  2.254762  0  0  -0.577397  0  2.244112  0  -1.171536  0  -0.316973  -0.529608  0  2.260974  0
O  O123  1  0.24528029  0.89979768  0.58377479  1  0  -0.610033  0  1.996459  0  0  -0.549709  0  2.25466  0  0  -0.577478  0  2.244001  0  -1.171342  0  -0.317017  -0.529698  0  2.260881  0
O  O124  1  0.15390915  0.87288912  0.09033811  1  0  -0.624183  0  2.129025  0  0  -0.542777  0  2.411677  0  0  -0.576978  0  2.399671  0  -1.112755  0  -0.328692  -0.518313  0  2.418739  0
O  O125  1  0.84608442  0.37288974  0.40965941  1  0  -0.624203  0  2.128963  0  0  -0.542778  0  2.411677  0  0  -0.576981  0  2.399673  0  -1.112751  0  -0.328722  -0.518313  0  2.418743  0
O  O126  1  0.84608996  0.12711847  0.90966802  1  0  -0.624095  0  2.129022  0  0  -0.542712  0  2.411705  0  0  -0.576912  0  2.399699  0  -1.112984  0  -0.328632  -0.518249  0  2.41877  0
O  O127  1  0.15392161  0.62710650  0.59033736  1  0  -0.624109  0  2.129217  0  0  -0.542748  0  2.411863  0  0  -0.576948  0  2.399858  0  -1.112803  0  -0.32867  -0.518282  0  2.418929  0
O  O128  1  0.66602158  0.89433881  0.05102827  1  0  -0.640102  0  2.104783  0  0  -0.559236  0  2.3762  0  0  -0.594272  0  2.367926  0  -1.125191  0  -0.332094  -0.534449  0  2.38091  0
O  O129  1  0.33397476  0.39434699  0.44897004  1  0  -0.640172  0  2.104854  0  0  -0.559279  0  2.376243  0  0  -0.59432  0  2.367971  0  -1.124756  0  -0.332111  -0.534493  0  2.380962  0
O  O130  1  0.33396230  0.10565995  0.94897352  1  0  -0.640002  0  2.10492  0  0  -0.559217  0  2.376198  0  0  -0.594254  0  2.367924  0  -1.125491  0  -0.332092  -0.534429  0  2.380915  0
O  O131  1  0.66603681  0.60565429  0.55102597  1  0  -0.640143  0  2.10487  0  0  -0.5593  0  2.376211  0  0  -0.594333  0  2.36793  0  -1.124805  0  -0.3321  -0.534511  0  2.38093  0
O  O132  1  0.85867064  0.69225738  0.02026319  1  0  -0.619773  0  2.022843  0  0  -0.557922  0  2.274815  0  0  -0.586751  0  2.265749  0  -1.168423  0  -0.309883  -0.537471  0  2.280236  0
O  O133  1  0.14132986  0.19226430  0.47973630  1  0  -0.619843  0  2.022802  0  0  -0.558016  0  2.274834  0  0  -0.586817  0  2.265705  0  -1.1683  0  -0.30994  -0.537565  0  2.280265  0
O  O134  1  0.14134646  0.30777290  0.97973947  1  0  -0.619584  0  2.023103  0  0  -0.557802  0  2.274895  0  0  -0.586637  0  2.265841  0  -1.16833  0  -0.309856  -0.537352  0  2.280326  0
O  O135  1  0.85868309  0.80774833  0.52026127  1  0  -0.619785  0  2.022829  0  0  -0.557964  0  2.274705  0  0  -0.586804  0  2.265661  0  -1.168623  0  -0.309923  -0.537514  0  2.280137  0
O  O136  1  0.26743280  0.70044820  0.20629641  1  0  -0.341797  0  1.765762  0  0  -0.32529  0  1.953694  0  0  -0.33836  0  1.951386  0  -0.457048  0  -0.110103  -0.316711  0  1.955536  0
O  O137  1  0.73255800  0.20045008  0.29370384  1  0  -0.341945  0  1.765595  0  0  -0.325356  0  1.953637  0  0  -0.33841  0  1.951315  0  -0.457178  0  -0.110108  -0.316774  0  1.95548  0
O  O138  1  0.73255800  0.29955309  0.79370501  1  0  -0.341825  0  1.765611  0  0  -0.325259  0  1.953629  0  0  -0.338315  0  1.951307  0  -0.457106  0  -0.110081  -0.316678  0  1.955469  0
O  O139  1  0.26744526  0.79954869  0.70629722  1  0  -0.341847  0  1.765483  0  0  -0.325294  0  1.953493  0  0  -0.338346  0  1.951169  0  -0.457203  0  -0.110056  -0.316711  0  1.955335  0
O  O140  1  0.20901500  0.43457367  0.22438843  1  0  -0.355531  0  1.757932  0  0  -0.341034  0  1.950391  0  0  -0.353459  0  1.947004  0  -0.465433  0  -0.119779  -0.332814  0  1.952941  0
O  O141  1  0.79097718  0.93457684  0.27561221  1  0  -0.355621  0  1.757885  0  0  -0.341056  0  1.950451  0  0  -0.353483  0  1.94707  0  -0.465301  0  -0.119759  -0.332838  0  1.953002  0
O  O142  1  0.79097442  0.56542761  0.77561220  1  0  -0.355537  0  1.758006  0  0  -0.341001  0  1.950581  0  0  -0.353417  0  1.947173  0  -0.465366  0  -0.119662  -0.332781  0  1.95313  0
O  O143  1  0.20902054  0.06542571  0.72438728  1  0  -0.355558  0  1.757992  0  0  -0.340994  0  1.950503  0  0  -0.353419  0  1.94712  0  -0.465319  0  -0.119681  -0.332776  0  1.953053  0
