# generated using pymatgen
data_Cd3H24C22S4N4(ClO)6
_symmetry_space_group_name_H-M   'P 1'
_cell_length_a   7.52219190
_cell_length_b   9.85627739
_cell_length_c   12.75006254
_cell_angle_alpha   83.58556011
_cell_angle_beta   74.36125998
_cell_angle_gamma   68.82612919
_symmetry_Int_Tables_number   1
_chemical_formula_structural   Cd3H24C22S4N4(ClO)6
_chemical_formula_sum   'Cd3 H24 C22 S4 N4 Cl6 O6'
_cell_volume   848.74106939
_cell_formula_units_Z   1
loop_
 _symmetry_equiv_pos_site_id
 _symmetry_equiv_pos_as_xyz
  1  'x, y, z'
loop_
 _atom_site_type_symbol
 _atom_site_label
 _atom_site_symmetry_multiplicity
 _atom_site_fract_x
 _atom_site_fract_y
 _atom_site_fract_z
 _atom_site_occupancy
 _atom_site_hle17_bader_spin_density
 _atom_site_hle17_ddec_charge
 _atom_site_hle17_ddec_spin_density
 _atom_site_hle17_ddec_sum_bond_order
 _atom_site_hle17_magmom
 _atom_site_hse06_10hf_bader_spin_density
 _atom_site_hse06_10hf_ddec_charge
 _atom_site_hse06_10hf_ddec_spin_density
 _atom_site_hse06_10hf_ddec_sum_bond_order
 _atom_site_hse06_10hf_magmom
 _atom_site_hse06_bader_spin_density
 _atom_site_hse06_ddec_charge
 _atom_site_hse06_ddec_spin_density
 _atom_site_hse06_ddec_sum_bond_order
 _atom_site_hse06_magmom
 _atom_site_pbe_bader_spin_density
 _atom_site_pbe_cm5_charge
 _atom_site_pbe_ddec_charge
 _atom_site_pbe_ddec_spin_density
 _atom_site_pbe_ddec_sum_bond_order
 _atom_site_pbe_magmom
Cd  Cd0  1  0.00000546  0.99999835  0.99999979  1  0  1.031701  0  1.904579  0  0  0.88027  0  2.369979  0  0  0.931184  0  2.321281  0  0  0.584397  0.845102  0  2.402052  0
Cd  Cd1  1  0.96823115  0.03983982  0.29326879  1  0  1.035118  0  1.85596  0  0  0.872466  0  2.328319  0  0  0.922333  0  2.278573  0  0  0.607628  0.837257  0  2.361951  0
Cd  Cd2  1  0.03176953  0.96016874  0.70673050  1  0  1.035103  0  1.855918  0  0  0.872452  0  2.328279  0  0  0.922325  0  2.278531  0  0  0.607627  0.837244  0  2.36191  0
H  H3  1  0.21641747  0.56705428  0.90051984  1  0  0.112387  0  1.009472  0  0  0.116185  0  1.079642  0  0  0.119738  0  1.078832  0  0  0.08834  0.114271  0  1.079504  0
H  H4  1  0.78358666  0.43294123  0.09948946  1  0  0.112315  0  1.009653  0  0  0.116164  0  1.079756  0  0  0.119717  0  1.078946  0  0  0.088309  0.114241  0  1.079628  0
H  H5  1  0.29810453  0.54849312  0.07974053  1  0  0.106683  0  0.939984  0  0  0.114965  0  1.003952  0  0  0.118022  0  1.001856  0  0  0.100836  0.111651  0  1.007153  0
H  H6  1  0.70189749  0.45148931  0.92027261  1  0  0.1066  0  0.940049  0  0  0.114846  0  1.00406  0  0  0.117908  0  1.001952  0  0  0.100808  0.111536  0  1.007253  0
H  H7  1  0.35772382  0.30822416  0.18378258  1  0  0.11587  0  0.948205  0  0  0.125924  0  1.00512  0  0  0.128814  0  1.004715  0  0  0.103764  0.123837  0  1.005642  0
H  H8  1  0.64228023  0.69175392  0.81622513  1  0  0.115976  0  0.948247  0  0  0.125964  0  1.005195  0  0  0.128845  0  1.004803  0  0  0.1038  0.123881  0  1.005718  0
H  H9  1  0.32764571  0.09730619  0.10163761  1  0  0.116375  0  0.953341  0  0  0.1239  0  1.019004  0  0  0.127693  0  1.014886  0  0  0.121659  0.120564  0  1.022879  0
H  H10  1  0.67237414  0.90266755  0.89835853  1  0  0.116344  0  0.953511  0  0  0.123863  0  1.019195  0  0  0.127649  0  1.015087  0  0  0.121639  0.120529  0  1.023069  0
H  H11  1  0.54480202  0.33367068  0.73065101  1  0  0.11326  0  0.986199  0  0  0.117919  0  1.056071  0  0  0.121261  0  1.055205  0  0  0.09827  0.115834  0  1.05611  0
H  H12  1  0.45519954  0.66633897  0.26934962  1  0  0.11326  0  0.986205  0  0  0.117898  0  1.056099  0  0  0.12123  0  1.055259  0  0  0.098281  0.115811  0  1.056129  0
H  H13  1  0.85628326  0.38281783  0.65361513  1  0  0.099934  0  0.972503  0  0  0.104114  0  1.045599  0  0  0.107636  0  1.042125  0  0  0.092588  0.101454  0  1.048196  0
H  H14  1  0.14371466  0.61719943  0.34637678  1  0  0.099958  0  0.972574  0  0  0.104119  0  1.045675  0  0  0.107664  0  1.042159  0  0  0.09262  0.101458  0  1.048277  0
H  H15  1  0.84468640  0.61902807  0.54844618  1  0  0.116545  0  0.955007  0  0  0.123136  0  1.018945  0  0  0.126418  0  1.017919  0  0  0.103148  0.12066  0  1.019961  0
H  H16  1  0.15529458  0.38098695  0.45154160  1  0  0.116544  0  0.955037  0  0  0.123167  0  1.018959  0  0  0.126454  0  1.017923  0  0  0.103161  0.120688  0  1.019971  0
H  H17  1  0.51788489  0.79095795  0.52223028  1  0  0.115309  0  0.946944  0  0  0.123299  0  1.013416  0  0  0.126763  0  1.00988  0  0  0.123452  0.120864  0  1.015624  0
H  H18  1  0.48209142  0.20904944  0.47776049  1  0  0.115381  0  0.947025  0  0  0.123358  0  1.013483  0  0  0.126823  0  1.009946  0  0  0.123475  0.120925  0  1.01569  0
H  H19  1  0.17017055  0.11423801  0.41556782  1  0  0.36185  0  0.915654  0  0  0.340219  0  0.983647  0  0  0.350402  0  0.972854  0  0  0.267609  0.332928  0  0.991412  0
H  H20  1  0.82983204  0.88576947  0.58443597  1  0  0.361898  0  0.91566  0  0  0.340267  0  0.983655  0  0  0.350455  0  0.972854  0  0  0.267631  0.332976  0  0.99142  0
H  H21  1  0.50456671  0.01791781  0.35367250  1  0  0.067962  0  0.982197  0  0  0.080699  0  1.060921  0  0  0.080863  0  1.061182  0  0  0.077564  0.080799  0  1.060162  0
H  H22  1  0.49543346  0.98209184  0.64632678  1  0  0.067934  0  0.982155  0  0  0.080689  0  1.06087  0  0  0.080854  0  1.061126  0  0  0.077551  0.080791  0  1.060109  0
H  H23  1  0.47228397  0.96184740  0.23400181  1  0  0.090435  0  0.974104  0  0  0.103285  0  1.045853  0  0  0.104497  0  1.045643  0  0  0.086996  0.102372  0  1.046147  0
H  H24  1  0.52771759  0.03816226  0.76600116  1  0  0.090408  0  0.974023  0  0  0.103266  0  1.045781  0  0  0.10448  0  1.045567  0  0  0.086919  0.10235  0  1.046081  0
H  H25  1  0.40248633  0.87742861  0.36282665  1  0  0.065077  0  0.96087  0  0  0.080782  0  1.034023  0  0  0.081431  0  1.033587  0  0  0.081401  0.080346  0  1.034051  0
H  H26  1  0.59752106  0.12257452  0.63717440  1  0  0.065042  0  0.960941  0  0  0.080768  0  1.03405  0  0  0.081396  0  1.033637  0  0  0.08139  0.080333  0  1.034077  0
C  C27  1  0.22461247  0.34616096  0.90817931  1  0  0.078655  0  3.703101  0  0  0.075619  0  3.968614  0  0  0.082938  0  3.986149  0  0  0.103013  0.070582  0  3.957358  0
C  C28  1  0.77539403  0.65383236  0.09182352  1  0  0.078727  0  3.703218  0  0  0.075641  0  3.968795  0  0  0.08296  0  3.986329  0  0  0.103095  0.070605  0  3.957536  0
C  C29  1  0.24094872  0.46576163  0.94777583  1  0  -0.139347  0  3.757615  0  0  -0.156526  0  4.009431  0  0  -0.163167  0  4.030225  0  0  -0.092329  -0.153119  0  3.995441  0
C  C30  1  0.75906278  0.53422409  0.05223315  1  0  -0.139391  0  3.757515  0  0  -0.156628  0  4.009369  0  0  -0.163272  0  4.030165  0  0  -0.092376  -0.153216  0  3.995386  0
C  C31  1  0.28712417  0.45442676  0.04794604  1  0  -0.01846  0  3.713287  0  0  -0.043186  0  3.975603  0  0  -0.038482  0  3.990705  0  0  -0.079036  -0.044913  0  3.965435  0
C  C32  1  0.71288040  0.54555894  0.95205699  1  0  -0.018013  0  3.713108  0  0  -0.042711  0  3.975393  0  0  -0.038004  0  3.990493  0  0  -0.078821  -0.044438  0  3.965222  0
C  C33  1  0.31849114  0.32254037  0.10620584  1  0  -0.090513  0  3.74915  0  0  -0.107217  0  4.012684  0  0  -0.111473  0  4.030037  0  0  -0.08596  -0.104756  0  4.000556  0
C  C34  1  0.68151461  0.67743988  0.89379592  1  0  -0.090956  0  3.749287  0  0  -0.107576  0  4.012836  0  0  -0.111827  0  4.030188  0  0  -0.086111  -0.105121  0  4.000704  0
C  C35  1  0.30254583  0.20511799  0.06423219  1  0  0.029581  0  3.582037  0  0  -0.017188  0  3.852091  0  0  -0.008638  0  3.861948  0  0  0.037881  -0.022056  0  3.845676  0
C  C36  1  0.69746979  0.79487644  0.93576672  1  0  0.029686  0  3.581697  0  0  -0.017145  0  3.851786  0  0  -0.008585  0  3.861626  0  0  0.037899  -0.022014  0  3.84538  0
C  C37  1  0.36820509  0.53214520  0.66605145  1  0  0.084324  0  3.712163  0  0  0.079122  0  3.979586  0  0  0.086951  0  3.997397  0  0  0.103019  0.073802  0  3.967858  0
C  C38  1  0.63178609  0.46786007  0.33394809  1  0  0.084211  0  3.712278  0  0  0.079001  0  3.979675  0  0  0.08692  0  3.997367  0  0  0.103037  0.073683  0  3.967947  0
C  C39  1  0.54444938  0.43271675  0.68332416  1  0  -0.136749  0  3.737139  0  0  -0.153516  0  3.987984  0  0  -0.159565  0  4.00709  0  0  -0.08942  -0.149678  0  3.974813  0
C  C40  1  0.45554560  0.56729505  0.31667106  1  0  -0.136661  0  3.736935  0  0  -0.153402  0  3.987764  0  0  -0.159477  0  4.006843  0  0  -0.089433  -0.149558  0  3.974588  0
C  C41  1  0.71822767  0.46178675  0.64110034  1  0  -0.001282  0  3.697047  0  0  -0.025895  0  3.955146  0  0  -0.019889  0  3.968825  0  0  -0.076761  -0.029552  0  3.945625  0
C  C42  1  0.28176215  0.53822722  0.35889708  1  0  -0.001291  0  3.697022  0  0  -0.025881  0  3.955161  0  0  -0.019883  0  3.968841  0  0  -0.076755  -0.029541  0  3.945644  0
C  C43  1  0.71288901  0.59115613  0.58237358  1  0  -0.101892  0  3.749914  0  0  -0.118733  0  4.015706  0  0  -0.123633  0  4.033273  0  0  -0.086953  -0.115832  0  4.004046  0
C  C44  1  0.28709871  0.40885348  0.41761987  1  0  -0.102044  0  3.750029  0  0  -0.118977  0  4.015881  0  0  -0.123881  0  4.033454  0  0  -0.087113  -0.116058  0  4.00419  0
C  C45  1  0.53551051  0.68806201  0.56666476  1  0  0.016811  0  3.599047  0  0  -0.028275  0  3.865239  0  0  -0.020343  0  3.876845  0  0  0.033405  -0.033062  0  3.856975  0
C  C46  1  0.46447045  0.31194431  0.43332770  1  0  0.01675  0  3.599247  0  0  -0.028278  0  3.86539  0  0  -0.020353  0  3.877009  0  0  0.033432  -0.033066  0  3.85713  0
C  C47  1  0.40969790  0.98007419  0.32139167  1  0  -0.044224  0  3.661572  0  0  -0.142003  0  3.931172  0  0  -0.135894  0  3.936429  0  0  -0.172813  -0.14636  0  3.927414  0
C  C48  1  0.59030777  0.01993546  0.67860280  1  0  -0.044059  0  3.661431  0  0  -0.141857  0  3.930999  0  0  -0.135727  0  3.936268  0  0  -0.172652  -0.146215  0  3.927246  0
S  S49  1  0.17650771  0.32276145  0.78490746  1  0  0.056815  0  2.529843  0  0  0.050261  0  2.905785  0  0  0.051366  0  2.903603  0  0  0.075734  0.048544  0  2.907739  0
S  S50  1  0.82349999  0.67723514  0.21509254  1  0  0.056823  0  2.529877  0  0  0.05028  0  2.905809  0  0  0.051384  0  2.903631  0  0  0.075718  0.048563  0  2.90776  0
S  S51  1  0.12843358  0.52792206  0.71381043  1  0  0.037198  0  2.512316  0  0  0.029676  0  2.887148  0  0  0.029483  0  2.886687  0  0  0.067107  0.03028  0  2.887007  0
S  S52  1  0.87156020  0.47207778  0.28619623  1  0  0.037222  0  2.512422  0  0  0.0297  0  2.887261  0  0  0.029475  0  2.88677  0  0  0.067136  0.030304  0  2.887118  0
N  N53  1  0.25408542  0.21919069  0.96756176  1  0  0.230479  0  3.689362  0  0  0.281259  0  3.944408  0  0  0.28044  0  3.965253  0  0  -0.12131  0.280955  0  3.930374  0
N  N54  1  0.74593172  0.78079176  0.03243954  1  0  0.230545  0  3.689376  0  0  0.281361  0  3.944425  0  0  0.280541  0  3.965267  0  0  -0.121311  0.281056  0  3.930395  0
N  N55  1  0.36709016  0.65804698  0.60819767  1  0  0.222619  0  3.713796  0  0  0.27599  0  3.966012  0  0  0.274505  0  3.988283  0  0  -0.124607  0.276255  0  3.950969  0
N  N56  1  0.63289636  0.34195936  0.39180096  1  0  0.222686  0  3.713742  0  0  0.276076  0  3.965895  0  0  0.274566  0  3.988152  0  0  -0.124571  0.276339  0  3.950856  0
Cl  Cl57  1  0.78354422  0.18464281  0.15470868  1  0  -0.533148  0  1.079998  0  0  -0.459373  0  1.372408  0  0  -0.48209  0  1.352462  0  0  -0.266266  -0.444266  0  1.384911  0
Cl  Cl58  1  0.21646244  0.81535595  0.84528659  1  0  -0.533149  0  1.07999  0  0  -0.459358  0  1.372387  0  0  -0.482073  0  1.352439  0  0  -0.266271  -0.444249  0  1.384892  0
Cl  Cl59  1  0.21415368  0.86080621  0.14139565  1  0  -0.569958  0  0.967966  0  0  -0.503393  0  1.250494  0  0  -0.525808  0  1.230897  0  0  -0.294385  -0.48672  0  1.265024  0
Cl  Cl60  1  0.78585010  0.13919582  0.85860686  1  0  -0.569945  0  0.9679  0  0  -0.503391  0  1.250456  0  0  -0.525806  0  1.230857  0  0  -0.294396  -0.486718  0  1.26499  0
Cl  Cl61  1  0.84673679  0.86794451  0.42345881  1  0  -0.571546  0  0.974552  0  0  -0.503118  0  1.246864  0  0  -0.522051  0  1.224361  0  0  -0.276343  -0.489238  0  1.26168  0
Cl  Cl62  1  0.15326012  0.13206622  0.57654247  1  0  -0.571514  0  0.974587  0  0  -0.503078  0  1.24689  0  0  -0.522011  0  1.224392  0  0  -0.276324  -0.489196  0  1.261701  0
O  O63  1  0.24007333  0.10917845  0.92278592  1  0  -0.528235  0  1.85759  0  0  -0.477759  0  2.110365  0  0  -0.504961  0  2.11042  0  0  -0.237384  -0.457986  0  2.108703  0
O  O64  1  0.75994192  0.89081379  0.07720776  1  0  -0.528354  0  1.857663  0  0  -0.477829  0  2.110347  0  0  -0.505027  0  2.110394  0  0  -0.237442  -0.458055  0  2.108689  0
O  O65  1  0.19488124  0.74926040  0.59514683  1  0  -0.53206  0  1.826518  0  0  -0.48521  0  2.077969  0  0  -0.51135  0  2.077951  0  0  -0.246417  -0.466317  0  2.076672  0
O  O66  1  0.80510044  0.25074157  0.40485453  1  0  -0.532013  0  1.826472  0  0  -0.485183  0  2.077939  0  0  -0.511317  0  2.077908  0  0  -0.246398  -0.466289  0  2.076643  0
O  O67  1  0.21601978  0.08971530  0.33669739  1  0  -0.521745  0  2.204555  0  0  -0.437564  0  2.444772  0  0  -0.459815  0  2.43461  0  0  -0.415647  -0.421964  0  2.451638  0
O  O68  1  0.78398106  0.91028999  0.66330295  1  0  -0.521852  0  2.204512  0  0  -0.437721  0  2.444775  0  0  -0.459983  0  2.434609  0  0  -0.415739  -0.42212  0  2.45164  0
