# generated using pymatgen
data_YAgH8C14(NO4)2
_symmetry_space_group_name_H-M   'P 1'
_cell_length_a   9.49322247
_cell_length_b   12.02079047
_cell_length_c   16.68500000
_cell_angle_alpha   96.26708499
_cell_angle_beta   90.00000000
_cell_angle_gamma   113.25725596
_symmetry_Int_Tables_number   1
_chemical_formula_structural   YAgH8C14(NO4)2
_chemical_formula_sum   'Y4 Ag4 H32 C56 N8 O32'
_cell_volume   1736.91517310
_cell_formula_units_Z   4
loop_
 _symmetry_equiv_pos_site_id
 _symmetry_equiv_pos_as_xyz
  1  'x, y, z'
loop_
 _atom_site_type_symbol
 _atom_site_label
 _atom_site_symmetry_multiplicity
 _atom_site_fract_x
 _atom_site_fract_y
 _atom_site_fract_z
 _atom_site_occupancy
 _atom_site_hle17_bader_spin_density
 _atom_site_hle17_ddec_charge
 _atom_site_hle17_ddec_spin_density
 _atom_site_hle17_ddec_sum_bond_order
 _atom_site_hle17_magmom
 _atom_site_hse06_10hf_bader_spin_density
 _atom_site_hse06_10hf_ddec_charge
 _atom_site_hse06_10hf_ddec_spin_density
 _atom_site_hse06_10hf_ddec_sum_bond_order
 _atom_site_hse06_10hf_magmom
 _atom_site_hse06_bader_spin_density
 _atom_site_hse06_ddec_charge
 _atom_site_hse06_ddec_spin_density
 _atom_site_hse06_ddec_sum_bond_order
 _atom_site_hse06_magmom
 _atom_site_pbe_bader_charge
 _atom_site_pbe_bader_spin_density
 _atom_site_pbe_cm5_charge
 _atom_site_pbe_ddec_charge
 _atom_site_pbe_ddec_spin_density
 _atom_site_pbe_ddec_sum_bond_order
 _atom_site_pbe_magmom
Y  Y0  1  0.30255410  0.01011968  0.93295651  1  0  2.029119  0  1.913162  0  0  1.838379  0  2.415859  0  0  1.912167  0  2.346028  0  2.300256  0  1.279856  1.785577  0  2.463241  0
Y  Y1  1  0.29250735  0.98988852  0.56707704  1  0  2.028994  0  1.911946  0  0  1.838658  0  2.413585  0  0  1.912293  0  2.344086  0  2.298708  0  1.279625  1.785752  0  2.461244  0
Y  Y2  1  0.69744959  0.98987940  0.06703976  1  0  2.02907  0  1.913009  0  0  1.838248  0  2.4158  0  0  1.912062  0  2.345928  0  2.300342  0  1.279921  1.785496  0  2.463088  0
Y  Y3  1  0.70749258  0.01011147  0.43292110  1  0  2.02897  0  1.912122  0  0  1.838649  0  2.413784  0  0  1.912315  0  2.344228  0  2.298818  0  1.279573  1.785742  0  2.461446  0
Ag  Ag4  1  0.71981528  0.67913304  0.91612035  1  0  0.521133  0  1.38296  0  0  0.356004  0  1.803552  0  0  0.388737  0  1.75903  0  0.570087  0  0.485135  0.333815  0  1.833979  0
Ag  Ag5  1  0.04036425  0.32081041  0.58379243  1  0  0.520833  0  1.382474  0  0  0.355958  0  1.803315  0  0  0.388688  0  1.758783  0  0.569974  0  0.48529  0.33385  0  1.833633  0
Ag  Ag6  1  0.28018781  0.32086695  0.08388079  1  0  0.521115  0  1.383023  0  0  0.355989  0  1.803615  0  0  0.38872  0  1.759094  0  0.569992  0  0.485138  0.333802  0  1.834041  0
Ag  Ag7  1  0.95963568  0.67918958  0.41620871  1  0  0.520871  0  1.382476  0  0  0.355998  0  1.80331  0  0  0.388726  0  1.758776  0  0.569921  0  0.485312  0.333891  0  1.833627  0
H  H8  1  0.02810292  0.91087712  0.16553547  1  0  0.121967  0  0.939852  0  0  0.131556  0  1.000481  0  0  0.134483  0  0.999989  0  0.120044  0  0.117996  0.129329  0  1.001035  0
H  H9  1  0.11684201  0.08899702  0.33445097  1  0  0.122419  0  0.940969  0  0  0.131777  0  1.00147  0  0  0.134788  0  1.000903  0  0.127128  0  0.117998  0.129495  0  1.002132  0
H  H10  1  0.97189761  0.08912196  0.83446499  1  0  0.121927  0  0.939885  0  0  0.131514  0  1.000526  0  0  0.134438  0  1.000042  0  0.120009  0  0.117979  0.129288  0  1.001081  0
H  H11  1  0.88315792  0.91100297  0.66554957  1  0  0.122403  0  0.940978  0  0  0.131761  0  1.001475  0  0  0.134772  0  1.000909  0  0.127135  0  0.118002  0.12948  0  1.002136  0
H  H12  1  0.40230502  0.80835254  0.21880274  1  0  0.130545  0  0.945297  0  0  0.140394  0  1.002771  0  0  0.144153  0  1.000763  0  0.148353  0  0.120937  0.137605  0  1.004483  0
H  H13  1  0.59354091  0.19148422  0.28124850  1  0  0.13084  0  0.944716  0  0  0.140213  0  1.002674  0  0  0.143952  0  1.000696  0  0.157199  0  0.1211  0.137433  0  1.004377  0
H  H14  1  0.59769386  0.19164745  0.78119960  1  0  0.130532  0  0.945249  0  0  0.140321  0  1.002795  0  0  0.144081  0  1.000788  0  0.148398  0  0.120912  0.137514  0  1.00453  0
H  H15  1  0.40645947  0.80851669  0.71875331  1  0  0.130828  0  0.944729  0  0  0.140223  0  1.002668  0  0  0.143964  0  1.000691  0  0.157259  0  0.1211  0.137441  0  1.004375  0
H  H16  1  0.89041807  0.79876360  0.27857541  1  0  0.09616  0  0.93699  0  0  0.106656  0  0.996188  0  0  0.109431  0  0.99375  0  0.145275  0  0.122805  0.104536  0  0.998183  0
H  H17  1  0.09143969  0.20128746  0.22143933  1  0  0.096063  0  0.937097  0  0  0.106471  0  0.996524  0  0  0.109135  0  0.994195  0  0.135744  0  0.122999  0.104443  0  0.998414  0
H  H18  1  0.10958291  0.20123639  0.72142632  1  0  0.096149  0  0.937012  0  0  0.10666  0  0.996196  0  0  0.109434  0  0.993756  0  0.145226  0  0.1228  0.104539  0  0.998191  0
H  H19  1  0.90856175  0.79871344  0.77856188  1  0  0.096037  0  0.937022  0  0  0.106495  0  0.996399  0  0  0.109161  0  0.994067  0  0.135795  0  0.123019  0.104467  0  0.998286  0
H  H20  1  0.24651897  0.69319864  0.32583191  1  0  0.069713  0  0.959031  0  0  0.082317  0  1.019099  0  0  0.08362  0  1.018577  0  0.05036  0  0.114807  0.081338  0  1.019585  0
H  H21  1  0.55306363  0.30666730  0.17415689  1  0  0.069883  0  0.959335  0  0  0.082878  0  1.018867  0  0  0.084201  0  1.018294  0  0.07054  0  0.115092  0.081862  0  1.019427  0
H  H22  1  0.75348398  0.30680317  0.67417117  1  0  0.069733  0  0.959059  0  0  0.082365  0  1.019095  0  0  0.083666  0  1.018575  0  0.050469  0  0.114823  0.081385  0  1.019582  0
H  H23  1  0.44693479  0.69333178  0.82584418  1  0  0.069904  0  0.959291  0  0  0.082876  0  1.018854  0  0  0.084184  0  1.018298  0  0.070516  0  0.115092  0.081863  0  1.019408  0
H  H24  1  0.42834491  0.58867055  0.04790833  1  0  0.092866  0  0.931887  0  0  0.1015  0  0.995664  0  0  0.105121  0  0.991347  0  0.127618  0  0.12312  0.098849  0  0.998818  0
H  H25  1  0.83980139  0.41136592  0.45208069  1  0  0.093274  0  0.929953  0  0  0.101427  0  0.994364  0  0  0.105053  0  0.990059  0  0.136097  0  0.123265  0.098801  0  0.997456  0
H  H26  1  0.57165667  0.41132853  0.95209273  1  0  0.092921  0  0.931777  0  0  0.101515  0  0.99559  0  0  0.105137  0  0.991273  0  0.127686  0  0.123116  0.098863  0  0.998746  0
H  H27  1  0.16019703  0.58863316  0.54792038  1  0  0.093255  0  0.929996  0  0  0.101412  0  0.994406  0  0  0.105037  0  0.990103  0  0.136062  0  0.123253  0.098786  0  0.997497  0
H  H28  1  0.12805677  0.64266954  0.87793944  1  0  0.124799  0  0.914541  0  0  0.135796  0  0.970155  0  0  0.140054  0  0.965615  0  0.166124  0  0.12402  0.132622  0  0.973507  0
H  H29  1  0.48556112  0.35737878  0.62212243  1  0  0.125131  0  0.913502  0  0  0.13587  0  0.96948  0  0  0.140071  0  0.964975  0  0.137747  0  0.123929  0.132665  0  0.972926  0
H  H30  1  0.87194481  0.35732954  0.12206102  1  0  0.12481  0  0.914655  0  0  0.135854  0  0.97022  0  0  0.140112  0  0.965685  0  0.166019  0  0.124051  0.13268  0  0.973572  0
H  H31  1  0.51443926  0.64262212  0.37787878  1  0  0.125163  0  0.913513  0  0  0.135929  0  0.969446  0  0  0.140131  0  0.964938  0  0.137941  0  0.123942  0.132703  0  0.972916  0
H  H32  1  0.04937841  0.28644708  0.94813750  1  0  0.096918  0  0.938053  0  0  0.10418  0  1.00262  0  0  0.106811  0  1.000201  0  0.131805  0  0.123205  0.102257  0  1.004371  0
H  H33  1  0.76294656  0.71358027  0.55186579  1  0  0.096692  0  0.938728  0  0  0.103818  0  1.003378  0  0  0.106417  0  1.001019  0  0.124574  0  0.12302  0.101784  0  1.005328  0
H  H34  1  0.95062468  0.71355291  0.05186484  1  0  0.096906  0  0.93803  0  0  0.104218  0  1.002545  0  0  0.10685  0  1.000123  0  0.131844  0  0.123216  0.102293  0  1.004297  0
H  H35  1  0.23705382  0.28642064  0.44813542  1  0  0.0967  0  0.938731  0  0  0.103824  0  1.003393  0  0  0.106424  0  1.001033  0  0.124585  0  0.123028  0.101785  0  1.00534  0
H  H36  1  0.97063841  0.41351169  0.86311909  1  0  0.101232  0  0.956199  0  0  0.111203  0  1.013923  0  0  0.113167  0  1.015993  0  0.111234  0  0.106533  0.1098  0  1.012653  0
H  H37  1  0.55721661  0.58652113  0.63691160  1  0  0.10098  0  0.956442  0  0  0.111685  0  1.013428  0  0  0.113654  0  1.01548  0  0.080231  0  0.106656  0.110326  0  1.012074  0
H  H38  1  0.02936317  0.58648739  0.13688257  1  0  0.101197  0  0.956261  0  0  0.111169  0  1.013986  0  0  0.113134  0  1.016054  0  0.11119  0  0.106512  0.109768  0  1.012715  0
H  H39  1  0.44278529  0.41348069  0.36308908  1  0  0.100978  0  0.956386  0  0  0.111673  0  1.013378  0  0  0.113645  0  1.015431  0  0.080251  0  0.106642  0.110312  0  1.01203  0
C  C40  1  0.22873063  0.87140061  0.18475140  1  0  -0.013554  0  3.697092  0  0  0.003266  0  3.932266  0  0  0.001261  0  3.951024  0  -0.044162  0  0.006398  0.004449  0  3.919824  0
C  C41  1  0.35696293  0.12845348  0.31521489  1  0  -0.012475  0  3.697966  0  0  0.004269  0  3.93272  0  0  0.002297  0  3.951488  0  -0.001892  0  0.006185  0.005486  0  3.920227  0
C  C42  1  0.77126720  0.12859938  0.81524914  1  0  -0.013622  0  3.697287  0  0  0.003202  0  3.932436  0  0  0.001196  0  3.951195  0  -0.044559  0  0.006411  0.004386  0  3.91999  0
C  C43  1  0.64303851  0.87154743  0.68478572  1  0  -0.012439  0  3.698038  0  0  0.004268  0  3.932785  0  0  0.002296  0  3.951557  0  -0.002279  0  0.006202  0.005483  0  3.920287  0
C  C44  1  0.08115465  0.86509462  0.20049639  1  0  -0.114746  0  3.702162  0  0  -0.136882  0  3.952138  0  0  -0.141894  0  3.973509  0  0.01818  0  -0.072768  -0.133531  0  3.938057  0
C  C45  1  0.21568746  0.13476768  0.29950051  1  0  -0.116494  0  3.704302  0  0  -0.138048  0  3.95391  0  0  -0.143148  0  3.97523  0  -0.02197  0  -0.072715  -0.134729  0  3.939928  0
C  C46  1  0.91884739  0.13490538  0.79950535  1  0  -0.114674  0  3.702159  0  0  -0.136821  0  3.952138  0  0  -0.141832  0  3.973508  0  0.018199  0  -0.072737  -0.133471  0  3.938054  0
C  C47  1  0.78431292  0.86523323  0.70050070  1  0  -0.116427  0  3.704391  0  0  -0.137981  0  3.954017  0  0  -0.143082  0  3.97534  0  -0.021977  0  -0.072707  -0.134663  0  3.940035  0
C  C48  1  0.96485832  0.93024651  0.98875615  1  0  0.549028  0  3.939677  0  0  0.500621  0  4.234398  0  0  0.531933  0  4.225732  0  1.618923  0  0.209141  0.479259  0  4.239814  0
C  C49  1  0.03466250  0.06975805  0.51119919  1  0  0.548419  0  3.940855  0  0  0.500023  0  4.235561  0  0  0.531347  0  4.226786  0  1.607293  0  0.209047  0.478625  0  4.241002  0
C  C50  1  0.03513304  0.06975531  0.01124692  1  0  0.549356  0  3.93918  0  0  0.500973  0  4.233858  0  0  0.532282  0  4.22519  0  1.586546  0  0.209245  0.479611  0  4.239278  0
C  C51  1  0.96533831  0.93023739  0.48880398  1  0  0.548567  0  3.940708  0  0  0.50012  0  4.235485  0  0  0.531449  0  4.226713  0  1.576695  0  0.209075  0.478723  0  4.240926  0
C  C52  1  0.28863176  0.80707675  0.22964576  1  0  -0.107005  0  3.678918  0  0  -0.127598  0  3.920959  0  0  -0.132152  0  3.940201  0  -0.030861  0  -0.069551  -0.124703  0  3.908392  0
C  C53  1  0.48120524  0.19278463  0.27033668  1  0  -0.107261  0  3.681225  0  0  -0.127465  0  3.923597  0  0  -0.13201  0  3.94281  0  -0.041328  0  -0.069386  -0.124629  0  3.91103  0
C  C54  1  0.71137119  0.19292507  0.77035612  1  0  -0.106868  0  3.678946  0  0  -0.127407  0  3.920987  0  0  -0.131959  0  3.940227  0  -0.030704  0  -0.069478  -0.124499  0  3.908428  0
C  C55  1  0.51879574  0.80721536  0.72966445  1  0  -0.107216  0  3.681183  0  0  -0.127422  0  3.92354  0  0  -0.13197  0  3.942754  0  -0.041336  0  -0.069374  -0.124587  0  3.910974  0
C  C56  1  0.22078569  0.92924430  0.74493026  1  0  0.534572  0  3.959418  0  0  0.490329  0  4.261504  0  0  0.520501  0  4.253724  0  1.62863  0  0.20806  0.469789  0  4.266158  0
C  C57  1  0.29159931  0.07081953  0.75512145  1  0  0.53404  0  3.961026  0  0  0.489766  0  4.263286  0  0  0.51993  0  4.255536  0  1.518308  0  0.207651  0.469228  0  4.267915  0
C  C58  1  0.77919950  0.07075570  0.25505470  1  0  0.534576  0  3.959459  0  0  0.490289  0  4.26161  0  0  0.520461  0  4.253833  0  1.62798  0  0.208027  0.469747  0  4.266265  0
C  C59  1  0.70839535  0.92918046  0.24486470  1  0  0.534095  0  3.960997  0  0  0.489826  0  4.263265  0  0  0.519988  0  4.25552  0  1.51828  0  0.207723  0.469289  0  4.267896  0
C  C60  1  0.00315540  0.80170640  0.26275951  1  0  0.113181  0  3.671114  0  0  0.083323  0  3.915476  0  0  0.088997  0  3.934616  0  0.416752  0  0.046853  0.079528  0  3.902549  0
C  C61  1  0.20117933  0.19824162  0.23725313  1  0  0.115164  0  3.671141  0  0  0.085003  0  3.915527  0  0  0.090823  0  3.934654  0  0.418675  0  0.047117  0.081095  0  3.902646  0
C  C62  1  0.99684604  0.19829451  0.73724230  1  0  0.113206  0  3.671206  0  0  0.083347  0  3.915569  0  0  0.089024  0  3.934701  0  0.416783  0  0.046873  0.079552  0  3.902642  0
C  C63  1  0.79882000  0.80175929  0.76274808  1  0  0.115202  0  3.670989  0  0  0.08501  0  3.915389  0  0  0.090829  0  3.934518  0  0.418642  0  0.047115  0.081101  0  3.902514  0
C  C64  1  0.32380422  0.94588336  0.12170786  1  0  0.693225  0  3.88336  0  0  0.641342  0  4.178382  0  0  0.677762  0  4.167323  0  1.620089  0  0.231348  0.616584  0  4.185233  0
C  C65  1  0.37783737  0.05407195  0.37824242  1  0  0.692116  0  3.883912  0  0  0.640137  0  4.179044  0  0  0.676512  0  4.168068  0  1.616842  0  0.230783  0.615388  0  4.185805  0
C  C66  1  0.67621225  0.05411390  0.87829546  1  0  0.693234  0  3.88318  0  0  0.641359  0  4.178168  0  0  0.677777  0  4.167109  0  1.620471  0  0.231309  0.616602  0  4.18502  0
C  C67  1  0.62215578  0.94592713  0.62175925  1  0  0.691733  0  3.884415  0  0  0.63984  0  4.179409  0  0  0.676214  0  4.168439  0  1.618082  0  0.230662  0.6151  0  4.186152  0
C  C68  1  0.20260616  0.74368306  0.28971306  1  0  0.117123  0  3.705136  0  0  0.088118  0  3.947963  0  0  0.094552  0  3.9668  0  0.506678  0  0.044977  0.083748  0  3.935326  0
C  C69  1  0.45864360  0.25620933  0.21026702  1  0  0.117354  0  3.705389  0  0  0.087813  0  3.948065  0  0  0.094267  0  3.96689  0  0.489821  0  0.044675  0.083422  0  3.935498  0
C  C70  1  0.79739574  0.25631876  0.71029002  1  0  0.117049  0  3.705243  0  0  0.088024  0  3.948067  0  0  0.094457  0  3.966904  0  0.506412  0  0.044937  0.083656  0  3.935424  0
C  C71  1  0.54135738  0.74379067  0.78973411  1  0  0.117293  0  3.705378  0  0  0.087757  0  3.948081  0  0  0.094224  0  3.96691  0  0.489758  0  0.044668  0.083367  0  3.935514  0
C  C72  1  0.38761699  0.76470030  0.97546490  1  0  0.690243  0  3.913163  0  0  0.635375  0  4.211012  0  0  0.67168  0  4.202345  0  1.621473  0  0.230699  0.610734  0  4.216192  0
C  C73  1  0.62316957  0.23532705  0.52454498  1  0  0.691028  0  3.91298  0  0  0.636581  0  4.209873  0  0  0.672932  0  4.201097  0  1.625576  0  0.231565  0.611876  0  4.215173  0
C  C74  1  0.61239962  0.23529514  0.02453827  1  0  0.690196  0  3.913219  0  0  0.635238  0  4.211232  0  0  0.67154  0  4.202569  0  1.621238  0  0.230597  0.6106  0  4.216406  0
C  C75  1  0.37682043  0.76467203  0.47545729  1  0  0.690992  0  3.91274  0  0  0.636654  0  4.209484  0  0  0.673004  0  4.200706  0  1.626143  0  0.231597  0.611951  0  4.214784  0
C  C76  1  0.29024566  0.63011410  0.96299634  1  0  -0.116024  0  3.756674  0  0  -0.090483  0  3.993148  0  0  -0.10331  0  4.017078  0  0.014579  0  -0.011591  -0.082447  0  3.977362  0
C  C77  1  0.66025655  0.36991690  0.53701323  1  0  -0.115341  0  3.756639  0  0  -0.089753  0  3.992266  0  0  -0.102549  0  4.01614  0  0.0138  0  -0.010293  -0.081715  0  3.976468  0
C  C78  1  0.70975381  0.36988498  0.03700412  1  0  -0.116024  0  3.75643  0  0  -0.090455  0  3.992923  0  0  -0.103281  0  4.016852  0  0.014221  0  -0.011554  -0.082421  0  3.977137  0
C  C79  1  0.33974489  0.63008400  0.46298798  1  0  -0.115258  0  3.756635  0  0  -0.089741  0  3.992303  0  0  -0.102538  0  4.016178  0  0.013744  0  -0.010284  -0.081701  0  3.976498  0
C  C80  1  0.32730147  0.55208850  0.00667225  1  0  0.093957  0  3.707073  0  0  0.053701  0  3.948672  0  0  0.062305  0  3.966553  0  0.473969  0  0.048754  0.047965  0  3.937005  0
C  C81  1  0.77531346  0.44796986  0.49334546  1  0  0.093211  0  3.706455  0  0  0.053596  0  3.948119  0  0  0.062154  0  3.966096  0  0.444596  0  0.048166  0.047877  0  3.936422  0
C  C82  1  0.67270373  0.44791150  0.99332948  1  0  0.093955  0  3.706998  0  0  0.053732  0  3.948584  0  0  0.062334  0  3.966466  0  0.474264  0  0.048784  0.047996  0  3.936919  0
C  C83  1  0.22468587  0.55203105  0.50665575  1  0  0.093225  0  3.706362  0  0  0.053609  0  3.948051  0  0  0.06217  0  3.966023  0  0.444584  0  0.048184  0.047889  0  3.936357  0
C  C84  1  0.15914274  0.58138606  0.91094226  1  0  -0.009549  0  3.674393  0  0  -0.036443  0  3.916217  0  0  -0.03081  0  3.932672  0  -0.123294  0  -0.052509  -0.039804  0  3.905034  0
C  C85  1  0.57787767  0.41863856  0.58908119  1  0  -0.010379  0  3.674375  0  0  -0.036882  0  3.916081  0  0  -0.031192  0  3.932591  0  -0.049236  0  -0.053275  -0.04025  0  3.904894  0
C  C86  1  0.84086049  0.41861211  0.08905933  1  0  -0.009597  0  3.674436  0  0  -0.036547  0  3.916288  0  0  -0.030915  0  3.932741  0  -0.123214  0  -0.052583  -0.039906  0  3.905102  0
C  C87  1  0.42212272  0.58136235  0.41092062  1  0  -0.010424  0  3.674488  0  0  -0.036933  0  3.916166  0  0  -0.031245  0  3.932681  0  -0.049401  0  -0.053273  -0.040283  0  3.904984  0
C  C88  1  0.11547795  0.38428435  0.95026186  1  0  0.139232  0  3.65507  0  0  0.105607  0  3.898499  0  0  0.114354  0  3.916661  0  0.432105  0  0.054109  0.099985  0  3.886044  0
C  C89  1  0.73121976  0.61573206  0.54972919  1  0  0.138766  0  3.655436  0  0  0.105146  0  3.899789  0  0  0.11391  0  3.917976  0  0.463698  0  0.05431  0.099507  0  3.887437  0
C  C90  1  0.88452468  0.61571473  0.04974041  1  0  0.139211  0  3.655031  0  0  0.105553  0  3.89846  0  0  0.1143  0  3.916622  0  0.432146  0  0.054093  0.099931  0  3.886005  0
C  C91  1  0.26878168  0.38426885  0.45027262  1  0  0.138749  0  3.65541  0  0  0.105112  0  3.899776  0  0  0.113874  0  3.917965  0  0.463928  0  0.054298  0.099481  0  3.887416  0
C  C92  1  0.07260239  0.45607418  0.90353574  1  0  -0.120692  0  3.742492  0  0  -0.129739  0  3.991694  0  0  -0.13892  0  4.015933  0  -0.014983  0  -0.08163  -0.123913  0  3.975415  0
C  C93  1  0.61657034  0.54394861  0.59647918  1  0  -0.120045  0  3.741197  0  0  -0.129704  0  3.990165  0  0  -0.138879  0  4.014384  0  -0.019224  0  -0.081567  -0.123874  0  3.973819  0
C  C94  1  0.92739919  0.54392490  0.09646593  1  0  -0.120639  0  3.742535  0  0  -0.129688  0  3.991769  0  0  -0.138867  0  4.016009  0  -0.015012  0  -0.081591  -0.123861  0  3.97549  0
C  C95  1  0.38343004  0.45605229  0.40352263  1  0  -0.120062  0  3.741294  0  0  -0.129693  0  3.990248  0  0  -0.138876  0  4.014478  0  -0.019446  0  -0.081567  -0.123863  0  3.973893  0
N  N96  1  0.06359787  0.74284317  0.30776388  1  0  -0.295584  0  3.375733  0  0  -0.206664  0  3.662499  0  0  -0.224778  0  3.677719  0  -1.185242  0  -0.34929  -0.194321  0  3.651836  0
N  N97  1  0.32049087  0.25708478  0.19225017  1  0  -0.297521  0  3.375893  0  0  -0.208111  0  3.662825  0  0  -0.226273  0  3.678077  0  -1.196662  0  -0.349883  -0.195743  0  3.652189  0
N  N98  1  0.93640311  0.25715682  0.69223846  1  0  -0.295568  0  3.375834  0  0  -0.206669  0  3.662646  0  0  -0.224779  0  3.677861  0  -1.185205  0  -0.349275  -0.194326  0  3.651982  0
N  N99  1  0.67951012  0.74291521  0.80775097  1  0  -0.29751  0  3.375846  0  0  -0.208103  0  3.662795  0  0  -0.226265  0  3.678042  0  -1.196729  0  -0.349882  -0.195734  0  3.652159  0
N  N100  1  0.24019168  0.43164632  0.00170505  1  0  -0.294128  0  3.367605  0  0  -0.200322  0  3.645934  0  0  -0.221127  0  3.662741  0  -1.183967  0  -0.346795  -0.186287  0  3.634094  0
N  N101  1  0.80862569  0.56839471  0.49833228  1  0  -0.292885  0  3.368354  0  0  -0.19966  0  3.647128  0  0  -0.220475  0  3.663944  0  -1.196027  0  -0.3465  -0.185591  0  3.635189  0
N  N102  1  0.75981096  0.56835276  0.99829601  1  0  -0.294161  0  3.367608  0  0  -0.200358  0  3.645946  0  0  -0.221164  0  3.662754  0  -1.183988  0  -0.346819  -0.186321  0  3.634106  0
N  N103  1  0.19137424  0.43160528  0.50166886  1  0  -0.292864  0  3.368147  0  0  -0.199625  0  3.646914  0  0  -0.220439  0  3.663729  0  -1.196036  0  -0.3465  -0.185556  0  3.634974  0
O  O104  1  0.21115579  0.87866869  0.80847435  1  0  -0.6172  0  2.025959  0  0  -0.568463  0  2.270262  0  0  -0.594024  0  2.259932  0  -1.176497  0  -0.344565  -0.5505  0  2.276741  0
O  O105  1  0.33259553  0.12137143  0.69159228  1  0  -0.616899  0  2.026381  0  0  -0.568236  0  2.270799  0  0  -0.59378  0  2.260517  0  -1.17726  0  -0.344316  -0.550265  0  2.277254  0
O  O106  1  0.78882771  0.12132584  0.19152156  1  0  -0.617155  0  2.026468  0  0  -0.56837  0  2.270769  0  0  -0.593921  0  2.260422  0  -1.176192  0  -0.344534  -0.550426  0  2.277267  0
O  O107  1  0.66739927  0.87862674  0.30840872  1  0  -0.616949  0  2.025711  0  0  -0.568272  0  2.270111  0  0  -0.593828  0  2.259831  0  -1.176921  0  -0.34434  -0.550302  0  2.276572  0
O  O108  1  0.03591129  0.88434545  0.94085488  1  0  -0.630263  0  2.048193  0  0  -0.577943  0  2.302584  0  0  -0.605071  0  2.292247  0  -1.191196  0  -0.3447  -0.559086  0  2.309148  0
O  O109  1  0.15167805  0.11568099  0.55903686  1  0  -0.629851  0  2.048134  0  0  -0.577845  0  2.302727  0  0  -0.604889  0  2.292327  0  -1.185553  0  -0.344563  -0.558793  0  2.309297  0
O  O110  1  0.96410564  0.11565272  0.05913892  1  0  -0.630222  0  2.048741  0  0  -0.577912  0  2.30315  0  0  -0.605035  0  2.292807  0  -1.191539  0  -0.344667  -0.559066  0  2.309719  0
O  O111  1  0.84831222  0.88431444  0.44096093  1  0  -0.629917  0  2.047772  0  0  -0.577914  0  2.302421  0  0  -0.60495  0  2.291985  0  -1.185369  0  -0.344587  -0.558858  0  2.308985  0
O  O112  1  0.25698556  0.98628457  0.07387601  1  0  -0.676709  0  2.031217  0  0  -0.619091  0  2.280429  0  0  -0.648963  0  2.272677  0  -1.202101  0  -0.34414  -0.598216  0  2.285105  0
O  O113  1  0.27072255  0.01344549  0.42609011  1  0  -0.676157  0  2.032403  0  0  -0.618722  0  2.281791  0  0  -0.648494  0  2.273971  0  -1.193015  0  -0.343751  -0.597897  0  2.286606  0
O  O114  1  0.74300864  0.01371451  0.92611846  1  0  -0.676585  0  2.031638  0  0  -0.61898  0  2.2809  0  0  -0.648851  0  2.273145  0  -1.202322  0  -0.344023  -0.598119  0  2.28558  0
O  O115  1  0.72927738  0.98655450  0.57390743  1  0  -0.676107  0  2.03224  0  0  -0.618711  0  2.281588  0  0  -0.648492  0  2.27377  0  -1.193466  0  -0.34379  -0.597891  0  2.286405  0
O  O116  1  0.17919246  0.87603412  0.67375711  1  0  -0.632599  0  2.003362  0  0  -0.583139  0  2.243121  0  0  -0.608444  0  2.231805  0  -1.192  0  -0.36252  -0.565315  0  2.250318  0
O  O117  1  0.30317080  0.12405433  0.82629833  1  0  -0.632818  0  2.003707  0  0  -0.583161  0  2.24328  0  0  -0.608491  0  2.231961  0  -1.193697  0  -0.362152  -0.565352  0  2.250505  0
O  O118  1  0.82079862  0.12397134  0.32623906  1  0  -0.632645  0  2.002807  0  0  -0.583161  0  2.242555  0  0  -0.60848  0  2.231245  0  -1.191711  0  -0.362515  -0.565332  0  2.249751  0
O  O119  1  0.69682689  0.87594749  0.17370295  1  0  -0.632747  0  2.004352  0  0  -0.583094  0  2.243948  0  0  -0.608421  0  2.232627  0  -1.194009  0  -0.362138  -0.565295  0  2.251174  0
O  O120  1  0.46357704  0.96114177  0.12193456  1  0  -0.70206  0  2.08157  0  0  -0.641258  0  2.338507  0  0  -0.672072  0  2.329944  0  -1.217682  0  -0.362648  -0.619763  0  2.343822  0
O  O121  1  0.50263631  0.03920932  0.37799410  1  0  -0.701568  0  2.08033  0  0  -0.640666  0  2.337167  0  0  -0.671483  0  2.328749  0  -1.21586  0  -0.362384  -0.619047  0  2.342341  0
O  O122  1  0.53641158  0.03885458  0.87806450  1  0  -0.702202  0  2.080831  0  0  -0.641381  0  2.337711  0  0  -0.672193  0  2.32915  0  -1.217561  0  -0.362797  -0.619873  0  2.34302  0
O  O123  1  0.49736724  0.96079158  0.62200771  1  0  -0.701311  0  2.080803  0  0  -0.640432  0  2.337591  0  0  -0.671245  0  2.32918  0  -1.216273  0  -0.362258  -0.618818  0  2.342762  0
O  O124  1  0.83927194  0.87155746  0.02015960  1  0  -0.625686  0  2.104811  0  0  -0.555646  0  2.360602  0  0  -0.584641  0  2.349805  0  -1.180041  0  -0.344669  -0.535323  0  2.367426  0
O  O125  1  0.96772058  0.12841518  0.47977525  1  0  -0.625698  0  2.104641  0  0  -0.555392  0  2.359926  0  0  -0.584408  0  2.349189  0  -1.175652  0  -0.344732  -0.534992  0  2.366687  0
O  O126  1  0.16074744  0.12844983  0.97983252  1  0  -0.625892  0  2.103814  0  0  -0.555876  0  2.3596  0  0  -0.584876  0  2.348802  0  -1.179958  0  -0.344773  -0.535546  0  2.366429  0
O  O127  1  0.03227121  0.87158117  0.52022560  1  0  -0.625696  0  2.104904  0  0  -0.555359  0  2.360166  0  0  -0.584371  0  2.349429  0  -1.175662  0  -0.344653  -0.534967  0  2.366933  0
O  O128  1  0.32480902  0.83341783  0.95581870  1  0  -0.68104  0  2.087061  0  0  -0.619205  0  2.345661  0  0  -0.648957  0  2.334715  0  -1.206766  0  -0.361289  -0.598169  0  2.352298  0
O  O129  1  0.49176259  0.16648823  0.54422419  1  0  -0.681479  0  2.087816  0  0  -0.619825  0  2.346343  0  0  -0.649624  0  2.3354  0  -1.216347  0  -0.361715  -0.598882  0  2.353203  0
O  O130  1  0.67518491  0.16658490  0.04417546  1  0  -0.680803  0  2.087893  0  0  -0.618922  0  2.346543  0  0  -0.648673  0  2.335599  0  -1.206987  0  -0.361108  -0.59789  0  2.35316  0
O  O131  1  0.50824218  0.83351723  0.45577438  1  0  -0.681525  0  2.087234  0  0  -0.619915  0  2.345731  0  0  -0.649725  0  2.334788  0  -1.216276  0  -0.361778  -0.598968  0  2.352588  0
O  O132  1  0.52292150  0.79770667  0.00531518  1  0  -0.67782  0  2.041091  0  0  -0.616667  0  2.301432  0  0  -0.6458  0  2.288995  0  -1.199582  0  -0.350355  -0.596231  0  2.309316  0
O  O133  1  0.72556674  0.20245655  0.49465684  1  0  -0.67887  0  2.0411  0  0  -0.617904  0  2.30149  0  0  -0.647032  0  2.289033  0  -1.19537  0  -0.351121  -0.597493  0  2.309474  0
O  O134  1  0.47707211  0.20229332  0.99468176  1  0  -0.677952  0  2.040388  0  0  -0.616772  0  2.300732  0  0  -0.645908  0  2.288301  0  -1.199178  0  -0.350387  -0.596324  0  2.308612  0
O  O135  1  0.27443544  0.79754162  0.50534056  1  0  -0.678866  0  2.041438  0  0  -0.61793  0  2.301776  0  0  -0.647049  0  2.289317  0  -1.195883  0  -0.351113  -0.597523  0  2.309761  0
