# generated using pymatgen
data_ZnH4(C3O2)3
_symmetry_space_group_name_H-M   'P 1'
_cell_length_a   13.72958797
_cell_length_b   19.66463932
_cell_length_c   19.66460883
_cell_angle_alpha   89.99791951
_cell_angle_beta   89.99991554
_cell_angle_gamma   89.99998122
_symmetry_Int_Tables_number   1
_chemical_formula_structural   ZnH4(C3O2)3
_chemical_formula_sum   'Zn16 H64 C144 O96'
_cell_volume   5309.19651796
_cell_formula_units_Z   16
loop_
 _symmetry_equiv_pos_site_id
 _symmetry_equiv_pos_as_xyz
  1  'x, y, z'
loop_
 _atom_site_type_symbol
 _atom_site_label
 _atom_site_symmetry_multiplicity
 _atom_site_fract_x
 _atom_site_fract_y
 _atom_site_fract_z
 _atom_site_occupancy
 _atom_site_pbe_bader_charge
 _atom_site_pbe_bader_spin_density
 _atom_site_pbe_cm5_charge
 _atom_site_pbe_ddec_charge
 _atom_site_pbe_ddec_spin_density
 _atom_site_pbe_ddec_sum_bond_order
 _atom_site_pbe_magmom
Zn  Zn0  1  0.37992983  0.98957840  0.46722785  1  1.380689  0  0.694611  0.960112  0  2.27505  0
Zn  Zn1  1  0.87992533  0.01042469  0.53277121  1  1.380721  0  0.694671  0.960178  0  2.274986  0
Zn  Zn2  1  0.12991889  0.03275753  0.48957836  1  1.380635  0  0.69469  0.960108  0  2.274994  0
Zn  Zn3  1  0.62991836  0.96724664  0.51042247  1  1.380726  0  0.694689  0.960293  0  2.27484  0
Zn  Zn4  1  0.37007843  0.51042451  0.96724345  1  1.380734  0  0.694673  0.960135  0  2.274982  0
Zn  Zn5  1  0.87008131  0.48957554  0.03275918  1  1.380601  0  0.694681  0.960168  0  2.274941  0
Zn  Zn6  1  0.62007281  0.46722979  0.98957559  1  1.380659  0  0.69459  0.960028  0  2.27514  0
Zn  Zn7  1  0.12007412  0.53276980  0.01042475  1  1.380669  0  0.694626  0.960103  0  2.275018  0
Zn  Zn8  1  0.00000010  0.48787550  0.48787829  1  1.33956  0  0.675382  0.928252  0  2.192057  0
Zn  Zn9  1  0.49999759  0.51212564  0.51212166  1  1.339602  0  0.675423  0.928314  0  2.192091  0
Zn  Zn10  1  0.74999451  0.01211798  0.98787971  1  1.339562  0  0.675398  0.928394  0  2.191951  0
Zn  Zn11  1  0.25000216  0.98787955  0.01211846  1  1.339624  0  0.675409  0.928392  0  2.192013  0
Zn  Zn12  1  0.25000251  0.53252401  0.46747624  1  1.409638  0  0.712518  0.994335  0  2.319697  0
Zn  Zn13  1  0.74999999  0.46747708  0.53252193  1  1.409595  0  0.712495  0.994384  0  2.319693  0
Zn  Zn14  1  0.00000433  0.03253141  0.03253146  1  1.40932  0  0.712488  0.994369  0  2.319579  0
Zn  Zn15  1  0.49999846  0.96746770  0.96746799  1  1.409301  0  0.712536  0.994418  0  2.319614  0
H  H16  1  0.58831153  0.91569616  0.15127365  1  0.127401  0  0.110025  0.129296  0  0.997075  0
H  H17  1  0.65431703  0.90649527  0.26890490  1  0.138069  0  0.110783  0.12077  0  0.9955  0
H  H18  1  0.40204134  0.67446006  0.40693132  1  0.093702  0  0.12656  0.082971  0  0.937159  0
H  H19  1  0.40086932  0.66976417  0.49914529  1  0.132698  0  0.121709  0.079236  0  0.980117  0
H  H20  1  0.28435414  0.06674607  0.31377452  1  0.086112  0  0.117623  0.066406  0  0.952157  0
H  H21  1  0.96148847  0.73586369  0.48670317  1  0.102824  0  0.10457  0.114028  0  1.028311  0
H  H22  1  0.03367036  0.85162172  0.49299916  1  0.154622  0  0.106629  0.129147  0  1.02167  0
H  H23  1  0.53981054  0.50830338  0.82932965  1  0.148805  0  0.127543  0.091467  0  0.979617  0
H  H24  1  0.08831273  0.08430344  0.84872316  1  0.127445  0  0.110036  0.1293  0  0.997086  0
H  H25  1  0.15431629  0.09350330  0.73109133  1  0.138098  0  0.110765  0.120734  0  0.995452  0
H  H26  1  0.90204239  0.32554049  0.59306772  1  0.093715  0  0.126568  0.083016  0  0.937156  0
H  H27  1  0.90086838  0.33023841  0.50085324  1  0.132657  0  0.121731  0.079312  0  0.980035  0
H  H28  1  0.78434889  0.93325552  0.68622208  1  0.086175  0  0.117658  0.066529  0  0.95215  0
H  H29  1  0.46148666  0.26413735  0.51329681  1  0.102797  0  0.104587  0.114086  0  1.028271  0
H  H30  1  0.53366949  0.14837739  0.50699873  1  0.154606  0  0.106617  0.129089  0  1.021735  0
H  H31  1  0.03981080  0.49169674  0.17067078  1  0.148813  0  0.127554  0.091485  0  0.9796  0
H  H32  1  0.33831990  0.34872396  0.41572106  1  0.127419  0  0.110021  0.129346  0  0.997272  0
H  H33  1  0.40432338  0.23109267  0.40651271  1  0.138069  0  0.110742  0.12071  0  0.995361  0
H  H34  1  0.15201528  0.09310099  0.17447462  1  0.093432  0  0.126525  0.083028  0  0.937042  0
H  H35  1  0.15087398  0.00088682  0.16975919  1  0.130559  0  0.121782  0.079263  0  0.980037  0
H  H36  1  0.03429828  0.18621941  0.56670912  1  0.087339  0  0.117484  0.06622  0  0.95167  0
H  H37  1  0.71148505  0.01326260  0.23586831  1  0.102679  0  0.104526  0.114018  0  1.028028  0
H  H38  1  0.78366481  0.00698679  0.35162914  1  0.154321  0  0.106627  0.12913  0  1.021868  0
H  H39  1  0.28979513  0.67068692  0.00825379  1  0.148183  0  0.127595  0.091606  0  0.97945  0
H  H40  1  0.83832009  0.65127915  0.58427549  1  0.127484  0  0.110022  0.129331  0  0.997363  0
H  H41  1  0.90431985  0.76890991  0.59348683  1  0.13811  0  0.110737  0.120648  0  0.995377  0
H  H42  1  0.65201848  0.90689910  0.82552416  1  0.093405  0  0.126512  0.083019  0  0.937087  0
H  H43  1  0.65087203  0.99911225  0.83023857  1  0.130645  0  0.121767  0.079313  0  0.980045  0
H  H44  1  0.53429944  0.81378223  0.43329080  1  0.087319  0  0.117532  0.066302  0  0.951692  0
H  H45  1  0.21148674  0.98673697  0.76412990  1  0.102742  0  0.104512  0.113972  0  1.028093  0
H  H46  1  0.28366674  0.99301531  0.64836950  1  0.154261  0  0.106615  0.129102  0  1.021905  0
H  H47  1  0.78978878  0.32930958  0.99174739  1  0.14831  0  0.127587  0.091541  0  0.979408  0
H  H48  1  0.16168138  0.58427754  0.65127508  1  0.127409  0  0.110039  0.129391  0  0.997193  0
H  H49  1  0.09567854  0.59348636  0.76890658  1  0.138042  0  0.110722  0.120625  0  0.995415  0
H  H50  1  0.34798307  0.82552419  0.90690041  1  0.093446  0  0.126521  0.083028  0  0.937056  0
H  H51  1  0.34912722  0.83024012  0.99911370  1  0.130564  0  0.121809  0.07934  0  0.980013  0
H  H52  1  0.46570056  0.43329136  0.81378230  1  0.087343  0  0.117535  0.066288  0  0.951661  0
H  H53  1  0.78851334  0.76413077  0.98673812  1  0.102722  0  0.104502  0.113978  0  1.028073  0
H  H54  1  0.71633202  0.64837212  0.99301448  1  0.154368  0  0.106648  0.129212  0  1.021794  0
H  H55  1  0.21021039  0.99174674  0.32931058  1  0.148318  0  0.127579  0.091554  0  0.979319  0
H  H56  1  0.66168145  0.41572204  0.34872419  1  0.127412  0  0.110042  0.129382  0  0.99725  0
H  H57  1  0.59567886  0.40651222  0.23109327  1  0.138106  0  0.110761  0.120715  0  0.995379  0
H  H58  1  0.84798379  0.17447281  0.09310224  1  0.093367  0  0.126533  0.082974  0  0.937051  0
H  H59  1  0.84912886  0.16976044  0.00088895  1  0.130649  0  0.121738  0.079224  0  0.980016  0
H  H60  1  0.96569944  0.56670815  0.18621870  1  0.087345  0  0.117535  0.066257  0  0.951709  0
H  H61  1  0.28851332  0.23586828  0.01326102  1  0.102733  0  0.104501  0.113984  0  1.028064  0
H  H62  1  0.21633197  0.35162898  0.00698678  1  0.154369  0  0.106611  0.129142  0  1.021761  0
H  H63  1  0.71020560  0.00825741  0.67068763  1  0.148191  0  0.127564  0.091566  0  0.979475  0
H  H64  1  0.41168652  0.15127672  0.91569692  1  0.127433  0  0.11002  0.129316  0  0.997078  0
H  H65  1  0.34568306  0.26890783  0.90649657  1  0.138095  0  0.110788  0.120773  0  0.99546  0
H  H66  1  0.59796033  0.40693184  0.67445830  1  0.093741  0  0.126582  0.082997  0  0.937204  0
H  H67  1  0.59913223  0.49914567  0.66976291  1  0.132647  0  0.121731  0.079283  0  0.980058  0
H  H68  1  0.71564624  0.31377614  0.06674736  1  0.086068  0  0.117627  0.06641  0  0.952146  0
H  H69  1  0.03851228  0.48670189  0.73586340  1  0.1028  0  0.104573  0.114055  0  1.028287  0
H  H70  1  0.96633024  0.49299779  0.85162153  1  0.154665  0  0.106623  0.12915  0  1.021676  0
H  H71  1  0.46018861  0.82932909  0.50830349  1  0.148743  0  0.127533  0.091472  0  0.979595  0
H  H72  1  0.91168840  0.84872280  0.08430006  1  0.127418  0  0.110054  0.129353  0  0.997077  0
H  H73  1  0.84568425  0.73109272  0.09350150  1  0.138127  0  0.110768  0.120765  0  0.995463  0
H  H74  1  0.09795730  0.59306674  0.32554053  1  0.093738  0  0.126573  0.082988  0  0.937149  0
H  H75  1  0.09913361  0.50085342  0.33023694  1  0.132633  0  0.121704  0.079278  0  0.980049  0
H  H76  1  0.21564772  0.68622293  0.93325491  1  0.086132  0  0.117677  0.066528  0  0.95214  0
H  H77  1  0.53851176  0.51329619  0.26413601  1  0.102831  0  0.104574  0.114037  0  1.028287  0
H  H78  1  0.46632836  0.50700070  0.14837795  1  0.154631  0  0.106587  0.129063  0  1.021806  0
H  H79  1  0.96018922  0.17067195  0.49169599  1  0.148697  0  0.127565  0.091486  0  0.979677  0
C  C80  1  0.56933474  0.94547683  0.38588394  1  1.487839  0  0.213186  0.590654  0  4.160998  0
C  C81  1  0.22067524  0.88957578  0.48351586  1  1.596036  0  0.224257  0.627363  0  4.161268  0
C  C82  1  0.41291008  0.95974452  0.10979284  1  1.608218  0  0.227745  0.630997  0  4.155161  0
C  C83  1  0.39107608  0.96801186  0.23823309  1  0.418828  0  0.085249  0.147937  0  4.026566  0
C  C84  1  0.44690302  0.95131336  0.18154980  1  0.062338  0  -0.018527  -0.117425  0  3.953665  0
C  C85  1  0.42931241  0.96350816  0.30412106  1  0.402748  0  0.083712  0.151152  0  4.022559  0
C  C86  1  0.54273764  0.92778001  0.19490310  1  -0.024857  0  -0.086224  -0.094347  0  3.982753  0
C  C87  1  0.52399041  0.94284289  0.31763958  1  0.102159  0  -0.024852  -0.126322  0  4.008868  0
C  C88  1  0.57979768  0.92331293  0.26015643  1  -0.022967  0  -0.089365  -0.108168  0  4.00609  0
C  C89  1  0.18159543  0.81879453  0.47763858  1  -0.013999  0  -0.021715  -0.120738  0  3.963314  0
C  C90  1  0.19680715  0.69621028  0.46344982  1  0.340153  0  0.079635  0.146832  0  4.031442  0
C  C91  1  0.36053239  0.68510066  0.45341923  1  0.827012  0  0.044695  0.190281  0  3.768253  0
C  C92  1  0.09789084  0.68425924  0.47239967  1  0.074413  0  -0.026844  -0.130844  0  4.010205  0
C  C93  1  0.05287421  0.61581193  0.47729399  1  1.525321  0  0.211599  0.592992  0  4.155348  0
C  C94  1  0.23831529  0.76122286  0.46617128  1  0.552515  0  0.083203  0.145711  0  4.030731  0
C  C95  1  0.28003502  0.01081070  0.31066742  1  0.831386  0  0.042431  0.185169  0  3.784374  0
C  C96  1  0.03965091  0.74314346  0.48114734  1  -0.089429  0  -0.091728  -0.103068  0  3.997306  0
C  C97  1  0.07987788  0.80754276  0.48393695  1  0.062658  0  -0.090303  -0.10057  0  3.977363  0
C  C98  1  0.06933208  0.05452379  0.61411188  1  1.487598  0  0.213132  0.590689  0  4.160861  0
C  C99  1  0.72067510  0.11042531  0.51648387  1  1.595968  0  0.224188  0.627173  0  4.161225  0
C  C100  1  0.91291283  0.04025399  0.89020568  1  1.608908  0  0.227722  0.631005  0  4.155059  0
C  C101  1  0.89107181  0.03198767  0.76176392  1  0.418746  0  0.085246  0.147993  0  4.026593  0
C  C102  1  0.94690154  0.04868666  0.81844817  1  0.062326  0  -0.018478  -0.117244  0  3.953573  0
C  C103  1  0.92930974  0.03649390  0.69587642  1  0.402877  0  0.083706  0.151075  0  4.022594  0
C  C104  1  0.04273603  0.07221960  0.80509528  1  -0.024761  0  -0.086224  -0.094401  0  3.982794  0
C  C105  1  0.02398833  0.05715926  0.68235679  1  0.102156  0  -0.02473  -0.12622  0  4.009028  0
C  C106  1  0.07979548  0.07668718  0.73984039  1  -0.022933  0  -0.08942  -0.108198  0  4.006182  0
C  C107  1  0.68159379  0.18120658  0.52236068  1  -0.014228  0  -0.021727  -0.120734  0  3.963366  0
C  C108  1  0.69680542  0.30378828  0.53654942  1  0.340212  0  0.079612  0.14679  0  4.031505  0
C  C109  1  0.86053209  0.31489990  0.54658035  1  0.827104  0  0.044636  0.190121  0  3.768391  0
C  C110  1  0.59788767  0.31574138  0.52759967  1  0.074463  0  -0.026859  -0.130866  0  4.010177  0
C  C111  1  0.55287101  0.38418920  0.52270743  1  1.525065  0  0.211541  0.592915  0  4.155308  0
C  C112  1  0.73831578  0.23877619  0.53382691  1  0.552634  0  0.083265  0.145838  0  4.030942  0
C  C113  1  0.78002973  0.98919140  0.68932970  1  0.832166  0  0.042312  0.184873  0  3.784797  0
C  C114  1  0.53964924  0.25685717  0.51885206  1  -0.089134  0  -0.091718  -0.10306  0  3.997279  0
C  C115  1  0.57987843  0.19245786  0.51606241  1  0.062317  0  -0.090271  -0.100506  0  3.977396  0
C  C116  1  0.31933101  0.11411144  0.44548184  1  1.488119  0  0.2131  0.590722  0  4.160761  0
C  C117  1  0.97067037  0.01647468  0.38958590  1  1.595115  0  0.224374  0.627324  0  4.161144  0
C  C118  1  0.16291254  0.39019813  0.45974162  1  1.608639  0  0.227615  0.630959  0  4.155235  0
C  C119  1  0.14105903  0.26175932  0.46798465  1  0.418597  0  0.085338  0.148093  0  4.027065  0
C  C120  1  0.19688955  0.31844309  0.45130337  1  0.061623  0  -0.018411  -0.117102  0  3.953684  0
C  C121  1  0.17930346  0.19587566  0.46349553  1  0.402751  0  0.083775  0.151094  0  4.022437  0
C  C122  1  0.29274169  0.30509314  0.42779026  1  -0.024319  0  -0.086245  -0.094584  0  3.98312  0
C  C123  1  0.27398732  0.18235225  0.44283526  1  0.101945  0  -0.024789  -0.126221  0  4.009131  0
C  C124  1  0.32979599  0.23983802  0.42332248  1  -0.02278  0  -0.089355  -0.108135  0  4.006378  0
C  C125  1  0.93158697  0.02234743  0.31880129  1  -0.013887  0  -0.021767  -0.120857  0  3.963236  0
C  C126  1  0.94680314  0.03654823  0.19621786  1  0.340867  0  0.07967  0.147001  0  4.031607  0
C  C127  1  0.11052168  0.04660160  0.18510575  1  0.829235  0  0.044624  0.190285  0  3.768346  0
C  C128  1  0.84788759  0.02759177  0.18425902  1  0.074572  0  -0.026833  -0.131141  0  4.01011  0
C  C129  1  0.80287684  0.02269133  0.11581638  1  1.524226  0  0.21169  0.59338  0  4.155421  0
C  C130  1  0.98830614  0.03381931  0.26123011  1  0.552222  0  0.083184  0.145725  0  4.031019  0
C  C131  1  0.03000469  0.18931278  0.51076847  1  0.830158  0  0.042452  0.185507  0  3.784122  0
C  C132  1  0.78964543  0.01882778  0.24314520  1  -0.090134  0  -0.091636  -0.102766  0  3.996623  0
C  C133  1  0.82986871  0.01604038  0.30754723  1  0.063138  0  -0.090331  -0.100677  0  3.977473  0
C  C134  1  0.81932460  0.88589065  0.55451982  1  1.487754  0  0.213197  0.590909  0  4.160598  0
C  C135  1  0.47067385  0.98352940  0.61041103  1  1.595675  0  0.224409  0.627356  0  4.161228  0
C  C136  1  0.66290993  0.60980298  0.54025766  1  1.608651  0  0.227789  0.631125  0  4.155105  0
C  C137  1  0.64105711  0.73824281  0.53201465  1  0.418707  0  0.08537  0.148145  0  4.027005  0
C  C138  1  0.69688835  0.68155801  0.54869689  1  0.061641  0  -0.018394  -0.117022  0  3.953538  0
C  C139  1  0.67930150  0.80412545  0.53650628  1  0.402799  0  0.083753  0.151331  0  4.022505  0
C  C140  1  0.79274043  0.69490997  0.57220939  1  -0.02426  0  -0.086244  -0.094643  0  3.983176  0
C  C141  1  0.77398530  0.81764883  0.55716543  1  0.101988  0  -0.024813  -0.126367  0  4.009265  0
C  C142  1  0.82979396  0.76016509  0.57667917  1  -0.0228  0  -0.089378  -0.108008  0  4.006365  0
C  C143  1  0.43158811  0.97765413  0.68119568  1  -0.013996  0  -0.021816  -0.120997  0  3.963214  0
C  C144  1  0.44680549  0.96344874  0.80377808  1  0.340711  0  0.079653  0.146998  0  4.031956  0
C  C145  1  0.61052416  0.95339698  0.81488900  1  0.829843  0  0.044535  0.190023  0  3.768397  0
C  C146  1  0.34789209  0.97240522  0.81573803  1  0.074436  0  -0.026941  -0.131466  0  4.010419  0
C  C147  1  0.30288193  0.97730415  0.88418276  1  1.52463  0  0.211777  0.593431  0  4.155408  0
C  C148  1  0.48830935  0.96617918  0.73876680  1  0.552616  0  0.083302  0.145909  0  4.031023  0
C  C149  1  0.53000500  0.81068937  0.48923044  1  0.830136  0  0.04246  0.185666  0  3.783923  0
C  C150  1  0.28964787  0.98117127  0.75685242  1  -0.089868  0  -0.091582  -0.102599  0  3.996509  0
C  C151  1  0.32987274  0.98395967  0.69245086  1  0.063089  0  -0.090275  -0.10058  0  3.977469  0
C  C152  1  0.18067224  0.55451936  0.88589101  1  1.487428  0  0.213185  0.59091  0  4.160822  0
C  C153  1  0.52932570  0.61041484  0.98352715  1  1.595699  0  0.224262  0.627167  0  4.161308  0
C  C154  1  0.33709456  0.54026069  0.60980128  1  1.608637  0  0.227743  0.630956  0  4.155295  0
C  C155  1  0.35894505  0.53201564  0.73824130  1  0.418515  0  0.085327  0.148105  0  4.02716  0
C  C156  1  0.30311313  0.54869534  0.68155747  1  0.061746  0  -0.018408  -0.117035  0  3.9536  0
C  C157  1  0.32069692  0.53650474  0.80412407  1  0.402749  0  0.083752  0.151078  0  4.022353  0
C  C158  1  0.20726100  0.57220787  0.69490646  1  -0.024251  0  -0.086342  -0.094749  0  3.983041  0
C  C159  1  0.22601234  0.55716291  0.81764905  1  0.102055  0  -0.024806  -0.126367  0  4.009198  0
C  C160  1  0.17020446  0.57667664  0.76016119  1  -0.022675  0  -0.089293  -0.107912  0  4.006256  0
C  C161  1  0.56841135  0.68119783  0.97765438  1  -0.013952  0  -0.021757  -0.120787  0  3.9631  0
C  C162  1  0.55319602  0.80377903  0.96345102  1  0.340742  0  0.079703  0.14703  0  4.031676  0
C  C163  1  0.38947662  0.81489258  0.95339883  1  0.829299  0  0.044543  0.190128  0  3.768359  0
C  C164  1  0.65210867  0.81573941  0.97240745  1  0.074559  0  -0.02689  -0.131169  0  4.010219  0
C  C165  1  0.69711728  0.88418349  0.97730687  1  1.524586  0  0.21172  0.593291  0  4.155424  0
C  C166  1  0.51169078  0.73876890  0.96618047  1  0.552621  0  0.083266  0.145816  0  4.03095  0
C  C167  1  0.46999493  0.48923142  0.81068842  1  0.830032  0  0.042469  0.185554  0  3.783992  0
C  C168  1  0.71035222  0.75685487  0.98117398  1  -0.09002  0  -0.091618  -0.102719  0  3.996575  0
C  C169  1  0.67012743  0.69245243  0.98396140  1  0.063016  0  -0.090335  -0.100787  0  3.977398  0
C  C170  1  0.68066915  0.44548174  0.11411384  1  1.487979  0  0.213108  0.590838  0  4.161069  0
C  C171  1  0.02932706  0.38958477  0.01647633  1  1.595639  0  0.224395  0.62743  0  4.161077  0
C  C172  1  0.83709015  0.45974038  0.39019883  1  1.608681  0  0.227682  0.631  0  4.155173  0
C  C173  1  0.85894309  0.46798339  0.26175828  1  0.418616  0  0.085337  0.148102  0  4.027047  0
C  C174  1  0.80311252  0.45130268  0.31844370  1  0.061588  0  -0.018411  -0.117035  0  3.953486  0
C  C175  1  0.82069948  0.46349684  0.19587505  1  0.402714  0  0.083777  0.151134  0  4.022418  0
C  C176  1  0.70726042  0.42779017  0.30509379  1  -0.024289  0  -0.086344  -0.094729  0  3.983074  0
C  C177  1  0.72601348  0.44283565  0.18235270  1  0.102022  0  -0.024781  -0.126217  0  4.00909  0
C  C178  1  0.67020403  0.42332243  0.23983910  1  -0.022771  0  -0.089347  -0.108103  0  4.006336  0
C  C179  1  0.06841201  0.31880076  0.02234804  1  -0.01388  0  -0.021826  -0.120956  0  3.963406  0
C  C180  1  0.05319962  0.19621956  0.03655193  1  0.340787  0  0.079668  0.146995  0  4.031755  0
C  C181  1  0.88947962  0.18510644  0.04660479  1  0.829249  0  0.044677  0.190407  0  3.768273  0
C  C182  1  0.15211083  0.18426068  0.02759184  1  0.074504  0  -0.026881  -0.131133  0  4.010379  0
C  C183  1  0.19712167  0.11581761  0.02269339  1  1.524543  0  0.211719  0.593308  0  4.155545  0
C  C184  1  0.01169581  0.26123021  0.03382252  1  0.552183  0  0.083252  0.145734  0  4.031199  0
C  C185  1  0.96999383  0.51076910  0.18931156  1  0.830037  0  0.042412  0.185499  0  3.784116  0
C  C186  1  0.21035074  0.24314521  0.01882677  1  -0.090044  0  -0.091625  -0.102764  0  3.996805  0
C  C187  1  0.17012883  0.30754665  0.01604194  1  0.063012  0  -0.090266  -0.100634  0  3.977437  0
C  C188  1  0.43066661  0.38588460  0.94547814  1  1.48795  0  0.213143  0.590627  0  4.16095  0
C  C189  1  0.77932241  0.48351564  0.88957526  1  1.596064  0  0.224334  0.627444  0  4.161321  0
C  C190  1  0.58708504  0.10979281  0.95974830  1  1.608369  0  0.227699  0.630962  0  4.155087  0
C  C191  1  0.60892251  0.23823336  0.96801614  1  0.418808  0  0.085251  0.147967  0  4.026714  0
C  C192  1  0.55309567  0.18155121  0.95131562  1  0.062329  0  -0.018465  -0.117144  0  3.953598  0
C  C193  1  0.57068538  0.30412074  0.96350890  1  0.402755  0  0.083659  0.150978  0  4.022676  0
C  C194  1  0.45726324  0.19490455  0.92778229  1  -0.024879  0  -0.086219  -0.094499  0  3.982856  0
C  C195  1  0.47601103  0.31764134  0.94284264  1  0.102079  0  -0.024827  -0.126244  0  4.008907  0
C  C196  1  0.42020385  0.26015781  0.92331422  1  -0.022867  0  -0.089402  -0.108176  0  4.006109  0
C  C197  1  0.81840596  0.47763682  0.81879387  1  -0.013953  0  -0.021723  -0.120813  0  3.963415  0
C  C198  1  0.80319515  0.46344911  0.69621199  1  0.340307  0  0.079582  0.146705  0  4.031496  0
C  C199  1  0.63946993  0.45341915  0.68510092  1  0.827055  0  0.044574  0.190127  0  3.76858  0
C  C200  1  0.90211364  0.47239685  0.68425730  1  0.074301  0  -0.026938  -0.130907  0  4.010253  0
C  C201  1  0.94712890  0.47729215  0.61581240  1  1.525014  0  0.211574  0.592987  0  4.155195  0
C  C202  1  0.76168473  0.46616957  0.76122317  1  0.552408  0  0.08329  0.145876  0  4.030818  0
C  C203  1  0.71996617  0.31066802  0.01081190  1  0.831453  0  0.042364  0.185146  0  3.784436  0
C  C204  1  0.96035130  0.48114600  0.74314209  1  -0.08912  0  -0.0917  -0.103023  0  3.997162  0
C  C205  1  0.92012279  0.48393614  0.80754253  1  0.062263  0  -0.090301  -0.100567  0  3.977281  0
C  C206  1  0.93067012  0.61411289  0.05452594  1  1.487545  0  0.213201  0.590751  0  4.160909  0
C  C207  1  0.27932206  0.51648544  0.11042542  1  1.596085  0  0.224272  0.627258  0  4.161366  0
C  C208  1  0.08709195  0.89020577  0.04025309  1  1.608922  0  0.227777  0.631047  0  4.155204  0
C  C209  1  0.10893095  0.76176268  0.03198777  1  0.418398  0  0.085329  0.148229  0  4.026589  0
C  C210  1  0.05310186  0.81844738  0.04868529  1  0.062564  0  -0.018529  -0.11747  0  3.953709  0
C  C211  1  0.07069092  0.69587632  0.03649352  1  0.403221  0  0.083646  0.150926  0  4.02261  0
C  C212  1  0.95726444  0.80509547  0.07221669  1  -0.024946  0  -0.086221  -0.094396  0  3.982764  0
C  C213  1  0.97601305  0.68235665  0.05715885  1  0.102108  0  -0.024761  -0.126231  0  4.009016  0
C  C214  1  0.92020507  0.73984070  0.07668632  1  -0.02283  0  -0.089439  -0.108229  0  4.006135  0
C  C215  1  0.31840473  0.52236222  0.18120677  1  -0.013987  0  -0.021734  -0.120818  0  3.963407  0
C  C216  1  0.30319438  0.53655196  0.30378714  1  0.340142  0  0.079634  0.146834  0  4.031565  0
C  C217  1  0.13946986  0.54658044  0.31489940  1  0.827132  0  0.044642  0.1902  0  3.768386  0
C  C218  1  0.40210994  0.52759963  0.31574071  1  0.074445  0  -0.026879  -0.130916  0  4.010272  0
C  C219  1  0.44712578  0.52270686  0.38418811  1  1.525452  0  0.211592  0.592946  0  4.1554  0
C  C220  1  0.26168555  0.53382948  0.23877651  1  0.552367  0  0.083217  0.145883  0  4.030963  0
C  C221  1  0.21996971  0.68932952  0.98919037  1  0.832196  0  0.042242  0.184788  0  3.784761  0
C  C222  1  0.46034991  0.51885301  0.25685688  1  -0.089208  0  -0.09173  -0.103071  0  3.997248  0
C  C223  1  0.42012081  0.51606186  0.19245750  1  0.06238  0  -0.090236  -0.100427  0  3.977356  0
O  O224  1  0.51583417  0.96002991  0.43956644  1  -1.166522  0  -0.324262  -0.591911  0  2.470922  0
O  O225  1  0.35859720  0.98172379  0.34999607  1  -1.060173  0  -0.16607  -0.21361  0  2.613661  0
O  O226  1  0.31065829  0.89917040  0.46962774  1  -1.165254  0  -0.318179  -0.564086  0  2.330384  0
O  O227  1  0.15992976  0.93452110  0.50217601  1  -1.184595  0  -0.31576  -0.552301  0  2.361935  0
O  O228  1  0.10628225  0.56123804  0.46535269  1  -1.173729  0  -0.326476  -0.601533  0  2.46336  0
O  O229  1  0.47666879  0.94715472  0.06442523  1  -1.185823  0  -0.319388  -0.565205  0  2.373806  0
O  O230  1  0.29605137  0.98961556  0.24152190  1  -1.014809  0  -0.163752  -0.192323  0  2.462416  0
O  O231  1  0.33707719  0.75647949  0.45610399  1  -1.024044  0  -0.164535  -0.192778  0  2.460103  0
O  O232  1  0.96547259  0.60842722  0.49291054  1  -1.142762  0  -0.288843  -0.494185  0  2.128719  0
O  O233  1  0.26849833  0.64928364  0.45052996  1  -1.053092  0  -0.169149  -0.22298  0  2.629869  0
O  O234  1  0.32520899  0.97835070  0.09994745  1  -1.165311  0  -0.313077  -0.548665  0  2.328256  0
O  O235  1  0.65839640  0.93519833  0.39409121  1  -1.143182  0  -0.290711  -0.502778  0  2.139039  0
O  O236  1  0.01583236  0.03997428  0.56042791  1  -1.166452  0  -0.324387  -0.592024  0  2.470936  0
O  O237  1  0.85859172  0.01828083  0.65000199  1  -1.060304  0  -0.166055  -0.213552  0  2.61368  0
O  O238  1  0.81065958  0.10083322  0.53037088  1  -1.165241  0  -0.318192  -0.564014  0  2.330316  0
O  O239  1  0.65992895  0.06547798  0.49782785  1  -1.18451  0  -0.315724  -0.552233  0  2.362041  0
O  O240  1  0.60628046  0.43876054  0.53464767  1  -1.173726  0  -0.326416  -0.60144  0  2.463425  0
O  O241  1  0.97667580  0.05284377  0.93556965  1  -1.186455  0  -0.319319  -0.565159  0  2.373716  0
O  O242  1  0.79604785  0.01038806  0.75847470  1  -1.015567  0  -0.163709  -0.19228  0  2.462564  0
O  O243  1  0.83707911  0.24352107  0.54389206  1  -1.024063  0  -0.164491  -0.192769  0  2.460192  0
O  O244  1  0.46546782  0.39157128  0.50709249  1  -1.142564  0  -0.288863  -0.494223  0  2.128594  0
O  O245  1  0.76849727  0.35071745  0.54946870  1  -1.053019  0  -0.169187  -0.223048  0  2.629985  0
O  O246  1  0.82521318  0.02164376  0.90005217  1  -1.165341  0  -0.313081  -0.548723  0  2.328049  0
O  O247  1  0.15839594  0.06480075  0.60590401  1  -1.143156  0  -0.290637  -0.502772  0  2.138989  0
O  O248  1  0.26582030  0.06042649  0.46002826  1  -1.166853  0  -0.324359  -0.592005  0  2.470695  0
O  O249  1  0.10858101  0.14999348  0.48170169  1  -1.059356  0  -0.166031  -0.213758  0  2.61361  0
O  O250  1  0.06065762  0.03034469  0.39916830  1  -1.165047  0  -0.318242  -0.563892  0  2.330384  0
O  O251  1  0.90990935  0.99783589  0.43453366  1  -1.184041  0  -0.315813  -0.552379  0  2.361959  0
O  O252  1  0.85627835  0.03465541  0.06124551  1  -1.173425  0  -0.326499  -0.601777  0  2.463665  0
O  O253  1  0.22668649  0.43556608  0.44715978  1  -1.18629  0  -0.319401  -0.565364  0  2.373728  0
O  O254  1  0.04602338  0.25846419  0.48957329  1  -1.015793  0  -0.163759  -0.192407  0  2.462432  0
O  O255  1  0.08706643  0.04389342  0.25648532  1  -1.024119  0  -0.16445  -0.192746  0  2.460249  0
O  O256  1  0.71548239  0.00705580  0.10842424  1  -1.141976  0  -0.288931  -0.494394  0  2.128718  0
O  O257  1  0.01848837  0.04948154  0.14928658  1  -1.052668  0  -0.169236  -0.223209  0  2.630158  0
O  O258  1  0.07521652  0.40004899  0.47835309  1  -1.165076  0  -0.313004  -0.548652  0  2.328292  0
O  O259  1  0.40839269  0.10589890  0.43521069  1  -1.143135  0  -0.290643  -0.502822  0  2.139105  0
O  O260  1  0.76581462  0.93957663  0.53997803  1  -1.166698  0  -0.324471  -0.592184  0  2.470639  0
O  O261  1  0.60858343  0.85000865  0.51829561  1  -1.05971  0  -0.166044  -0.214311  0  2.613857  0
O  O262  1  0.56066054  0.96966255  0.60082854  1  -1.165075  0  -0.318265  -0.563943  0  2.330588  0
O  O263  1  0.40991484  0.00216822  0.56546434  1  -1.184503  0  -0.315823  -0.552352  0  2.362041  0
O  O264  1  0.35628041  0.96534158  0.93875662  1  -1.17333  0  -0.326541  -0.601764  0  2.4635  0
O  O265  1  0.72668387  0.56443451  0.55284045  1  -1.186204  0  -0.319507  -0.56553  0  2.373776  0
O  O266  1  0.54602587  0.74153745  0.51042611  1  -1.015866  0  -0.163787  -0.192445  0  2.462367  0
O  O267  1  0.58706978  0.95610211  0.74350997  1  -1.024333  0  -0.164407  -0.192637  0  2.460133  0
O  O268  1  0.21548818  0.99294022  0.89157651  1  -1.142356  0  -0.28893  -0.494341  0  2.128899  0
O  O269  1  0.51849077  0.95051502  0.85071031  1  -1.053462  0  -0.169222  -0.223098  0  2.630064  0
O  O270  1  0.57521322  0.59994960  0.52164780  1  -1.165223  0  -0.313074  -0.54872  0  2.328293  0
O  O271  1  0.90838625  0.89410164  0.56479189  1  -1.143006  0  -0.290642  -0.502859  0  2.139089  0
O  O272  1  0.23417925  0.53997451  0.93957602  1  -1.166399  0  -0.324415  -0.592141  0  2.470814  0
O  O273  1  0.39141932  0.51830016  0.85000781  1  -1.059481  0  -0.16607  -0.213843  0  2.613564  0
O  O274  1  0.43933686  0.60083344  0.96965829  1  -1.165098  0  -0.318138  -0.563845  0  2.330485  0
O  O275  1  0.59008094  0.56546564  0.00216593  1  -1.184473  0  -0.315801  -0.552263  0  2.362049  0
O  O276  1  0.64371946  0.93875578  0.96534584  1  -1.173241  0  -0.326548  -0.60178  0  2.463639  0
O  O277  1  0.27331993  0.55284298  0.56443431  1  -1.186172  0  -0.319438  -0.565388  0  2.373832  0
O  O278  1  0.45397630  0.51042656  0.74153691  1  -1.015925  0  -0.163766  -0.192453  0  2.462526  0
O  O279  1  0.41293036  0.74351263  0.95610854  1  -1.024223  0  -0.164438  -0.192759  0  2.460242  0
O  O280  1  0.78451100  0.89157464  0.99294239  1  -1.142376  0  -0.288928  -0.494346  0  2.128915  0
O  O281  1  0.48150997  0.85071225  0.95051834  1  -1.053048  0  -0.169247  -0.223182  0  2.630068  0
O  O282  1  0.42479058  0.52165182  0.59994834  1  -1.165255  0  -0.313036  -0.548603  0  2.328432  0
O  O283  1  0.09161056  0.56478995  0.89410054  1  -1.143039  0  -0.290651  -0.502848  0  2.139141  0
O  O284  1  0.73417627  0.46002455  0.06042776  1  -1.166795  0  -0.324323  -0.592054  0  2.470936  0
O  O285  1  0.89141905  0.48170141  0.14999276  1  -1.059417  0  -0.166056  -0.213868  0  2.613747  0
O  O286  1  0.93933833  0.39916863  0.03034578  1  -1.165078  0  -0.318239  -0.563969  0  2.330456  0
O  O287  1  0.09008458  0.43453345  0.99783495  1  -1.184475  0  -0.315811  -0.55236  0  2.361952  0
O  O288  1  0.14372240  0.06124482  0.03465549  1  -1.173427  0  -0.326503  -0.601752  0  2.463682  0
O  O289  1  0.77331543  0.44715912  0.43556638  1  -1.186276  0  -0.319364  -0.56537  0  2.373775  0
O  O290  1  0.95397580  0.48957245  0.25846309  1  -1.015772  0  -0.163749  -0.192406  0  2.462477  0
O  O291  1  0.91293406  0.25648537  0.04390116  1  -1.024123  0  -0.164477  -0.192679  0  2.460195  0
O  O292  1  0.28451470  0.10842644  0.00705828  1  -1.142232  0  -0.288915  -0.494307  0  2.128828  0
O  O293  1  0.98151225  0.14928573  0.04948773  1  -1.052641  0  -0.169248  -0.223281  0  2.630041  0
O  O294  1  0.92478905  0.47835025  0.40005016  1  -1.165212  0  -0.313065  -0.548696  0  2.32831  0
O  O295  1  0.59160749  0.43521016  0.10590542  1  -1.143113  0  -0.290632  -0.502874  0  2.139162  0
O  O296  1  0.48416782  0.43956851  0.96002867  1  -1.166631  0  -0.324319  -0.591941  0  2.471014  0
O  O297  1  0.64140487  0.34999666  0.98172451  1  -1.060131  0  -0.166041  -0.21354  0  2.613548  0
O  O298  1  0.68933718  0.46962862  0.89916741  1  -1.16532  0  -0.318211  -0.564073  0  2.33036  0
O  O299  1  0.84006489  0.50217165  0.93452315  1  -1.184471  0  -0.31581  -0.552355  0  2.362122  0
O  O300  1  0.89372095  0.46535141  0.56123795  1  -1.173731  0  -0.326445  -0.60153  0  2.463369  0
O  O301  1  0.52332496  0.06442684  0.94715648  1  -1.185948  0  -0.319364  -0.565225  0  2.373827  0
O  O302  1  0.70394792  0.24152261  0.98961829  1  -1.014868  0  -0.163709  -0.192343  0  2.462493  0
O  O303  1  0.66292285  0.45610389  0.75647986  1  -1.023976  0  -0.164475  -0.19278  0  2.460178  0
O  O304  1  0.03453269  0.49290671  0.60843029  1  -1.142549  0  -0.288813  -0.494149  0  2.128553  0
O  O305  1  0.73150405  0.45053237  0.64928277  1  -1.053023  0  -0.169132  -0.222947  0  2.630073  0
O  O306  1  0.67478540  0.09994535  0.97835445  1  -1.165308  0  -0.313042  -0.548663  0  2.328087  0
O  O307  1  0.34160422  0.39409547  0.93520171  1  -1.143238  0  -0.290652  -0.502752  0  2.139007  0
O  O308  1  0.98416774  0.56042897  0.03997486  1  -1.166451  0  -0.324343  -0.591983  0  2.470899  0
O  O309  1  0.14141048  0.65000089  0.01828140  1  -1.060317  0  -0.166027  -0.213512  0  2.613554  0
O  O310  1  0.18933611  0.53037350  0.10083286  1  -1.165367  0  -0.318248  -0.564066  0  2.330314  0
O  O311  1  0.34006464  0.49782789  0.06547645  1  -1.184473  0  -0.315734  -0.552227  0  2.362189  0
O  O312  1  0.39372208  0.53465219  0.43876159  1  -1.173732  0  -0.326425  -0.601524  0  2.463589  0
O  O313  1  0.02333182  0.93557277  0.05284243  1  -1.186353  0  -0.319407  -0.565282  0  2.37386  0
O  O314  1  0.20395276  0.75847391  0.01038755  1  -1.015614  0  -0.163685  -0.19223  0  2.462612  0
O  O315  1  0.16292148  0.54389671  0.24352095  1  -1.024041  0  -0.164474  -0.192804  0  2.460124  0
O  O316  1  0.53452680  0.50708680  0.39157064  1  -1.142917  0  -0.28887  -0.494164  0  2.128773  0
O  O317  1  0.23150390  0.54947228  0.35071745  1  -1.053069  0  -0.169169  -0.223019  0  2.62982  0
O  O318  1  0.17479161  0.90005423  0.02164584  1  -1.165467  0  -0.313044  -0.548613  0  2.328262  0
O  O319  1  0.84160626  0.60590712  0.06480501  1  -1.143073  0  -0.290728  -0.502852  0  2.139009  0
