# generated using pymatgen
data_Mg2H12C17(NO2)4
_symmetry_space_group_name_H-M   'P 1'
_cell_length_a   6.82583371
_cell_length_b   30.75501715
_cell_length_c   30.75966647
_cell_angle_alpha   119.46296305
_cell_angle_beta   94.23845810
_cell_angle_gamma   94.25041527
_symmetry_Int_Tables_number   1
_chemical_formula_structural   Mg2H12C17(NO2)4
_chemical_formula_sum   'Mg6 H36 C51 N12 O24'
_cell_volume   5561.29453626
_cell_formula_units_Z   3
loop_
 _symmetry_equiv_pos_site_id
 _symmetry_equiv_pos_as_xyz
  1  'x, y, z'
loop_
 _atom_site_type_symbol
 _atom_site_label
 _atom_site_symmetry_multiplicity
 _atom_site_fract_x
 _atom_site_fract_y
 _atom_site_fract_z
 _atom_site_occupancy
 _atom_site_pbe_bader_charge
 _atom_site_pbe_bader_spin_density
 _atom_site_pbe_cm5_charge
 _atom_site_pbe_ddec_charge
 _atom_site_pbe_ddec_spin_density
 _atom_site_pbe_ddec_sum_bond_order
 _atom_site_pbe_magmom
Mg  Mg0  1  0.48311515  0.30703271  0.67926632  1  1.683608  0  0.907087  1.412094  0  1.327123  0
Mg  Mg1  1  0.13359342  0.63026455  0.32786651  1  1.682993  0  0.907078  1.407811  0  1.33363  0
Mg  Mg2  1  0.80408646  0.32076066  0.62781113  1  1.68443  0  0.907063  1.411228  0  1.328557  0
Mg  Mg3  1  0.80578066  0.67216327  0.30242177  1  1.682841  0  0.907421  1.408253  0  1.332789  0
Mg  Mg4  1  0.17627132  0.37223926  0.69296964  1  1.684691  0  0.907034  1.411454  0  1.32786  0
Mg  Mg5  1  0.50341439  0.69761908  0.36977866  1  1.682178  0  0.90758  1.409028  0  1.331656  0
H  H6  1  0.74518451  0.57243750  0.18169132  1  0.101591  0  0.107983  0.133863  0  1.006358  0
H  H7  1  0.65874037  0.54080079  0.09699895  1  0.446573  0  0.316743  0.266372  0  0.962184  0
H  H8  1  0.63863882  0.43150691  0.98473473  1  0.508466  0  0.339772  0.312999  0  0.892278  0
H  H9  1  0.47362159  0.52681222  0.02617567  1  0.046726  0  0.109146  0.045402  0  0.968257  0
H  H10  1  0.39162507  0.49026672  0.05360370  1  0.072849  0  0.122389  0.073096  0  0.96194  0
H  H11  1  0.16452233  0.44984589  0.98788634  1  0.511767  0  0.306292  0.294814  0  0.986217  0
H  H12  1  0.57609646  0.48464886  0.94911123  1  0.444652  0  0.308944  0.254024  0  0.993638  0
H  H13  1  0.26288932  0.40739921  0.82529318  1  0.13995  0  0.111116  0.151152  0  1.018285  0
H  H14  1  0.97456066  0.46162348  0.83260703  1  0.11109  0  0.107734  0.112383  0  0.998103  0
H  H15  1  0.82195846  0.49342975  0.91162746  1  0.05241  0  0.094336  0.102699  0  1.011801  0
H  H16  1  0.18423741  0.55846147  0.08305590  1  0.075098  0  0.104273  0.118884  0  1.017203  0
H  H17  1  0.43969570  0.60550672  0.15874997  1  0.063019  0  0.100636  0.100548  0  1.013042  0
H  H18  1  0.56365014  0.81834579  0.39079450  1  0.081279  0  0.108138  0.132931  0  1.007805  0
H  H19  1  0.56185692  0.90299336  0.44377520  1  0.43774  0  0.316619  0.26663  0  0.963235  0
H  H20  1  0.65398870  0.01526693  0.44675711  1  0.479409  0  0.3397  0.31268  0  0.893106  0
H  H21  1  0.44753521  0.97382030  0.50062219  1  0.034618  0  0.108876  0.045126  0  0.968883  0
H  H22  1  0.33821689  0.94636073  0.43663859  1  0.094414  0  0.122172  0.072672  0  0.962104  0
H  H23  1  0.17667461  0.01205760  0.46189125  1  0.529082  0  0.305935  0.294322  0  0.986747  0
H  H24  1  0.62686145  0.05090522  0.53550486  1  0.430793  0  0.309021  0.254327  0  0.993216  0
H  H25  1  0.43743304  0.17474828  0.58215047  1  0.141453  0  0.110835  0.150801  0  1.018219  0
H  H26  1  0.14172426  0.16736111  0.62901384  1  0.103844  0  0.107652  0.112541  0  0.99754  0
H  H27  1  0.90999177  0.08835897  0.58178385  1  0.040975  0  0.094439  0.10264  0  1.011775  0
H  H28  1  0.10137319  0.91705592  0.47538690  1  0.070547  0  0.104293  0.119072  0  1.017061  0
H  H29  1  0.28122119  0.84135737  0.44679146  1  0.076858  0  0.100807  0.100384  0  1.012336  0
H  H30  1  0.17260093  0.60917085  0.42747795  1  0.096589  0  0.108016  0.132931  0  1.008006  0
H  H31  1  0.11801320  0.55620144  0.45923393  1  0.442865  0  0.31695  0.26606  0  0.962472  0
H  H32  1  0.20752950  0.55321832  0.56848044  1  0.474429  0  0.339628  0.312719  0  0.892389  0
H  H33  1  0.94729754  0.49934190  0.47315814  1  0.0224  0  0.109128  0.04576  0  0.968776  0
H  H34  1  0.90189541  0.56333014  0.50970977  1  0.081364  0  0.122162  0.072966  0  0.961743  0
H  H35  1  0.71503010  0.53803662  0.55009515  1  0.50388  0  0.306193  0.29457  0  0.986625  0
H  H36  1  0.09158018  0.46439461  0.51531931  1  0.438568  0  0.309196  0.254423  0  0.993143  0
H  H37  1  0.85565107  0.41783461  0.59261548  1  0.139032  0  0.110783  0.150666  0  1.01812  0
H  H38  1  0.51316531  0.37101032  0.53833587  1  0.124228  0  0.107908  0.112986  0  0.99702  0
H  H39  1  0.32840513  0.41817031  0.50654466  1  0.023008  0  0.094262  0.102652  0  1.011651  0
H  H40  1  0.62575310  0.52460262  0.44159597  1  0.067517  0  0.104361  0.119389  0  1.016521  0
H  H41  1  0.83414487  0.55318493  0.39449804  1  0.066131  0  0.100976  0.101043  0  1.012124  0
C  C42  1  0.03926170  0.60471906  0.21892060  1  0.601771  0  0.09639  0.390177  0  4.0896  0
C  C43  1  0.89774054  0.57924600  0.17599279  1  -0.025069  0  -0.114971  -0.327974  0  3.92317  0
C  C44  1  0.94891062  0.56152367  0.12762731  1  0.337862  0  0.1025  0.294269  0  4.05539  0
C  C45  1  0.81334436  0.48994315  0.04384845  1  1.833947  0  0.326995  0.63419  0  4.222143  0
C  C46  1  0.44824948  0.48800100  0.01996629  1  0.659894  0  0.042419  0.149994  0  3.980763  0
C  C47  1  0.29239319  0.44873625  0.92974114  1  1.824456  0  0.318754  0.62358  0  4.217106  0
C  C48  1  0.53219236  0.45206694  0.87328740  1  0.248776  0  0.095423  0.282143  0  4.062482  0
C  C49  1  0.41782522  0.41988687  0.82706936  1  0.026271  0  -0.118563  -0.327128  0  3.895372  0
C  C50  1  0.50449241  0.40073999  0.78197278  1  0.583889  0  0.097586  0.389134  0  4.088126  0
C  C51  1  0.71030192  0.41620922  0.78435645  1  0.019088  0  -0.048322  -0.229049  0  3.969435  0
C  C52  1  0.81799529  0.45074685  0.83148523  1  -0.025995  0  -0.081869  -0.031498  0  4.028168  0
C  C53  1  0.73259351  0.46870477  0.87535976  1  -0.017432  0  -0.122074  -0.237152  0  4.045548  0
C  C54  1  0.81957510  0.39580553  0.74046730  1  1.51033  0  0.234365  0.676821  0  4.131522  0
C  C55  1  0.14622470  0.57080574  0.12071152  1  0.078843  0  -0.111919  -0.217485  0  4.013479  0
C  C56  1  0.28667785  0.59659357  0.16271837  1  -0.106848  0  -0.088209  -0.060131  0  4.046875  0
C  C57  1  0.24086824  0.61353623  0.21212691  1  -0.026962  0  -0.047559  -0.222858  0  3.967574  0
C  C58  1  0.40075212  0.64025433  0.25436116  1  1.497861  0  0.232953  0.67272  0  4.133249  0
C  C59  1  0.82054031  0.78114583  0.38585484  1  0.592126  0  0.095968  0.388975  0  4.09152  0
C  C60  1  0.72192287  0.82406458  0.40329499  1  0.000824  0  -0.11465  -0.326674  0  3.924914  0
C  C61  1  0.82147149  0.87244183  0.43393253  1  0.325913  0  0.101787  0.293447  0  4.055845  0
C  C62  1  0.76957743  0.95618279  0.44611178  1  1.820779  0  0.326711  0.6339  0  4.223295  0
C  C63  1  0.42834859  0.98002287  0.46802482  1  0.650308  0  0.04266  0.149963  0  3.981642  0
C  C64  1  0.36252442  0.07024952  0.51895532  1  1.818042  0  0.318653  0.623909  0  4.215563  0
C  C65  1  0.65860565  0.12672286  0.57879705  1  0.246071  0  0.09557  0.28218  0  4.064257  0
C  C66  1  0.59057253  0.17295348  0.59285196  1  0.037358  0  -0.118267  -0.326566  0  3.894171  0
C  C67  1  0.72241831  0.21805153  0.61881587  1  0.60324  0  0.097686  0.388969  0  4.08719  0
C  C68  1  0.92584284  0.21565282  0.63188752  1  -0.041445  0  -0.048079  -0.228609  0  3.969798  0
C  C69  1  0.98628155  0.16851545  0.61929432  1  0.031907  0  -0.081882  -0.032376  0  4.029158  0
C  C70  1  0.85690793  0.12464107  0.59336345  1  -0.037088  0  -0.122434  -0.237097  0  4.046961  0
C  C71  1  0.07900909  0.25954602  0.65537116  1  1.505333  0  0.234141  0.678011  0  4.131985  0
C  C72  1  0.02572893  0.87938153  0.45010065  1  0.039224  0  -0.111363  -0.217205  0  4.012002  0
C  C73  1  0.12422979  0.83737955  0.43391432  1  -0.050522  0  -0.088401  -0.059557  0  4.043868  0
C  C74  1  0.02897146  0.78795345  0.40145453  1  -0.027143  0  -0.04807  -0.222668  0  3.966525  0
C  C75  1  0.14648610  0.74569574  0.38594227  1  1.505051  0  0.232933  0.672402  0  4.133916  0
C  C76  1  0.43451192  0.61414546  0.39525767  1  0.602954  0  0.095387  0.389312  0  4.09162  0
C  C77  1  0.31836313  0.59667508  0.42070109  1  0.043326  0  -0.114344  -0.326536  0  3.924248  0
C  C78  1  0.38732627  0.56605594  0.43844827  1  0.289723  0  0.103  0.294414  0  4.055313  0
C  C79  1  0.32365802  0.55386753  0.51002120  1  1.831084  0  0.327166  0.634063  0  4.222653  0
C  C80  1  0.96066428  0.53193615  0.51196863  1  0.665427  0  0.042476  0.148531  0  3.983159  0
C  C81  1  0.84380073  0.48097888  0.55122517  1  1.808673  0  0.319175  0.623659  0  4.214837  0
C  C82  1  0.08011787  0.42118186  0.54792218  1  0.246619  0  0.095395  0.281956  0  4.063765  0
C  C83  1  0.99809398  0.40714494  0.58011161  1  0.043367  0  -0.118618  -0.326918  0  3.894836  0
C  C84  1  0.10406615  0.38120856  0.59925577  1  0.574528  0  0.097956  0.389704  0  4.087023  0
C  C85  1  0.29439864  0.36813224  0.58377698  1  0.019954  0  -0.048909  -0.229861  0  3.970716  0
C  C86  1  0.36745741  0.38072329  0.54923200  1  -0.004965  0  -0.081517  -0.031694  0  4.028386  0
C  C87  1  0.26389761  0.40663671  0.53129838  1  -0.024368  0  -0.122511  -0.237707  0  4.046171  0
C  C88  1  0.42410188  0.34467364  0.60420408  1  1.495653  0  0.235017  0.67781  0  4.131079  0
C  C89  1  0.57533585  0.54986847  0.42919716  1  -0.012304  0  -0.112239  -0.218305  0  4.013059  0
C  C90  1  0.69000457  0.56605269  0.40338486  1  -0.018542  0  -0.088345  -0.059884  0  4.045701  0
C  C91  1  0.62729247  0.59852131  0.38643495  1  -0.023099  0  -0.047524  -0.223012  0  3.968304  0
C  C92  1  0.76037685  0.61406877  0.35973763  1  1.499377  0  0.232738  0.671982  0  4.135303  0
N  N93  1  0.79730825  0.53550900  0.08701278  1  -1.224112  0  -0.41265  -0.431191  0  3.499754  0
N  N94  1  0.63941973  0.46774165  0.01240439  1  -1.222694  0  -0.432599  -0.462654  0  3.495179  0
N  N95  1  0.29993167  0.45603406  0.97834429  1  -1.202573  0  -0.449384  -0.472457  0  3.493371  0
N  N96  1  0.46389273  0.46782253  0.92022305  1  -1.243126  0  -0.413435  -0.420931  0  3.538284  0
N  N97  1  0.71039820  0.91303249  0.44852450  1  -1.218358  0  -0.41253  -0.432068  0  3.502425  0
N  N98  1  0.62710894  0.98761716  0.45534601  1  -1.187769  0  -0.432248  -0.461546  0  3.495807  0
N  N99  1  0.32158001  0.02162253  0.47765752  1  -1.215553  0  -0.44884  -0.47149  0  3.49285  0
N  N100  1  0.54345259  0.07977535  0.54758334  1  -1.234144  0  -0.413546  -0.42185  0  3.53968  0
N  N101  1  0.26184856  0.55148224  0.46449110  1  -1.225249  0  -0.41342  -0.43127  0  3.501614  0
N  N102  1  0.17204960  0.54462967  0.53224648  1  -1.193434  0  -0.432224  -0.461425  0  3.495813  0
N  N103  1  0.84418898  0.52228270  0.54390943  1  -1.185499  0  -0.448979  -0.471138  0  3.492979  0
N  N104  1  0.99608896  0.45233955  0.53212969  1  -1.237322  0  -0.413627  -0.421344  0  3.538692  0
O  O105  1  0.99945708  0.41291666  0.74396298  1  -1.25109  0  -0.361458  -0.649024  0  2.13779  0
O  O106  1  0.73010845  0.35870563  0.69830076  1  -1.309703  0  -0.404903  -0.771501  0  2.419699  0
O  O107  1  0.39095721  0.36771088  0.73880618  1  -1.320047  0  -0.445691  -0.778621  0  2.307208  0
O  O108  1  0.57622377  0.65051273  0.24743693  1  -1.245958  0  -0.358976  -0.648503  0  2.146851  0
O  O109  1  0.35977355  0.65275360  0.29923486  1  -1.297917  0  -0.403071  -0.770355  0  2.411566  0
O  O110  1  0.97717800  0.61868338  0.26378803  1  -1.309876  0  -0.452263  -0.778722  0  2.313982  0
O  O111  1  0.97070589  0.47143366  0.03502512  1  -1.179698  0  -0.314747  -0.545761  0  2.124797  0
O  O112  1  0.14415713  0.42604532  0.89884600  1  -1.155835  0  -0.308413  -0.516027  0  2.081239  0
O  O113  1  0.25534044  0.25605539  0.66901344  1  -1.249768  0  -0.361137  -0.649917  0  2.139865  0
O  O114  1  0.03185511  0.30170853  0.66039866  1  -1.298175  0  -0.405315  -0.772239  0  2.418864  0
O  O115  1  0.65215352  0.26122908  0.62897496  1  -1.312402  0  -0.44567  -0.778207  0  2.307435  0
O  O116  1  0.32884778  0.75259747  0.40313124  1  -1.249032  0  -0.358938  -0.648796  0  2.147634  0
O  O117  1  0.06055331  0.70081759  0.35356352  1  -1.301107  0  -0.402835  -0.769927  0  2.411917  0
O  O118  1  0.71356476  0.73626282  0.35496805  1  -1.313891  0  -0.4522  -0.778277  0  2.314378  0
O  O119  1  0.93579950  0.96499643  0.43641906  1  -1.178991  0  -0.314316  -0.545409  0  2.125361  0
O  O120  1  0.24522358  0.10113986  0.52713505  1  -1.150526  0  -0.308425  -0.515771  0  2.079891  0
O  O121  1  0.58677338  0.33102161  0.58706861  1  -1.243247  0  -0.361403  -0.649327  0  2.138867  0
O  O122  1  0.37173640  0.33965176  0.64132590  1  -1.298799  0  -0.405339  -0.771951  0  2.41871  0
O  O123  1  0.02356628  0.37107485  0.63228360  1  -1.315885  0  -0.445669  -0.778321  0  2.307671  0
O  O124  1  0.92561756  0.59690505  0.34947908  1  -1.24375  0  -0.359138  -0.648467  0  2.147417  0
O  O125  1  0.70685783  0.64644976  0.34724424  1  -1.295714  0  -0.402948  -0.76989  0  2.412325  0
O  O126  1  0.35854297  0.64507356  0.38131773  1  -1.313375  0  -0.451846  -0.778327  0  2.314329  0
O  O127  1  0.49961685  0.56353420  0.52848403  1  -1.177986  0  -0.314911  -0.545905  0  2.124672  0
O  O128  1  0.71825759  0.47280166  0.57392841  1  -1.151416  0  -0.308748  -0.516054  0  2.079169  0
