# generated using pymatgen
data_AgH6C11NO4
_symmetry_space_group_name_H-M   'P 1'
_cell_length_a   6.59309361
_cell_length_b   8.83171583
_cell_length_c   9.20212347
_cell_angle_alpha   78.51636061
_cell_angle_beta   72.79754551
_cell_angle_gamma   67.74299068
_symmetry_Int_Tables_number   1
_chemical_formula_structural   AgH6C11NO4
_chemical_formula_sum   'Ag2 H12 C22 N2 O8'
_cell_volume   471.41544707
_cell_formula_units_Z   2
loop_
 _symmetry_equiv_pos_site_id
 _symmetry_equiv_pos_as_xyz
  1  'x, y, z'
loop_
 _atom_site_type_symbol
 _atom_site_label
 _atom_site_symmetry_multiplicity
 _atom_site_fract_x
 _atom_site_fract_y
 _atom_site_fract_z
 _atom_site_occupancy
 _atom_site_hle17_bader_spin_density
 _atom_site_hle17_ddec_charge
 _atom_site_hle17_ddec_spin_density
 _atom_site_hle17_ddec_sum_bond_order
 _atom_site_hle17_magmom
 _atom_site_hse06_10hf_bader_spin_density
 _atom_site_hse06_10hf_ddec_charge
 _atom_site_hse06_10hf_ddec_spin_density
 _atom_site_hse06_10hf_ddec_sum_bond_order
 _atom_site_hse06_10hf_magmom
 _atom_site_hse06_bader_spin_density
 _atom_site_hse06_ddec_charge
 _atom_site_hse06_ddec_spin_density
 _atom_site_hse06_ddec_sum_bond_order
 _atom_site_hse06_magmom
 _atom_site_pbe_bader_spin_density
 _atom_site_pbe_cm5_charge
 _atom_site_pbe_ddec_charge
 _atom_site_pbe_ddec_spin_density
 _atom_site_pbe_ddec_sum_bond_order
 _atom_site_pbe_magmom
Ag  Ag0  1  0.40495276  0.09119870  0.21588383  1  0  0.591214  0  1.348194  0  0  0.478174  0  1.759146  0  0  0.503688  0  1.720146  0  0  0.46563  0.460687  0  1.787345  0
Ag  Ag1  1  0.59504939  0.90880706  0.78411898  1  0  0.591194  0  1.348233  0  0  0.47818  0  1.759208  0  0  0.503694  0  1.720203  0  0  0.465639  0.460682  0  1.787441  0
H  H2  1  0.11379400  0.09339789  0.80252440  1  0  0.100114  0  0.931594  0  0  0.112484  0  0.987961  0  0  0.115328  0  0.985799  0  0  0.106827  0.110188  0  0.99026  0
H  H3  1  0.88621242  0.90660538  0.19747253  1  0  0.100149  0  0.93154  0  0  0.11252  0  0.987909  0  0  0.115365  0  0.985745  0  0  0.106845  0.110219  0  0.990213  0
H  H4  1  0.01675060  0.85101148  0.95105901  1  0  0.109998  0  0.936998  0  0  0.120867  0  0.99467  0  0  0.12371  0  0.993278  0  0  0.108242  0.119178  0  0.99484  0
H  H5  1  0.98324883  0.14899676  0.04894065  1  0  0.109957  0  0.93711  0  0  0.120836  0  0.994763  0  0  0.12368  0  0.99337  0  0  0.108207  0.119143  0  0.99494  0
H  H6  1  0.06712502  0.61618835  0.81803610  1  0  0.116106  0  0.954916  0  0  0.124223  0  1.017301  0  0  0.128185  0  1.014348  0  0  0.106545  0.121417  0  1.01957  0
H  H7  1  0.93287391  0.38381745  0.18196413  1  0  0.116066  0  0.955091  0  0  0.12427  0  1.01735  0  0  0.128234  0  1.014397  0  0  0.106568  0.121461  0  1.019625  0
H  H8  1  0.27451420  0.09811906  0.52122031  1  0  0.110753  0  0.96688  0  0  0.11872  0  1.035574  0  0  0.122444  0  1.033149  0  0  0.101033  0.115945  0  1.037846  0
H  H9  1  0.72548749  0.90188060  0.47877724  1  0  0.110763  0  0.966815  0  0  0.118746  0  1.035488  0  0  0.122471  0  1.033061  0  0  0.101049  0.115969  0  1.037764  0
H  H10  1  0.16654557  0.49368959  0.57066430  1  0  0.11326  0  0.918347  0  0  0.125953  0  0.97515  0  0  0.12895  0  0.97281  0  0  0.115043  0.123609  0  0.977223  0
H  H11  1  0.83345991  0.50630879  0.42933920  1  0  0.113242  0  0.918405  0  0  0.125938  0  0.975199  0  0  0.128934  0  0.97286  0  0  0.115046  0.123593  0  0.97728  0
H  H12  1  0.28754504  0.44916374  0.06143502  1  0  0.408148  0  0.883846  0  0  0.37461  0  0.96664  0  0  0.388264  0  0.951459  0  0  0.300686  0.365116  0  0.976735  0
H  H13  1  0.71245901  0.55082366  0.93856437  1  0  0.408145  0  0.88385  0  0  0.374645  0  0.966573  0  0  0.388298  0  0.951406  0  0  0.300716  0.365146  0  0.976678  0
C  C14  1  0.25989200  0.86052468  0.50885449  1  0  0.214269  0  3.760246  0  0  0.212941  0  3.992408  0  0  0.220005  0  4.015035  0  0  0.110041  0.207885  0  3.978381  0
C  C15  1  0.74011179  0.13947740  0.49114432  1  0  0.214406  0  3.760104  0  0  0.21309  0  3.99233  0  0  0.220154  0  4.014956  0  0  0.110096  0.208039  0  3.978293  0
C  C16  1  0.14240974  0.98886283  0.74352557  1  0  -0.04007  0  3.747364  0  0  -0.056338  0  4.009445  0  0  -0.054566  0  4.025695  0  0  -0.08556  -0.058125  0  4.000011  0
C  C17  1  0.85759557  0.01114290  0.25647222  1  0  -0.040083  0  3.747371  0  0  -0.056351  0  4.009453  0  0  -0.054578  0  4.025705  0  0  -0.085541  -0.058137  0  4.000016  0
C  C18  1  0.08188658  0.85303473  0.82782702  1  0  -0.042688  0  3.721699  0  0  -0.062815  0  3.986356  0  0  -0.063404  0  4.002709  0  0  -0.082584  -0.060506  0  3.973598  0
C  C19  1  0.91811449  0.14696983  0.17217082  1  0  -0.042603  0  3.721742  0  0  -0.062736  0  3.986378  0  0  -0.063325  0  4.002731  0  0  -0.082564  -0.060421  0  3.973619  0
C  C20  1  0.10742427  0.72315268  0.75404110  1  0  -0.105697  0  3.720329  0  0  -0.129383  0  3.980321  0  0  -0.130054  0  3.997168  0  0  -0.087366  -0.129361  0  3.968373  0
C  C21  1  0.89257736  0.27685064  0.24595794  1  0  -0.105765  0  3.720344  0  0  -0.129493  0  3.980399  0  0  -0.130164  0  3.997245  0  0  -0.08744  -0.129473  0  3.968457  0
C  C22  1  0.37010462  0.74307847  0.27907450  1  0  0.142845  0  3.67793  0  0  0.134505  0  3.923608  0  0  0.142518  0  3.938242  0  0  0.132824  0.128482  0  3.914247  0
C  C23  1  0.62988807  0.25692006  0.72092846  1  0  0.142833  0  3.678053  0  0  0.134574  0  3.923632  0  0  0.142586  0  3.938264  0  0  0.132836  0.128547  0  3.914272  0
C  C24  1  0.22978629  0.99304550  0.58692391  1  0  -0.162484  0  3.721849  0  0  -0.184054  0  3.980006  0  0  -0.1897  0  3.999504  0  0  -0.094059  -0.182725  0  3.969613  0
C  C25  1  0.77022123  0.00695532  0.41307326  1  0  -0.162541  0  3.721742  0  0  -0.184131  0  3.979908  0  0  -0.189779  0  3.999406  0  0  -0.094057  -0.182801  0  3.969511  0
C  C26  1  0.48617037  0.75066516  0.11011424  1  0  0.624949  0  3.946546  0  0  0.566474  0  4.256964  0  0  0.601204  0  4.24592  0  0  0.205968  0.543312  0  4.263527  0
C  C27  1  0.51382924  0.24933207  0.88988531  1  0  0.624837  0  3.946664  0  0  0.566329  0  4.257082  0  0  0.60106  0  4.246038  0  0  0.20589  0.543164  0  4.263651  0
C  C28  1  0.21728585  0.59823489  0.51103770  1  0  -0.020503  0  3.649762  0  0  -0.059884  0  3.903989  0  0  -0.052773  0  3.919231  0  0  -0.050982  -0.064355  0  3.892746  0
C  C29  1  0.78271634  0.40176721  0.48896145  1  0  -0.020441  0  3.649815  0  0  -0.059802  0  3.90406  0  0  -0.052688  0  3.919301  0  0  -0.050982  -0.064283  0  3.892826  0
C  C30  1  0.29848485  0.60796399  0.35402343  1  0  -0.14283  0  3.735569  0  0  -0.12759  0  3.980308  0  0  -0.140527  0  4.002387  0  0  -0.015682  -0.117856  0  3.964077  0
C  C31  1  0.70151310  0.39203693  0.64597577  1  0  -0.142942  0  3.735694  0  0  -0.127697  0  3.980392  0  0  -0.140635  0  4.002471  0  0  -0.015692  -0.117951  0  3.964148  0
C  C32  1  0.19553047  0.72438771  0.59327658  1  0  0.016332  0  3.779145  0  0  0.034382  0  4.01114  0  0  0.029699  0  4.035657  0  0  -0.004668  0.038899  0  3.993377  0
C  C33  1  0.80447015  0.27561440  0.40672617  1  0  0.016351  0  3.77908  0  0  0.034312  0  4.011221  0  0  0.029628  0  4.035738  0  0  -0.004632  0.038827  0  3.993463  0
C  C34  1  0.29979103  0.48086211  0.26827866  1  0  0.672909  0  3.824034  0  0  0.619983  0  4.119889  0  0  0.654558  0  4.111976  0  0  0.234493  0.59636  0  4.124276  0
C  C35  1  0.70020595  0.51913393  0.73172168  1  0  0.672907  0  3.823906  0  0  0.619982  0  4.119777  0  0  0.654557  0  4.111865  0  0  0.234452  0.596368  0  4.124145  0
N  N36  1  0.34874612  0.86480815  0.35374078  1  0  -0.366808  0  3.273774  0  0  -0.29757  0  3.543118  0  0  -0.31669  0  3.559264  0  0  -0.328444  -0.286034  0  3.53368  0
N  N37  1  0.65125342  0.13519275  0.64625699  1  0  -0.366807  0  3.273795  0  0  -0.297607  0  3.543146  0  0  -0.316725  0  3.559288  0  0  -0.328473  -0.286077  0  3.533709  0
O  O38  1  0.31800229  0.33909064  0.32942673  1  0  -0.58596  0  2.061986  0  0  -0.530687  0  2.322565  0  0  -0.555864  0  2.313867  0  0  -0.295127  -0.512522  0  2.328039  0
O  O39  1  0.68199203  0.66090786  0.67058132  1  0  -0.585908  0  2.061866  0  0  -0.530737  0  2.322595  0  0  -0.555913  0  2.313897  0  0  -0.295154  -0.512574  0  2.328067  0
O  O40  1  0.38686944  0.86924104  0.02526098  1  0  -0.600362  0  2.103251  0  0  -0.535456  0  2.379584  0  0  -0.564543  0  2.36885  0  0  -0.312381  -0.515013  0  2.386278  0
O  O41  1  0.61313334  0.13075616  0.97473463  1  0  -0.600315  0  2.103294  0  0  -0.535413  0  2.379652  0  0  -0.564503  0  2.368926  0  0  -0.312355  -0.514968  0  2.386341  0
O  O42  1  0.67629591  0.63859054  0.07091580  1  0  -0.616193  0  1.983609  0  0  -0.561593  0  2.211037  0  0  -0.588626  0  2.200708  0  0  -0.318593  -0.543471  0  2.218017  0
O  O43  1  0.32370278  0.36140180  0.92909140  1  0  -0.616133  0  1.983599  0  0  -0.561507  0  2.211049  0  0  -0.588542  0  2.200725  0  0  -0.318544  -0.543387  0  2.218022  0
O  O44  1  0.26893328  0.53778442  0.13004999  1  0  -0.537322  0  2.112087  0  0  -0.477954  0  2.327877  0  0  -0.50182  0  2.314365  0  0  -0.311901  -0.461094  0  2.335924  0
O  O45  1  0.73106969  0.46220543  0.86995459  1  0  -0.537291  0  2.111871  0  0  -0.477937  0  2.327643  0  0  -0.501798  0  2.314135  0  0  -0.311896  -0.461102  0  2.335735  0
