# generated using pymatgen
data_TbH21(C10O7)2
_symmetry_space_group_name_H-M   'P 1'
_cell_length_a   9.34814357
_cell_length_b   10.30380067
_cell_length_c   13.09732250
_cell_angle_alpha   100.39724855
_cell_angle_beta   96.51344990
_cell_angle_gamma   113.49600165
_symmetry_Int_Tables_number   1
_chemical_formula_structural   TbH21(C10O7)2
_chemical_formula_sum   'Tb2 H42 C40 O28'
_cell_volume   1113.66471772
_cell_formula_units_Z   2
loop_
 _symmetry_equiv_pos_site_id
 _symmetry_equiv_pos_as_xyz
  1  'x, y, z'
loop_
 _atom_site_type_symbol
 _atom_site_label
 _atom_site_symmetry_multiplicity
 _atom_site_fract_x
 _atom_site_fract_y
 _atom_site_fract_z
 _atom_site_occupancy
 _atom_site_hle17_bader_spin_density
 _atom_site_hle17_ddec_charge
 _atom_site_hle17_ddec_spin_density
 _atom_site_hle17_ddec_sum_bond_order
 _atom_site_hle17_magmom
 _atom_site_hse06_10hf_bader_spin_density
 _atom_site_hse06_10hf_ddec_charge
 _atom_site_hse06_10hf_ddec_spin_density
 _atom_site_hse06_10hf_ddec_sum_bond_order
 _atom_site_hse06_10hf_magmom
 _atom_site_hse06_bader_spin_density
 _atom_site_hse06_ddec_charge
 _atom_site_hse06_ddec_spin_density
 _atom_site_hse06_ddec_sum_bond_order
 _atom_site_hse06_magmom
 _atom_site_pbe_bader_spin_density
 _atom_site_pbe_cm5_charge
 _atom_site_pbe_ddec_charge
 _atom_site_pbe_ddec_spin_density
 _atom_site_pbe_ddec_sum_bond_order
 _atom_site_pbe_magmom
Tb  Tb0  1  0.28255901  0.54890754  0.51984002  1  0  2.30084  0  1.623514  0  0  2.15494  0  2.08969  0  0  2.272443  0  1.914639  0  0  1.510764  2.118645  0  2.122961  0
Tb  Tb1  1  0.71744049  0.45109246  0.48016036  1  0  2.300824  0  1.623487  0  0  2.154928  0  2.089666  0  0  2.272434  0  1.914611  0  0  1.510755  2.118632  0  2.122936  0
H  H2  1  0.44089375  0.72289503  0.92696960  1  0  0.402368  0  0.889908  0  0  0.369924  0  0.968068  0  0  0.383058  0  0.95054  0  0  0.304337  0.360791  0  0.977701  0
H  H3  1  0.55910366  0.27710279  0.07302876  1  0  0.402347  0  0.8899  0  0  0.36987  0  0.968116  0  0  0.383004  0  0.950613  0  0  0.304307  0.360737  0  0.97775  0
H  H4  1  0.50677395  0.87226643  0.81993171  1  0  0.375127  0  0.91223  0  0  0.350729  0  0.977939  0  0  0.360535  0  0.9676  0  0  0.30534  0.343839  0  0.985171  0
H  H5  1  0.49322504  0.12773248  0.18006846  1  0  0.375117  0  0.912221  0  0  0.350723  0  0.977923  0  0  0.36053  0  0.967583  0  0  0.305348  0.343832  0  0.985157  0
H  H6  1  0.49832645  0.08424402  0.34449330  1  0  0.384844  0  0.888624  0  0  0.358635  0  0.958723  0  0  0.369069  0  0.947341  0  0  0.308873  0.351251  0  0.966942  0
H  H7  1  0.50167521  0.91575597  0.65550650  1  0  0.384879  0  0.88856  0  0  0.358667  0  0.958662  0  0  0.369099  0  0.947274  0  0  0.308879  0.351286  0  0.966882  0
H  H8  1  0.10660641  0.64191833  0.66932336  1  0  0.444017  0  0.85252  0  0  0.413152  0  0.915927  0  0  0.424129  0  0.900023  0  0  0.301945  0.405234  0  0.927556  0
H  H9  1  0.89339414  0.35808386  0.33067664  1  0  0.444044  0  0.852471  0  0  0.413167  0  0.915905  0  0  0.424147  0  0.899995  0  0  0.301954  0.40525  0  0.927532  0
H  H10  1  0.27529532  0.78110498  0.68945491  1  0  0.425444  0  0.872163  0  0  0.392512  0  0.939098  0  0  0.403664  0  0.922794  0  0  0.302119  0.384841  0  0.950485  0
H  H11  1  0.72470471  0.21889612  0.31054489  1  0  0.425481  0  0.872109  0  0  0.392552  0  0.93904  0  0  0.403706  0  0.922732  0  0  0.302145  0.384881  0  0.950427  0
H  H12  1  0.50567698  0.49148111  0.67637504  1  0  0.439322  0  0.859135  0  0  0.409377  0  0.921576  0  0  0.419911  0  0.90639  0  0  0.300253  0.401537  0  0.933071  0
H  H13  1  0.49432413  0.50851998  0.32362486  1  0  0.439318  0  0.859138  0  0  0.409371  0  0.921581  0  0  0.419905  0  0.906395  0  0  0.300259  0.401531  0  0.933076  0
H  H14  1  0.37662970  0.51773676  0.73926193  1  0  0.443295  0  0.855242  0  0  0.412348  0  0.918874  0  0  0.423861  0  0.902031  0  0  0.297683  0.40425  0  0.93087  0
H  H15  1  0.62336982  0.48226324  0.26073768  1  0  0.443301  0  0.855232  0  0  0.412355  0  0.918861  0  0  0.423869  0  0.902018  0  0  0.297692  0.404257  0  0.930857  0
H  H16  1  0.34087949  0.59846640  0.14394862  1  0  0.105903  0  0.968684  0  0  0.112004  0  1.041453  0  0  0.115699  0  1.03855  0  0  0.106253  0.109343  0  1.043371  0
H  H17  1  0.65911894  0.40153361  0.85605165  1  0  0.105867  0  0.968742  0  0  0.11198  0  1.041498  0  0  0.115677  0  1.03859  0  0  0.10625  0.109321  0  1.043413  0
H  H18  1  0.04235221  0.25782574  0.86767920  1  0  0.119042  0  0.961489  0  0  0.125359  0  1.030053  0  0  0.128951  0  1.0282  0  0  0.107858  0.122731  0  1.031616  0
H  H19  1  0.95764734  0.74217208  0.13232011  1  0  0.119018  0  0.961536  0  0  0.125362  0  1.030067  0  0  0.128956  0  1.028212  0  0  0.107865  0.122734  0  1.031631  0
H  H20  1  0.94362193  0.22086515  0.17830671  1  0  0.12688  0  0.935471  0  0  0.134633  0  0.999757  0  0  0.139331  0  0.995524  0  0  0.114848  0.131438  0  1.002319  0
H  H21  1  0.05637650  0.77913486  0.82169357  1  0  0.126872  0  0.93549  0  0  0.134619  0  0.999778  0  0  0.13932  0  0.995546  0  0  0.11485  0.131425  0  1.002339  0
H  H22  1  0.93766870  0.00133986  0.86185198  1  0  0.061549  0  0.930372  0  0  0.074932  0  0.997501  0  0  0.074451  0  0.998379  0  0  0.102944  0.075388  0  0.996768  0
H  H23  1  0.06233028  0.99865905  0.13814820  1  0  0.061519  0  0.930377  0  0  0.074925  0  0.997512  0  0  0.074448  0  0.998393  0  0  0.102933  0.07538  0  0.996779  0
H  H24  1  0.78557834  0.05654898  0.82275454  1  0  0.056366  0  0.937101  0  0  0.069671  0  1.005394  0  0  0.06896  0  1.006636  0  0  0.101268  0.069876  0  1.004936  0
H  H25  1  0.21441957  0.94344994  0.17724554  1  0  0.056374  0  0.93709  0  0  0.069695  0  1.00539  0  0  0.068988  0  1.006633  0  0  0.101288  0.069901  0  1.004934  0
H  H26  1  0.69350722  0.78188430  0.79169406  1  0  0.052152  0  0.937441  0  0  0.065238  0  1.005741  0  0  0.064714  0  1.006396  0  0  0.098713  0.065543  0  1.005129  0
H  H27  1  0.30649231  0.21811571  0.20830479  1  0  0.052144  0  0.93745  0  0  0.065232  0  1.005734  0  0  0.064707  0  1.006392  0  0  0.09872  0.065538  0  1.005122  0
H  H28  1  0.74077731  0.80617576  0.93139719  1  0  0.059146  0  0.938309  0  0  0.073311  0  1.002856  0  0  0.072301  0  1.004969  0  0  0.103579  0.073884  0  1.001403  0
H  H29  1  0.25922118  0.19382206  0.06860126  1  0  0.059172  0  0.938239  0  0  0.073304  0  1.002822  0  0  0.072295  0  1.004934  0  0  0.10359  0.073878  0  1.001369  0
H  H30  1  0.80722552  0.74338199  0.34894872  1  0  0.121879  0  0.969598  0  0  0.126634  0  1.041682  0  0  0.131013  0  1.037983  0  0  0.11446  0.123219  0  1.044876  0
H  H31  1  0.19277664  0.25661910  0.65105280  1  0  0.121933  0  0.969578  0  0  0.126674  0  1.041667  0  0  0.131053  0  1.037967  0  0  0.114474  0.123262  0  1.044862  0
H  H32  1  0.05459386  0.19836732  0.34847506  1  0  0.128186  0  0.98004  0  0  0.133671  0  1.047836  0  0  0.137912  0  1.045077  0  0  0.113352  0.130446  0  1.050151  0
H  H33  1  0.94540675  0.80163268  0.65152311  1  0  0.128151  0  0.980038  0  0  0.133636  0  1.047848  0  0  0.137876  0  1.045089  0  0  0.113339  0.130408  0  1.05016  0
H  H34  1  0.31478996  0.96435852  0.45156899  1  0  0.112836  0  0.94734  0  0  0.121088  0  1.011695  0  0  0.12602  0  1.006811  0  0  0.108527  0.117734  0  1.014939  0
H  H35  1  0.68521115  0.03564257  0.54843015  1  0  0.112875  0  0.947319  0  0  0.121139  0  1.011655  0  0  0.126069  0  1.006771  0  0  0.108551  0.117786  0  1.014896  0
H  H36  1  0.61309428  0.76047483  0.25359342  1  0  0.070872  0  0.922992  0  0  0.086042  0  0.984664  0  0  0.086393  0  0.983641  0  0  0.108926  0.085552  0  0.985576  0
H  H37  1  0.38690738  0.23952516  0.74640637  1  0  0.070871  0  0.922963  0  0  0.086051  0  0.984634  0  0  0.086396  0  0.983618  0  0  0.108924  0.085559  0  0.985548  0
H  H38  1  0.62245816  0.86737101  0.38006233  1  0  0.066439  0  0.935048  0  0  0.080071  0  0.99926  0  0  0.079718  0  0.999716  0  0  0.104539  0.080425  0  0.998648  0
H  H39  1  0.37754242  0.13262899  0.61993814  1  0  0.066427  0  0.935056  0  0  0.080064  0  0.999274  0  0  0.079709  0  0.999726  0  0  0.104528  0.080419  0  0.99866  0
H  H40  1  0.49395740  0.88301525  0.15793767  1  0  0.076102  0  0.906759  0  0  0.090013  0  0.967281  0  0  0.091186  0  0.965752  0  0  0.111573  0.089013  0  0.968302  0
H  H41  1  0.50604421  0.11698693  0.84206319  1  0  0.076128  0  0.90678  0  0  0.090045  0  0.967298  0  0  0.091219  0  0.96577  0  0  0.111584  0.089046  0  0.968318  0
H  H42  1  0.38618251  0.83371377  0.25965371  1  0  0.059645  0  0.917815  0  0  0.075324  0  0.982613  0  0  0.075137  0  0.982714  0  0  0.106382  0.075597  0  0.981928  0
H  H43  1  0.61381914  0.16628842  0.74034486  1  0  0.059642  0  0.917799  0  0  0.075326  0  0.982604  0  0  0.07514  0  0.982706  0  0  0.106353  0.075599  0  0.981919  0
C  C44  1  0.19701471  0.46904650  0.29160443  1  0  0.659163  0  3.88556  0  0  0.608934  0  4.172369  0  0  0.64219  0  4.170048  0  0  0.209384  0.5862  0  4.177138  0
C  C45  1  0.80298424  0.53095460  0.70839605  1  0  0.658968  0  3.885765  0  0  0.608731  0  4.172581  0  0  0.641988  0  4.170264  0  0  0.209303  0.585997  0  4.177348  0
C  C46  1  0.14755426  0.41638285  0.17392474  1  0  -0.047906  0  3.789134  0  0  -0.021163  0  4.025526  0  0  -0.027769  0  4.047096  0  0  -0.016468  -0.016702  0  4.010386  0
C  C47  1  0.85244310  0.58361716  0.82607544  1  0  -0.047958  0  3.789071  0  0  -0.021218  0  4.025469  0  0  -0.027824  0  4.047041  0  0  -0.016502  -0.016757  0  4.010329  0
C  C48  1  0.23797362  0.49487196  0.10896795  1  0  -0.093534  0  3.711924  0  0  -0.137743  0  3.967341  0  0  -0.136219  0  3.986336  0  0  -0.088362  -0.138323  0  3.95395  0
C  C49  1  0.76202266  0.50512806  0.89103214  1  0  -0.093486  0  3.711855  0  0  -0.137675  0  3.967276  0  0  -0.136151  0  3.98627  0  0  -0.088333  -0.138256  0  3.953884  0
C  C50  1  0.19614862  0.43813522  0.99920949  1  0  -0.048961  0  3.786795  0  0  -0.024541  0  4.023232  0  0  -0.03208  0  4.046893  0  0  -0.016986  -0.020018  0  4.007359  0
C  C51  1  0.80384877  0.56186260  0.00079040  1  0  -0.048862  0  3.786674  0  0  -0.024493  0  4.023206  0  0  -0.032029  0  4.046868  0  0  -0.016994  -0.019975  0  4.007327  0
C  C52  1  0.06795281  0.30059859  0.95336759  1  0  -0.18883  0  3.688098  0  0  -0.223179  0  3.937793  0  0  -0.224919  0  3.955567  0  0  -0.092333  -0.221816  0  3.926217  0
C  C53  1  0.93204457  0.69939923  0.04663305  1  0  -0.188731  0  3.688014  0  0  -0.22308  0  3.937734  0  0  -0.224821  0  3.955507  0  0  -0.09225  -0.221717  0  3.926159  0
C  C54  1  0.97776589  0.22299149  0.01908647  1  0  0.270898  0  3.819445  0  0  0.263996  0  4.08343  0  0  0.273792  0  4.099035  0  0  0.088095  0.256742  0  4.072892  0
C  C55  1  0.02223200  0.77700743  0.98091514  1  0  0.27081  0  3.819372  0  0  0.263874  0  4.083424  0  0  0.273668  0  4.09903  0  0  0.087995  0.25662  0  4.072885  0
C  C56  1  0.01535743  0.28333943  0.12895360  1  0  -0.149795  0  3.65979  0  0  -0.188725  0  3.916917  0  0  -0.189138  0  3.931803  0  0  -0.081182  -0.187842  0  3.905884  0
C  C57  1  0.98464153  0.71666167  0.87104611  1  0  -0.149754  0  3.659688  0  0  -0.188657  0  3.916807  0  0  -0.189074  0  3.931697  0  0  -0.081149  -0.187777  0  3.905775  0
C  C58  1  0.29075268  0.52164879  0.92894911  1  0  0.663427  0  3.812517  0  0  0.615405  0  4.103255  0  0  0.648783  0  4.094546  0  0  0.238363  0.593088  0  4.107867  0
C  C59  1  0.70924470  0.47834904  0.07105229  1  0  0.663236  0  3.812733  0  0  0.615183  0  4.103543  0  0  0.648556  0  4.094844  0  0  0.238286  0.59288  0  4.10813  0
C  C60  1  0.82643158  0.00500754  0.87929447  1  0  0.049879  0  3.635728  0  0  -0.015918  0  3.916351  0  0  -0.008706  0  3.922629  0  0  -0.071547  -0.020753  0  3.9117  0
C  C61  1  0.17356634  0.99499138  0.12070561  1  0  0.049943  0  3.635705  0  0  -0.015941  0  3.916428  0  0  -0.008747  0  3.922727  0  0  -0.071529  -0.020777  0  3.91178  0
C  C62  1  0.70271145  0.85098749  0.86917930  1  0  0.112904  0  3.646519  0  0  0.048275  0  3.930681  0  0  0.055628  0  3.936081  0  0  -0.077637  0.043471  0  3.926613  0
C  C63  1  0.29728647  0.14901143  0.13082002  1  0  0.112872  0  3.646504  0  0  0.048295  0  3.930662  0  0  0.055651  0  3.936065  0  0  -0.077677  0.043489  0  3.926597  0
C  C64  1  0.06470783  0.71334307  0.43616655  1  0  0.731659  0  3.847535  0  0  0.685867  0  4.130648  0  0  0.722082  0  4.122316  0  0  0.23693  0.66171  0  4.137779  0
C  C65  1  0.93529699  0.28665910  0.56383535  1  0  0.731705  0  3.847455  0  0  0.685954  0  4.130543  0  0  0.722172  0  4.122204  0  0  0.236995  0.661797  0  4.137674  0
C  C66  1  0.06134691  0.84279365  0.40144957  1  0  -0.04972  0  3.77215  0  0  -0.022457  0  4.002194  0  0  -0.029498  0  4.023395  0  0  -0.016196  -0.017926  0  3.987115  0
C  C67  1  0.93865793  0.15720851  0.59855157  1  0  -0.04971  0  3.772128  0  0  -0.022488  0  4.002217  0  0  -0.029537  0  4.023416  0  0  -0.016164  -0.017957  0  3.987138  0
C  C68  1  0.91614195  0.84247204  0.36045183  1  0  -0.17239  0  3.689945  0  0  -0.207993  0  3.942477  0  0  -0.209307  0  3.960459  0  0  -0.087659  -0.206356  0  3.929945  0
C  C69  1  0.08386128  0.15752904  0.63954978  1  0  -0.172428  0  3.689968  0  0  -0.207985  0  3.942533  0  0  -0.20929  0  3.960509  0  0  -0.087652  -0.206356  0  3.930016  0
C  C70  1  0.91543335  0.96941013  0.33691004  1  0  0.263906  0  3.813045  0  0  0.258944  0  4.075526  0  0  0.26746  0  4.092294  0  0  0.085223  0.252807  0  4.064265  0
C  C71  1  0.08457099  0.03059095  0.66308937  1  0  0.264054  0  3.812975  0  0  0.259023  0  4.075512  0  0  0.267536  0  4.092281  0  0  0.085264  0.252883  0  4.064252  0
C  C72  1  0.05767104  0.09732567  0.35988926  1  0  -0.164073  0  3.671831  0  0  -0.200623  0  3.928097  0  0  -0.201809  0  3.944977  0  0  -0.087574  -0.199506  0  3.916539  0
C  C73  1  0.94233117  0.90267541  0.64010845  1  0  -0.164049  0  3.671782  0  0  -0.200601  0  3.928087  0  0  -0.201788  0  3.944969  0  0  -0.087592  -0.199479  0  3.916524  0
C  C74  1  0.20164298  0.09576812  0.40013704  1  0  -0.071079  0  3.813723  0  0  -0.045471  0  4.05348  0  0  -0.052694  0  4.074847  0  0  -0.021949  -0.040598  0  4.038305  0
C  C75  1  0.79835870  0.90423187  0.59986199  1  0  -0.071024  0  3.813695  0  0  -0.045396  0  4.053431  0  0  -0.052619  0  4.074801  0  0  -0.021915  -0.040522  0  4.038254  0
C  C76  1  0.20428162  0.96695297  0.41809755  1  0  -0.10781  0  3.74252  0  0  -0.151245  0  4.002192  0  0  -0.149274  0  4.01909  0  0  -0.093376  -0.15259  0  3.990584  0
C  C77  1  0.79571949  0.03304812  0.58190235  1  0  -0.107912  0  3.742523  0  0  -0.151354  0  4.002219  0  0  -0.14938  0  4.019116  0  0  -0.093425  -0.152699  0  3.990611  0
C  C78  1  0.35246452  0.23263555  0.43273105  1  0  0.703305  0  3.867314  0  0  0.654671  0  4.158842  0  0  0.689894  0  4.153131  0  0  0.229487  0.630686  0  4.165954  0
C  C79  1  0.64753552  0.76736554  0.56726799  1  0  0.703318  0  3.867334  0  0  0.654672  0  4.158869  0  0  0.689891  0  4.153163  0  0  0.229481  0.630686  0  4.165984  0
C  C80  1  0.62970775  0.86924561  0.29701759  1  0  0.053595  0  3.611504  0  0  -0.008691  0  3.887058  0  0  -0.000844  0  3.891598  0  0  -0.067899  -0.013896  0  3.883349  0
C  C81  1  0.37029446  0.13075328  0.70298287  1  0  0.053674  0  3.6115  0  0  -0.00865  0  3.887086  0  0  -0.00079  0  3.891607  0  0  -0.067877  -0.013856  0  3.883376  0
C  C82  1  0.50154162  0.90485229  0.24413515  1  0  0.1199  0  3.617441  0  0  0.050332  0  3.903375  0  0  0.057635  0  3.908118  0  0  -0.069141  0.045943  0  3.898953  0
C  C83  1  0.49846110  0.09514770  0.75586550  1  0  0.119803  0  3.617479  0  0  0.05019  0  3.90348  0  0  0.057488  0  3.90822  0  0  -0.069151  0.0458  0  3.899059  0
O  O84  1  0.09573036  0.41824909  0.34875132  1  0  -0.708284  0  2.115091  0  0  -0.646344  0  2.348843  0  0  -0.679288  0  2.340341  0  0  -0.354094  -0.628134  0  2.354461  0
O  O85  1  0.90426803  0.58175311  0.65124925  1  0  -0.708152  0  2.11508  0  0  -0.646238  0  2.348879  0  0  -0.679179  0  2.340375  0  0  -0.354059  -0.628026  0  2.354492  0
O  O86  1  0.34048916  0.56012526  0.33548417  1  0  -0.689147  0  1.995206  0  0  -0.633664  0  2.229782  0  0  -0.665023  0  2.220563  0  0  -0.345726  -0.615915  0  2.235033  0
O  O87  1  0.65951036  0.43987474  0.66451544  1  0  -0.689048  0  1.995278  0  0  -0.633566  0  2.229858  0  0  -0.664926  0  2.220643  0  0  -0.345692  -0.615817  0  2.235107  0
O  O88  1  0.37788729  0.66208179  0.97530313  1  0  -0.549023  0  2.095423  0  0  -0.497314  0  2.308514  0  0  -0.519834  0  2.291071  0  0  -0.325095  -0.481563  0  2.317479  0
O  O89  1  0.62210578  0.33791825  0.02469592  1  0  -0.548968  0  2.095466  0  0  -0.497221  0  2.308589  0  0  -0.519744  0  2.291178  0  0  -0.325062  -0.481475  0  2.317547  0
O  O90  1  0.28523231  0.46130900  0.83675581  1  0  -0.565343  0  1.972529  0  0  -0.516581  0  2.185491  0  0  -0.538167  0  2.175316  0  0  -0.28199  -0.501506  0  2.191694  0
O  O91  1  0.71476777  0.53868771  0.16324568  1  0  -0.565261  0  1.972731  0  0  -0.516478  0  2.185703  0  0  -0.538062  0  2.17553  0  0  -0.281947  -0.501408  0  2.191901  0
O  O92  1  0.85447568  0.08721958  0.98624904  1  0  -0.273858  0  2.306492  0  0  -0.203431  0  2.538677  0  0  -0.220452  0  2.539143  0  0  -0.181889  -0.191341  0  2.537643  0
O  O93  1  0.14552330  0.91277934  0.01375190  1  0  -0.273863  0  2.306458  0  0  -0.203409  0  2.538688  0  0  -0.220424  0  2.539156  0  0  -0.18189  -0.191318  0  2.537652  0
O  O94  1  0.54993725  0.84423157  0.88142743  1  0  -0.536445  0  2.112242  0  0  -0.475728  0  2.328869  0  0  -0.491832  0  2.314224  0  0  -0.396335  -0.464466  0  2.337936  0
O  O95  1  0.45006280  0.15576734  0.11857360  1  0  -0.536441  0  2.112228  0  0  -0.4757  0  2.328828  0  0  -0.491801  0  2.314186  0  0  -0.396332  -0.464436  0  2.337895  0
O  O96  1  0.19979305  0.71435523  0.46283226  1  0  -0.722861  0  2.062956  0  0  -0.674457  0  2.315804  0  0  -0.708006  0  2.301495  0  0  -0.394993  -0.657237  0  2.323552  0
O  O97  1  0.80020912  0.28564586  0.53716849  1  0  -0.722935  0  2.062931  0  0  -0.674551  0  2.315793  0  0  -0.708103  0  2.301479  0  0  -0.395051  -0.657331  0  2.323541  0
O  O98  1  0.93280806  0.61190727  0.43931020  1  0  -0.756003  0  2.099577  0  0  -0.703161  0  2.370926  0  0  -0.740226  0  2.354849  0  0  -0.425284  -0.684984  0  2.380371  0
O  O99  1  0.06719356  0.38809491  0.56068990  1  0  -0.756002  0  2.099559  0  0  -0.703171  0  2.370897  0  0  -0.740236  0  2.354814  0  0  -0.425316  -0.684995  0  2.380344  0
O  O100  1  0.48439696  0.22063606  0.43510944  1  0  -0.720724  0  2.046681  0  0  -0.663974  0  2.292333  0  0  -0.697268  0  2.279157  0  0  -0.373688  -0.646748  0  2.300653  0
O  O101  1  0.51560419  0.77936284  0.56488940  1  0  -0.720759  0  2.046726  0  0  -0.664012  0  2.292388  0  0  -0.697299  0  2.279205  0  0  -0.373708  -0.646785  0  2.300711  0
O  O102  1  0.34900547  0.35551265  0.45979806  1  0  -0.760888  0  2.110505  0  0  -0.708672  0  2.377451  0  0  -0.746719  0  2.366266  0  0  -0.386996  -0.690697  0  2.385442  0
O  O103  1  0.65099512  0.64448734  0.54020164  1  0  -0.760915  0  2.110493  0  0  -0.708694  0  2.377445  0  0  -0.746742  0  2.366261  0  0  -0.386999  -0.690718  0  2.385436  0
O  O104  1  0.78168482  0.98000911  0.29326018  1  0  -0.285005  0  2.300544  0  0  -0.213329  0  2.533346  0  0  -0.230485  0  2.534512  0  0  -0.185336  -0.20167  0  2.532023  0
O  O105  1  0.21831739  0.01998979  0.70674027  1  0  -0.285148  0  2.300567  0  0  -0.213393  0  2.53336  0  0  -0.230551  0  2.534521  0  0  -0.185369  -0.201729  0  2.532034  0
O  O106  1  0.53390878  0.05589411  0.27837431  1  0  -0.561683  0  2.185405  0  0  -0.490054  0  2.405027  0  0  -0.509429  0  2.394123  0  0  -0.381362  -0.476424  0  2.412293  0
O  O107  1  0.46609500  0.94410587  0.72162796  1  0  -0.56167  0  2.185325  0  0  -0.490003  0  2.404943  0  0  -0.509371  0  2.394043  0  0  -0.381353  -0.476378  0  2.4122  0
O  O108  1  0.22277132  0.67358244  0.67275200  1  0  -0.896907  0  1.863768  0  0  -0.848897  0  2.057748  0  0  -0.875946  0  2.021068  0  0  -0.64377  -0.835272  0  2.080276  0
O  O109  1  0.77722923  0.32641974  0.32724800  1  0  -0.896956  0  1.863662  0  0  -0.848941  0  2.057637  0  0  -0.875991  0  2.020952  0  0  -0.643806  -0.835316  0  2.080164  0
O  O110  1  0.42393671  0.52988736  0.67521028  1  0  -0.940643  0  1.877843  0  0  -0.89269  0  2.079244  0  0  -0.921009  0  2.041712  0  0  -0.657127  -0.878952  0  2.103176  0
O  O111  1  0.57606438  0.47011373  0.32479038  1  0  -0.940631  0  1.877824  0  0  -0.892682  0  2.079234  0  0  -0.921002  0  2.041703  0  0  -0.657136  -0.878944  0  2.103166  0
