# generated using pymatgen
data_Zn2H12(CO)7
_symmetry_space_group_name_H-M   'P 1'
_cell_length_a   5.94760424
_cell_length_b   7.73227217
_cell_length_c   12.49722027
_cell_angle_alpha   90.00120171
_cell_angle_beta   89.99967710
_cell_angle_gamma   89.99979452
_symmetry_Int_Tables_number   1
_chemical_formula_structural   Zn2H12(CO)7
_chemical_formula_sum   'Zn4 H24 C14 O14'
_cell_volume   574.72834829
_cell_formula_units_Z   2
loop_
 _symmetry_equiv_pos_site_id
 _symmetry_equiv_pos_as_xyz
  1  'x, y, z'
loop_
 _atom_site_type_symbol
 _atom_site_label
 _atom_site_symmetry_multiplicity
 _atom_site_fract_x
 _atom_site_fract_y
 _atom_site_fract_z
 _atom_site_occupancy
 _atom_site_hle17_bader_spin_density
 _atom_site_hle17_ddec_charge
 _atom_site_hle17_ddec_spin_density
 _atom_site_hle17_ddec_sum_bond_order
 _atom_site_hle17_magmom
 _atom_site_hse06_10hf_bader_spin_density
 _atom_site_hse06_10hf_ddec_charge
 _atom_site_hse06_10hf_ddec_spin_density
 _atom_site_hse06_10hf_ddec_sum_bond_order
 _atom_site_hse06_10hf_magmom
 _atom_site_hse06_bader_spin_density
 _atom_site_hse06_ddec_charge
 _atom_site_hse06_ddec_spin_density
 _atom_site_hse06_ddec_sum_bond_order
 _atom_site_hse06_magmom
 _atom_site_pbe_bader_spin_density
 _atom_site_pbe_cm5_charge
 _atom_site_pbe_ddec_charge
 _atom_site_pbe_ddec_spin_density
 _atom_site_pbe_ddec_sum_bond_order
 _atom_site_pbe_magmom
Zn  Zn0  1  0.50224442  0.87409563  0.63040546  1  0  1.135961  0  1.783823  0  0  0.960465  0  2.262181  0  0  1.011185  0  2.197179  0  0  0.683498  0.924513  0  2.307264  0
Zn  Zn1  1  0.50227121  0.87404744  0.36958906  1  0  1.135614  0  1.784028  0  0  0.960145  0  2.262407  0  0  1.010867  0  2.197417  0  0  0.683469  0.924191  0  2.307479  0
Zn  Zn2  1  0.00225519  0.12592499  0.13040345  1  0  1.135828  0  1.784041  0  0  0.960346  0  2.262451  0  0  1.01106  0  2.197446  0  0  0.683494  0.924389  0  2.307529  0
Zn  Zn3  1  0.00226082  0.12593822  0.86958303  1  0  1.13589  0  1.783848  0  0  0.960397  0  2.262295  0  0  1.011112  0  2.19729  0  0  0.683523  0.924448  0  2.307378  0
H  H4  1  0.03848156  0.75515889  0.91496695  1  0  0.127825  0  0.988669  0  0  0.145854  0  1.050604  0  0  0.147634  0  1.050752  0  0  0.093259  0.144537  0  1.050556  0
H  H5  1  0.03855381  0.75513125  0.08503279  1  0  0.127791  0  0.988803  0  0  0.145848  0  1.050688  0  0  0.14763  0  1.050833  0  0  0.093265  0.144536  0  1.050634  0
H  H6  1  0.53852281  0.24482301  0.41496203  1  0  0.127729  0  0.988701  0  0  0.145764  0  1.050637  0  0  0.147543  0  1.050788  0  0  0.093262  0.14445  0  1.050587  0
H  H7  1  0.53851002  0.24487619  0.58502385  1  0  0.127815  0  0.988794  0  0  0.145883  0  1.050662  0  0  0.147665  0  1.050809  0  0  0.093242  0.144569  0  1.050611  0
H  H8  1  0.94206320  0.56039279  0.84912979  1  0  0.156655  0  0.95365  0  0  0.172056  0  1.013998  0  0  0.175241  0  1.012893  0  0  0.100554  0.169741  0  1.014863  0
H  H9  1  0.94214979  0.56036598  0.15086251  1  0  0.156508  0  0.953842  0  0  0.171944  0  1.01415  0  0  0.175129  0  1.013048  0  0  0.100452  0.169631  0  1.015014  0
H  H10  1  0.44208376  0.43958625  0.34913444  1  0  0.156624  0  0.953755  0  0  0.172073  0  1.014051  0  0  0.175256  0  1.012951  0  0  0.100551  0.169763  0  1.014907  0
H  H11  1  0.44212398  0.43964415  0.65087754  1  0  0.156592  0  0.95374  0  0  0.172013  0  1.014073  0  0  0.175198  0  1.012972  0  0  0.100507  0.169699  0  1.014939  0
H  H12  1  0.15611644  0.68793591  0.79069630  1  0  0.162594  0  0.926263  0  0  0.181392  0  0.985046  0  0  0.18483  0  0.982883  0  0  0.109416  0.178921  0  0.986657  0
H  H13  1  0.15617879  0.68793428  0.20930301  1  0  0.162474  0  0.926419  0  0  0.18135  0  0.985091  0  0  0.184768  0  0.982951  0  0  0.109408  0.178886  0  0.986695  0
H  H14  1  0.65614213  0.31205339  0.29069070  1  0  0.162599  0  0.926362  0  0  0.181405  0  0.98512  0  0  0.184849  0  0.982949  0  0  0.109447  0.178933  0  0.986729  0
H  H15  1  0.65615811  0.31207438  0.70929579  1  0  0.162576  0  0.926368  0  0  0.181394  0  0.985099  0  0  0.184825  0  0.982945  0  0  0.10948  0.178922  0  0.986711  0
H  H16  1  0.86944570  0.16873649  0.50000079  1  0  0.054609  0  0.966317  0  0  0.075166  0  1.032743  0  0  0.07477  0  1.03367  0  0  0.083872  0.075342  0  1.032169  0
H  H17  1  0.36945105  0.83125273  0.99997233  1  0  0.054591  0  0.966245  0  0  0.075155  0  1.032678  0  0  0.074757  0  1.033609  0  0  0.083828  0.075332  0  1.032103  0
H  H18  1  0.96172188  0.98293549  0.57164133  1  0  0.072748  0  0.963675  0  0  0.089877  0  1.030526  0  0  0.089975  0  1.031377  0  0  0.087455  0.089711  0  1.030051  0
H  H19  1  0.96174628  0.98292930  0.42835266  1  0  0.072713  0  0.963637  0  0  0.089819  0  1.030534  0  0  0.089916  0  1.031386  0  0  0.087412  0.089656  0  1.030049  0
H  H20  1  0.46172997  0.01703584  0.07164664  1  0  0.072729  0  0.963551  0  0  0.089828  0  1.030447  0  0  0.089927  0  1.031297  0  0  0.087434  0.089663  0  1.029968  0
H  H21  1  0.46176011  0.01708331  0.92835475  1  0  0.072726  0  0.963498  0  0  0.089777  0  1.030477  0  0  0.089878  0  1.031326  0  0  0.087405  0.089614  0  1.029992  0
H  H22  1  0.83539700  0.60504165  0.50001260  1  0  0.146851  0  0.932095  0  0  0.167421  0  0.991364  0  0  0.170138  0  0.990144  0  0  0.105825  0.165474  0  0.992293  0
H  H23  1  0.33540103  0.39495217  0.00002305  1  0  0.14684  0  0.932071  0  0  0.167392  0  0.991378  0  0  0.170112  0  0.990152  0  0  0.105841  0.165445  0  0.992307  0
H  H24  1  0.99591378  0.45192727  0.57276513  1  0  0.140574  0  0.93828  0  0  0.160892  0  0.994127  0  0  0.162998  0  0.994009  0  0  0.100897  0.159362  0  0.994262  0
H  H25  1  0.99591466  0.45192233  0.42725597  1  0  0.14057  0  0.93836  0  0  0.160897  0  0.994152  0  0  0.162998  0  0.994037  0  0  0.100905  0.159362  0  0.994296  0
H  H26  1  0.49591180  0.54808154  0.07276885  1  0  0.140598  0  0.938277  0  0  0.160915  0  0.994116  0  0  0.16302  0  0.993999  0  0  0.100926  0.159382  0  0.994255  0
H  H27  1  0.49588984  0.54807595  0.92725887  1  0  0.140478  0  0.938388  0  0  0.160823  0  0.994185  0  0  0.162932  0  0.99406  0  0  0.100892  0.159288  0  0.99433  0
C  C28  1  0.83249777  0.79734535  0.77652740  1  0  0.776864  0  3.792231  0  0  0.73332  0  4.080301  0  0  0.768595  0  4.072565  0  0  0.225142  0.709194  0  4.084815  0
C  C29  1  0.83250951  0.79732477  0.22347161  1  0  0.776548  0  3.792752  0  0  0.733322  0  4.080309  0  0  0.76859  0  4.07258  0  0  0.225279  0.709196  0  4.08482  0
C  C30  1  0.33249460  0.20263413  0.27652483  1  0  0.776913  0  3.792104  0  0  0.733429  0  4.080059  0  0  0.76869  0  4.072335  0  0  0.225216  0.709299  0  4.084576  0
C  C31  1  0.33251545  0.20270990  0.72346982  1  0  0.777245  0  3.791876  0  0  0.733686  0  4.079836  0  0  0.768963  0  4.072086  0  0  0.225583  0.709556  0  4.084358  0
C  C32  1  0.00069894  0.69327807  0.83825192  1  0  -0.475331  0  3.639102  0  0  -0.547429  0  3.863988  0  0  -0.556001  0  3.866245  0  0  -0.247335  -0.541332  0  3.862367  0
C  C33  1  0.00076522  0.69325679  0.16174387  1  0  -0.475041  0  3.639067  0  0  -0.547344  0  3.86376  0  0  -0.555894  0  3.866028  0  0  -0.247382  -0.541258  0  3.862134  0
C  C34  1  0.50071794  0.30670529  0.33824864  1  0  -0.475247  0  3.639066  0  0  -0.547442  0  3.863882  0  0  -0.556014  0  3.866147  0  0  -0.247407  -0.541344  0  3.862261  0
C  C35  1  0.50074289  0.30675708  0.66173818  1  0  -0.475221  0  3.639153  0  0  -0.547438  0  3.863994  0  0  -0.556004  0  3.866253  0  0  -0.24743  -0.541343  0  3.862375  0
C  C36  1  0.87042469  0.02620788  0.49999662  1  0  -0.013388  0  3.714682  0  0  -0.103723  0  3.970521  0  0  -0.096583  0  3.978336  0  0  -0.16924  -0.10857  0  3.965178  0
C  C37  1  0.37043587  0.97378781  0.99999170  1  0  -0.013307  0  3.714443  0  0  -0.10359  0  3.97031  0  0  -0.096454  0  3.978127  0  0  -0.169198  -0.108439  0  3.964966  0
C  C38  1  0.18548809  0.65803312  0.50000341  1  0  0.773014  0  3.818172  0  0  0.728484  0  4.111876  0  0  0.763241  0  4.104722  0  0  0.228176  0.704776  0  4.115923  0
C  C39  1  0.68548670  0.34198166  0.00001102  1  0  0.772688  0  3.818126  0  0  0.728494  0  4.111393  0  0  0.763202  0  4.104282  0  0  0.228166  0.70479  0  4.115436  0
C  C40  1  0.99328266  0.53093133  0.50000949  1  0  -0.449836  0  3.628325  0  0  -0.525708  0  3.855534  0  0  -0.533878  0  3.859512  0  0  -0.23992  -0.519911  0  3.852648  0
C  C41  1  0.49328958  0.46906737  0.00001614  1  0  -0.449598  0  3.62874  0  0  -0.525579  0  3.855837  0  0  -0.533731  0  3.859818  0  0  -0.239925  -0.519782  0  3.852947  0
O  O42  1  0.69879919  0.71710931  0.71376588  1  0  -0.634342  0  1.992744  0  0  -0.556115  0  2.246029  0  0  -0.586604  0  2.231873  0  0  -0.31017  -0.534905  0  2.255154  0
O  O43  1  0.69885388  0.71706877  0.28623240  1  0  -0.634133  0  1.992843  0  0  -0.556118  0  2.246043  0  0  -0.586606  0  2.23188  0  0  -0.31026  -0.534909  0  2.255164  0
O  O44  1  0.19882578  0.28288908  0.21375719  1  0  -0.634351  0  1.992851  0  0  -0.556171  0  2.246136  0  0  -0.586651  0  2.231975  0  0  -0.310177  -0.534958  0  2.25526  0
O  O45  1  0.19883410  0.28294876  0.78624770  1  0  -0.634652  0  1.992564  0  0  -0.556317  0  2.245683  0  0  -0.586818  0  2.231543  0  0  -0.310432  -0.535105  0  2.254814  0
O  O46  1  0.64446354  0.96060095  0.49999366  1  0  -0.736358  0  2.213618  0  0  -0.621296  0  2.553305  0  0  -0.652537  0  2.531302  0  0  -0.419136  -0.599157  0  2.56785  0
O  O47  1  0.14448060  0.03939902  0.99999045  1  0  -0.736477  0  2.213624  0  0  -0.621428  0  2.553301  0  0  -0.652654  0  2.531277  0  0  -0.419148  -0.599292  0  2.567847  0
O  O48  1  0.25878917  0.70852421  0.59068142  1  0  -0.665686  0  2.058261  0  0  -0.589675  0  2.32604  0  0  -0.619385  0  2.310215  0  0  -0.315578  -0.569023  0  2.33639  0
O  O49  1  0.25884407  0.70845791  0.40933070  1  0  -0.665516  0  2.058862  0  0  -0.58957  0  2.326749  0  0  -0.619218  0  2.310813  0  0  -0.315398  -0.568925  0  2.337104  0
O  O50  1  0.75883013  0.29150501  0.09068755  1  0  -0.665534  0  2.058482  0  0  -0.589664  0  2.326147  0  0  -0.619346  0  2.310331  0  0  -0.315508  -0.569016  0  2.336496  0
O  O51  1  0.75882520  0.29151048  0.90932639  1  0  -0.665571  0  2.058237  0  0  -0.589702  0  2.325881  0  0  -0.61938  0  2.310064  0  0  -0.315528  -0.569055  0  2.33623  0
O  O52  1  0.32277932  0.03760954  0.71605106  1  0  -0.685541  0  2.074758  0  0  -0.610938  0  2.357901  0  0  -0.641165  0  2.339548  0  0  -0.322118  -0.589823  0  2.369916  0
O  O53  1  0.32277183  0.03753143  0.28394377  1  0  -0.685168  0  2.074584  0  0  -0.610609  0  2.357679  0  0  -0.640879  0  2.339435  0  0  -0.321975  -0.58949  0  2.369682  0
O  O54  1  0.82276561  0.96241326  0.21603829  1  0  -0.685016  0  2.074989  0  0  -0.610551  0  2.357992  0  0  -0.640802  0  2.339714  0  0  -0.321924  -0.589438  0  2.369999  0
O  O55  1  0.82279077  0.96245865  0.78393258  1  0  -0.685059  0  2.074364  0  0  -0.610622  0  2.357669  0  0  -0.64089  0  2.339402  0  0  -0.321894  -0.589498  0  2.369664  0
