# generated using pymatgen
data_ZnH22C24(NO)4
_symmetry_space_group_name_H-M   'P 1'
_cell_length_a   13.94235093
_cell_length_b   14.15187733
_cell_length_c   14.15187988
_cell_angle_alpha   90.00001060
_cell_angle_beta   90.00004347
_cell_angle_gamma   90.00003365
_symmetry_Int_Tables_number   1
_chemical_formula_structural   ZnH22C24(NO)4
_chemical_formula_sum   'Zn4 H88 C96 N16 O16'
_cell_volume   2792.31364610
_cell_formula_units_Z   4
loop_
 _symmetry_equiv_pos_site_id
 _symmetry_equiv_pos_as_xyz
  1  'x, y, z'
loop_
 _atom_site_type_symbol
 _atom_site_label
 _atom_site_symmetry_multiplicity
 _atom_site_fract_x
 _atom_site_fract_y
 _atom_site_fract_z
 _atom_site_occupancy
 _atom_site_pbe_bader_charge
 _atom_site_pbe_bader_spin_density
 _atom_site_pbe_cm5_charge
 _atom_site_pbe_ddec_charge
 _atom_site_pbe_ddec_spin_density
 _atom_site_pbe_ddec_sum_bond_order
 _atom_site_pbe_magmom
Zn  Zn0  1  0.05895325  0.99999955  0.50000083  1  1.25089  0  0.702092  0.787405  0  2.443621  0
Zn  Zn1  1  0.05895329  0.49999950  0.99999937  1  1.250878  0  0.702057  0.787373  0  2.443651  0
Zn  Zn2  1  0.55895290  0.50000035  0.99999956  1  1.250897  0  0.702066  0.787395  0  2.443584  0
Zn  Zn3  1  0.55895285  0.99999969  0.49999960  1  1.250896  0  0.70205  0.787328  0  2.443655  0
H  H4  1  0.01689985  0.21366004  0.51074984  1  0.106641  0  0.12389  0.119735  0  1.001616  0
H  H5  1  0.01689982  0.48925031  0.21366071  1  0.106664  0  0.123902  0.119723  0  1.001623  0
H  H6  1  0.01689929  0.78634095  0.48925239  1  0.106674  0  0.123901  0.119689  0  1.001598  0
H  H7  1  0.01690076  0.51074998  0.78634011  1  0.106679  0  0.123898  0.119688  0  1.0016  0
H  H8  1  0.51690072  0.28634025  0.01074932  1  0.106683  0  0.123875  0.119698  0  1.001593  0
H  H9  1  0.51690032  0.98925055  0.28634034  1  0.106681  0  0.12388  0.119716  0  1.00157  0
H  H10  1  0.51690123  0.71366033  0.98925046  1  0.106687  0  0.123892  0.119711  0  1.001584  0
H  H11  1  0.51690091  0.01075003  0.71366015  1  0.106683  0  0.123902  0.119697  0  1.001595  0
H  H12  1  0.13406876  0.34879408  0.42383211  1  0.087785  0  0.125541  0.123648  0  1.001427  0
H  H13  1  0.13407024  0.57616815  0.34879334  1  0.087831  0  0.12554  0.123698  0  1.001401  0
H  H14  1  0.13406963  0.65120557  0.57616879  1  0.087787  0  0.125553  0.123713  0  1.001359  0
H  H15  1  0.13407031  0.42383079  0.65120615  1  0.087814  0  0.125543  0.123675  0  1.001373  0
H  H16  1  0.63406994  0.15120636  0.92383158  1  0.087823  0  0.125536  0.123666  0  1.001407  0
H  H17  1  0.63407034  0.07616818  0.15120630  1  0.087823  0  0.125535  0.123676  0  1.001403  0
H  H18  1  0.63406982  0.84879359  0.07616829  1  0.087816  0  0.125555  0.123731  0  1.001405  0
H  H19  1  0.63407014  0.92383176  0.84879427  1  0.087815  0  0.125533  0.123664  0  1.001402  0
H  H20  1  0.33973986  0.06004376  0.40037733  1  0.102887  0  0.101433  0.114834  0  0.995007  0
H  H21  1  0.33974133  0.59962302  0.06004238  1  0.10286  0  0.101456  0.114857  0  0.99497  0
H  H22  1  0.33974235  0.93995813  0.59962373  1  0.102822  0  0.101452  0.114853  0  0.994941  0
H  H23  1  0.33974232  0.40037604  0.93995656  1  0.102858  0  0.101457  0.114861  0  0.994948  0
H  H24  1  0.83974193  0.43995680  0.90037614  1  0.102858  0  0.101455  0.114862  0  0.994951  0
H  H25  1  0.83974237  0.09962382  0.43995742  1  0.102847  0  0.101454  0.11486  0  0.994942  0
H  H26  1  0.83974094  0.56004326  0.09962388  1  0.102877  0  0.10145  0.114845  0  0.994961  0
H  H27  1  0.83974194  0.90037625  0.56004260  1  0.102856  0  0.101454  0.114863  0  0.994958  0
H  H28  1  0.23704799  0.98697375  0.39924467  1  0.069036  0  0.102685  0.107776  0  1.017344  0
H  H29  1  0.23704953  0.60075508  0.98697291  1  0.069128  0  0.102693  0.10777  0  1.017337  0
H  H30  1  0.23704993  0.01302596  0.60075632  1  0.069152  0  0.1027  0.107785  0  1.017319  0
H  H31  1  0.23704982  0.39924392  0.01302666  1  0.069141  0  0.1027  0.10777  0  1.017366  0
H  H32  1  0.73704980  0.51302693  0.89924340  1  0.069155  0  0.102705  0.107791  0  1.017339  0
H  H33  1  0.73705025  0.10075580  0.51302683  1  0.069138  0  0.102694  0.107769  0  1.017345  0
H  H34  1  0.73704877  0.48697378  0.10075584  1  0.06915  0  0.1027  0.107774  0  1.01734  0
H  H35  1  0.73704976  0.89924420  0.48697312  1  0.069137  0  0.102696  0.107776  0  1.01736  0
H  H36  1  0.19862944  0.03089563  0.23448483  1  0.095197  0  0.090851  0.131144  0  0.998051  0
H  H37  1  0.19863030  0.76551475  0.03089498  1  0.095216  0  0.09084  0.131121  0  0.998013  0
H  H38  1  0.19863064  0.96910477  0.76551613  1  0.094444  0  0.09083  0.131118  0  0.998039  0
H  H39  1  0.19863050  0.23448352  0.96910598  1  0.094433  0  0.090813  0.13109  0  0.998079  0
H  H40  1  0.69863081  0.46910623  0.73448364  1  0.094437  0  0.090817  0.131103  0  0.998048  0
H  H41  1  0.69863065  0.26551484  0.46910545  1  0.094446  0  0.090834  0.131111  0  0.998031  0
H  H42  1  0.69863065  0.53089446  0.26551627  1  0.094436  0  0.090816  0.131102  0  0.998051  0
H  H43  1  0.69863081  0.73448372  0.53089446  1  0.094442  0  0.090829  0.131114  0  0.998036  0
H  H44  1  0.31630572  0.98465322  0.24276725  1  0.030092  0  0.087897  0.119375  0  1.000914  0
H  H45  1  0.31630594  0.75723329  0.98465312  1  0.030422  0  0.087908  0.119376  0  1.000904  0
H  H46  1  0.31630635  0.01534654  0.75723379  1  0.030417  0  0.087904  0.119377  0  1.000918  0
H  H47  1  0.31630613  0.24276576  0.01534792  1  0.030392  0  0.0879  0.11937  0  1.000917  0
H  H48  1  0.81630682  0.51534748  0.74276528  1  0.030392  0  0.087879  0.119351  0  1.000935  0
H  H49  1  0.81630665  0.25723471  0.51534741  1  0.030396  0  0.087892  0.11935  0  1.000936  0
H  H50  1  0.81630662  0.48465257  0.25723402  1  0.030396  0  0.087882  0.119364  0  1.000918  0
H  H51  1  0.81630607  0.74276605  0.48465259  1  0.0304  0  0.087888  0.119341  0  1.000938  0
H  H52  1  0.29961889  0.10863446  0.22938308  1  0.035041  0  0.081836  0.107372  0  1.030043  0
H  H53  1  0.29961904  0.77061658  0.10863381  1  0.035044  0  0.081849  0.10738  0  1.030037  0
H  H54  1  0.29962005  0.89136600  0.77061725  1  0.035033  0  0.081851  0.107366  0  1.03005  0
H  H55  1  0.29962061  0.22938175  0.89136722  1  0.035047  0  0.081868  0.1074  0  1.030024  0
H  H56  1  0.79962021  0.39136675  0.72938188  1  0.03503  0  0.081844  0.107371  0  1.030037  0
H  H57  1  0.79961932  0.27061737  0.39136600  1  0.035037  0  0.081852  0.107382  0  1.03003  0
H  H58  1  0.79962010  0.60863329  0.27061811  1  0.035031  0  0.081851  0.107382  0  1.030048  0
H  H59  1  0.79962026  0.72938196  0.60863329  1  0.03504  0  0.081856  0.107376  0  1.030033  0
H  H60  1  0.40630832  0.21430671  0.41819126  1  0.104033  0  0.106527  0.11994  0  1.027137  0
H  H61  1  0.40631122  0.58180917  0.21430672  1  0.104027  0  0.10655  0.119947  0  1.027055  0
H  H62  1  0.40631142  0.78569381  0.58180703  1  0.103987  0  0.106528  0.11993  0  1.027074  0
H  H63  1  0.40630995  0.41819064  0.78569510  1  0.104015  0  0.106538  0.119936  0  1.027092  0
H  H64  1  0.90630957  0.28569319  0.91819216  1  0.104018  0  0.106536  0.119939  0  1.027073  0
H  H65  1  0.90631070  0.08180781  0.28569384  1  0.104005  0  0.106522  0.119903  0  1.027114  0
H  H66  1  0.90631010  0.71430550  0.08180932  1  0.104025  0  0.106529  0.119925  0  1.027098  0
H  H67  1  0.90630968  0.91819229  0.71430553  1  0.103999  0  0.106535  0.119949  0  1.027054  0
H  H68  1  0.53101898  0.29614817  0.31926735  1  0.071978  0  0.106907  0.113503  0  0.996563  0
H  H69  1  0.53101908  0.68073601  0.29614678  1  0.071983  0  0.106892  0.113474  0  0.996676  0
H  H70  1  0.53101996  0.70385454  0.68073456  1  0.071958  0  0.106921  0.113521  0  0.996569  0
H  H71  1  0.53102057  0.31926387  0.70385371  1  0.07197  0  0.106908  0.113499  0  0.996562  0
H  H72  1  0.03102025  0.20385360  0.81926433  1  0.071978  0  0.106892  0.11347  0  0.996625  0
H  H73  1  0.03102144  0.18073506  0.20385280  1  0.071954  0  0.106911  0.113524  0  0.996521  0
H  H74  1  0.03102090  0.79614740  0.18073650  1  0.071979  0  0.106904  0.113488  0  0.996589  0
H  H75  1  0.03102043  0.81926595  0.79614732  1  0.071966  0  0.106919  0.113541  0  0.996511  0
H  H76  1  0.30983602  0.41329439  0.14428063  1  0.098181  0  0.104075  0.106728  0  1.030563  0
H  H77  1  0.30983625  0.85571911  0.41329511  1  0.098201  0  0.104074  0.106729  0  1.030556  0
H  H78  1  0.30983850  0.58670678  0.85571970  1  0.098223  0  0.104086  0.106754  0  1.030534  0
H  H79  1  0.30983754  0.14427924  0.58670522  1  0.098176  0  0.104075  0.106737  0  1.030523  0
H  H80  1  0.80983787  0.08670540  0.64427938  1  0.098175  0  0.104079  0.10674  0  1.030522  0
H  H81  1  0.80983846  0.35572125  0.08670542  1  0.098174  0  0.104078  0.106757  0  1.03051  0
H  H82  1  0.80983729  0.91329606  0.35572062  1  0.09816  0  0.104063  0.106705  0  1.030553  0
H  H83  1  0.80983814  0.64427880  0.91329387  1  0.098174  0  0.104083  0.106759  0  1.030498  0
H  H84  1  0.18498764  0.32867732  0.23712973  1  0.126578  0  0.105261  0.122638  0  1.036312  0
H  H85  1  0.18498853  0.76286848  0.32867662  1  0.126595  0  0.105271  0.122662  0  1.036306  0
H  H86  1  0.18499082  0.67132378  0.76286910  1  0.126629  0  0.10527  0.122671  0  1.036271  0
H  H87  1  0.18498922  0.23712908  0.67132080  1  0.1266  0  0.105264  0.122675  0  1.036266  0
H  H88  1  0.68498883  0.17132100  0.73712920  1  0.126603  0  0.105251  0.122654  0  1.036237  0
H  H89  1  0.68498936  0.26286993  0.17132169  1  0.126612  0  0.105261  0.122664  0  1.036239  0
H  H90  1  0.68498813  0.82867968  0.26287000  1  0.126592  0  0.105255  0.122655  0  1.036269  0
H  H91  1  0.68498904  0.73712863  0.82867822  1  0.126596  0  0.10526  0.122656  0  1.036293  0
C  C92  1  0.08278470  0.20581799  0.47092971  1  0.415674  0  -0.00083  -0.025258  0  4.027098  0
C  C93  1  0.08278541  0.52907119  0.20581797  1  0.415686  0  -0.000815  -0.025169  0  4.027085  0
C  C94  1  0.08278490  0.79418163  0.52907257  1  0.415808  0  -0.000835  -0.025168  0  4.027071  0
C  C95  1  0.08278562  0.47092772  0.79418078  1  0.415803  0  -0.00086  -0.025145  0  4.027028  0
C  C96  1  0.58278596  0.29418172  0.97092850  1  0.41581  0  -0.000806  -0.025146  0  4.026943  0
C  C97  1  0.58278563  0.02907266  0.29418093  1  0.4158  0  -0.000815  -0.025178  0  4.027024  0
C  C98  1  0.58278644  0.70581819  0.02907133  1  0.415696  0  -0.000803  -0.025151  0  4.027012  0
C  C99  1  0.58278606  0.97092795  0.70581890  1  0.415802  0  -0.000861  -0.025163  0  4.027021  0
C  C100  1  0.13908009  0.27264730  0.42880813  1  0.32125  0  -0.000227  -0.106164  0  3.961173  0
C  C101  1  0.13908084  0.57119283  0.27264657  1  0.32124  0  -0.000243  -0.106274  0  3.961298  0
C  C102  1  0.13907956  0.72735306  0.57119420  1  0.321267  0  -0.000251  -0.106264  0  3.961226  0
C  C103  1  0.13908097  0.42880682  0.72735293  1  0.321213  0  -0.000203  -0.106198  0  3.961172  0
C  C104  1  0.63908131  0.22735315  0.92880690  1  0.321237  0  -0.000208  -0.106183  0  3.961213  0
C  C105  1  0.63908171  0.07119288  0.22735308  1  0.321231  0  -0.000242  -0.106252  0  3.961289  0
C  C106  1  0.63908114  0.77264750  0.07119297  1  0.321222  0  -0.000244  -0.106274  0  3.961232  0
C  C107  1  0.63908146  0.92880706  0.77264679  1  0.321226  0  -0.000199  -0.106186  0  3.961201  0
C  C108  1  0.20422400  0.13001677  0.40601611  1  0.963818  0  0.233047  0.309796  0  3.879512  0
C  C109  1  0.20422547  0.59398346  0.13001607  1  0.963853  0  0.233015  0.30982  0  3.879545  0
C  C110  1  0.20422717  0.86998292  0.59398343  1  0.963856  0  0.233041  0.309893  0  3.879517  0
C  C111  1  0.20422570  0.40601553  0.86998347  1  0.963814  0  0.232997  0.309793  0  3.879594  0
C  C112  1  0.70422603  0.36998300  0.90601491  1  0.963803  0  0.233037  0.309859  0  3.879537  0
C  C113  1  0.70422574  0.09398424  0.36998363  1  0.963821  0  0.232988  0.309774  0  3.879568  0
C  C114  1  0.70422579  0.63001698  0.09398501  1  0.963794  0  0.233016  0.309799  0  3.879593  0
C  C115  1  0.70422536  0.90601504  0.63001700  1  0.963819  0  0.233029  0.30982  0  3.879587  0
C  C116  1  0.26718609  0.05267228  0.37077346  1  0.00622  0  -0.154359  -0.207841  0  3.978748  0
C  C117  1  0.26718757  0.62922614  0.05267231  1  0.00612  0  -0.154343  -0.207803  0  3.978751  0
C  C118  1  0.26718861  0.94732745  0.62922684  1  0.006132  0  -0.15439  -0.207861  0  3.978677  0
C  C119  1  0.26718784  0.37077217  0.94732799  1  0.00612  0  -0.154358  -0.207832  0  3.978739  0
C  C120  1  0.76718816  0.44732753  0.87077228  1  0.006117  0  -0.154366  -0.207866  0  3.978722  0
C  C121  1  0.76718862  0.12922693  0.44732815  1  0.006117  0  -0.154329  -0.207799  0  3.978739  0
C  C122  1  0.76718719  0.55267249  0.12922769  1  0.006119  0  -0.154367  -0.20781  0  3.978682  0
C  C123  1  0.76718816  0.87077238  0.55267182  1  0.006115  0  -0.154363  -0.20786  0  3.978751  0
C  C124  1  0.27059150  0.04465213  0.26263023  1  -0.12741  0  -0.242616  -0.339121  0  3.932768  0
C  C125  1  0.27059234  0.73736939  0.04465219  1  -0.127753  0  -0.242656  -0.339149  0  3.932785  0
C  C126  1  0.27059267  0.95534760  0.73737007  1  -0.126979  0  -0.242634  -0.339115  0  3.93277  0
C  C127  1  0.27059255  0.26262963  0.95534882  1  -0.126974  0  -0.24264  -0.339126  0  3.932801  0
C  C128  1  0.77059285  0.45534836  0.76262905  1  -0.126962  0  -0.24259  -0.339079  0  3.932748  0
C  C129  1  0.77059267  0.23737019  0.45534830  1  -0.126972  0  -0.242636  -0.339102  0  3.932763  0
C  C130  1  0.77059268  0.54465166  0.23737092  1  -0.126969  0  -0.242598  -0.339107  0  3.932737  0
C  C131  1  0.77059286  0.76262983  0.54465167  1  -0.126974  0  -0.242631  -0.339076  0  3.932773  0
C  C132  1  0.28901603  0.26909798  0.33432109  1  0.230742  0  0.09336  0.172306  0  4.014162  0
C  C133  1  0.28901612  0.66567787  0.26909587  1  0.230756  0  0.093349  0.17227  0  4.014144  0
C  C134  1  0.28901845  0.73090459  0.66567711  1  0.230762  0  0.093336  0.172316  0  4.014148  0
C  C135  1  0.28901692  0.33431905  0.73090374  1  0.230874  0  0.093346  0.172319  0  4.014084  0
C  C136  1  0.78901725  0.23090324  0.83431986  1  0.230787  0  0.093339  0.17233  0  4.0141  0
C  C137  1  0.78901772  0.16567933  0.23090391  1  0.230743  0  0.093275  0.172216  0  4.014295  0
C  C138  1  0.78901716  0.76909679  0.16568012  1  0.230793  0  0.093339  0.17232  0  4.014074  0
C  C139  1  0.78901741  0.83431929  0.76909607  1  0.230763  0  0.093336  0.172319  0  4.014043  0
C  C140  1  0.38575080  0.25782389  0.35793424  1  0.008092  0  -0.089354  -0.164556  0  3.964798  0
C  C141  1  0.38575159  0.64206689  0.25782249  1  0.008059  0  -0.089344  -0.164421  0  3.964672  0
C  C142  1  0.38575249  0.74217874  0.64206615  1  0.008138  0  -0.08931  -0.164422  0  3.964907  0
C  C143  1  0.38575169  0.35793361  0.74217790  1  0.008159  0  -0.089367  -0.164482  0  3.964675  0
C  C144  1  0.88575203  0.24217739  0.85793372  1  0.00806  0  -0.089358  -0.164504  0  3.9647  0
C  C145  1  0.88575176  0.14206553  0.24217736  1  0.008084  0  -0.089328  -0.164418  0  3.964837  0
C  C146  1  0.88575191  0.75782269  0.14206633  1  0.008051  0  -0.089341  -0.164454  0  3.964677  0
C  C147  1  0.88575146  0.85793456  0.75782199  1  0.00817  0  -0.089379  -0.164525  0  3.964693  0
C  C148  1  0.45485463  0.30329137  0.30317829  1  -0.005256  0  -0.080296  -0.078558  0  3.974179  0
C  C149  1  0.45485403  0.69682361  0.30328927  1  -0.005234  0  -0.080312  -0.078635  0  3.974403  0
C  C150  1  0.45485562  0.69671271  0.69682215  1  -0.005346  0  -0.080358  -0.078699  0  3.974296  0
C  C151  1  0.45485478  0.30317764  0.69671117  1  -0.005337  0  -0.080291  -0.078612  0  3.974179  0
C  C152  1  0.95485440  0.19670994  0.80317777  1  -0.005222  0  -0.080308  -0.078574  0  3.97432  0
C  C153  1  0.95485560  0.19682153  0.19670993  1  -0.005247  0  -0.080296  -0.07865  0  3.974167  0
C  C154  1  0.95485435  0.80328948  0.19682305  1  -0.005218  0  -0.080306  -0.078617  0  3.974252  0
C  C155  1  0.95485458  0.80317860  0.80328876  1  -0.005341  0  -0.080324  -0.078662  0  3.974178  0
C  C156  1  0.42742022  0.36008665  0.22667397  1  -0.069448  0  -0.022015  -0.048336  0  3.990489  0
C  C157  1  0.42742040  0.77332583  0.36008667  1  -0.069454  0  -0.022021  -0.048348  0  3.990568  0
C  C158  1  0.42742123  0.63991459  0.77332575  1  -0.069447  0  -0.021933  -0.04821  0  3.990563  0
C  C159  1  0.42742106  0.22667400  0.63991305  1  -0.069436  0  -0.021999  -0.048277  0  3.990439  0
C  C160  1  0.92742139  0.13991252  0.72667484  1  -0.069489  0  -0.022004  -0.048363  0  3.990573  0
C  C161  1  0.92742192  0.27332586  0.13991323  1  -0.06944  0  -0.021959  -0.048201  0  3.990412  0
C  C162  1  0.92742071  0.86008760  0.27332666  1  -0.06945  0  -0.022002  -0.048296  0  3.990549  0
C  C163  1  0.92742090  0.72667426  0.86008544  1  -0.069427  0  -0.021967  -0.048273  0  3.990491  0
C  C164  1  0.33000121  0.37027254  0.20474610  1  -0.054379  0  -0.083617  -0.072805  0  3.972404  0
C  C165  1  0.33000140  0.79525292  0.37027185  1  -0.054402  0  -0.083593  -0.072786  0  3.972393  0
C  C166  1  0.33000366  0.62973005  0.79525425  1  -0.054384  0  -0.083711  -0.072965  0  3.972589  0
C  C167  1  0.33000276  0.20474472  0.62972779  1  -0.054274  0  -0.083672  -0.07294  0  3.972392  0
C  C168  1  0.83000237  0.12972726  0.70474486  1  -0.054277  0  -0.083658  -0.072899  0  3.972348  0
C  C169  1  0.83000292  0.29525507  0.12972798  1  -0.054255  0  -0.083688  -0.073005  0  3.972418  0
C  C170  1  0.83000172  0.87027350  0.29525445  1  -0.054394  0  -0.083658  -0.072904  0  3.97243  0
C  C171  1  0.83000261  0.70474428  0.87027133  1  -0.054276  0  -0.083674  -0.072932  0  3.972424  0
C  C172  1  0.26024469  0.32452241  0.25774963  1  0.033975  0  -0.090873  -0.171514  0  3.976605  0
C  C173  1  0.26024484  0.74224933  0.32452172  1  0.034021  0  -0.090888  -0.171536  0  3.97645  0
C  C174  1  0.26024641  0.67547872  0.74225067  1  0.034009  0  -0.090845  -0.171518  0  3.976354  0
C  C175  1  0.26024626  0.25774757  0.67547787  1  0.033863  0  -0.090864  -0.171527  0  3.976502  0
C  C176  1  0.76024659  0.17547666  0.75774839  1  0.033869  0  -0.090835  -0.171489  0  3.976454  0
C  C177  1  0.76024711  0.24225149  0.17547805  1  0.033891  0  -0.090829  -0.171462  0  3.976497  0
C  C178  1  0.76024587  0.82452336  0.24225157  1  0.033981  0  -0.09084  -0.171484  0  3.976439  0
C  C179  1  0.76024608  0.75774711  0.82452191  1  0.033866  0  -0.090831  -0.171474  0  3.976451  0
C  C180  1  0.50168817  0.40783863  0.16617108  1  1.562216  0  0.193078  0.545843  0  4.265047  0
C  C181  1  0.50168696  0.83383090  0.40784007  1  1.562216  0  0.193173  0.546017  0  4.264594  0
C  C182  1  0.50168849  0.59216053  0.83382869  1  1.562215  0  0.19309  0.545844  0  4.265084  0
C  C183  1  0.50168827  0.16616967  0.59215969  1  1.562228  0  0.193166  0.545947  0  4.264912  0
C  C184  1  0.00168723  0.09216098  0.66616946  1  1.562206  0  0.193198  0.546102  0  4.264573  0
C  C185  1  0.00168923  0.33382922  0.09216023  1  1.562223  0  0.193045  0.545777  0  4.26522  0
C  C186  1  0.00168735  0.90783930  0.33383065  1  1.562199  0  0.193148  0.545976  0  4.26475  0
C  C187  1  0.00168893  0.66617107  0.90783917  1  1.56223  0  0.193079  0.545854  0  4.265051  0
N  N188  1  0.12370532  0.11802541  0.45619669  1  -1.233613  0  -0.357191  -0.340373  0  3.57748  0
N  N189  1  0.12370603  0.54380352  0.11802470  1  -1.233599  0  -0.35717  -0.340389  0  3.57748  0
N  N190  1  0.12370630  0.88197494  0.54380350  1  -1.233679  0  -0.35716  -0.340403  0  3.577456  0
N  N191  1  0.12370630  0.45619613  0.88197408  1  -1.233676  0  -0.357148  -0.340399  0  3.577491  0
N  N192  1  0.62370735  0.38197503  0.95619550  1  -1.233672  0  -0.357181  -0.340435  0  3.57739  0
N  N193  1  0.62370631  0.04380430  0.38197423  1  -1.233677  0  -0.357143  -0.340338  0  3.57741  0
N  N194  1  0.62370707  0.61802561  0.04380436  1  -1.233567  0  -0.357162  -0.340393  0  3.577428  0
N  N195  1  0.62370667  0.95619634  0.61802563  1  -1.233677  0  -0.357144  -0.340361  0  3.577405  0
N  N196  1  0.21567618  0.22446219  0.38884738  1  -1.241198  0  -0.220779  -0.037453  0  3.750258  0
N  N197  1  0.21567767  0.61115151  0.22446219  1  -1.241321  0  -0.220782  -0.037504  0  3.750388  0
N  N198  1  0.21567787  0.77553751  0.61115076  1  -1.241337  0  -0.220765  -0.037524  0  3.750399  0
N  N199  1  0.21567710  0.38884607  0.77553737  1  -1.241328  0  -0.220753  -0.037482  0  3.750322  0
N  N200  1  0.71567743  0.27553688  0.88884616  1  -1.241262  0  -0.220765  -0.037514  0  3.750362  0
N  N201  1  0.71567786  0.11115368  0.27553752  1  -1.241258  0  -0.220747  -0.037452  0  3.750327  0
N  N202  1  0.71567727  0.72446240  0.11115376  1  -1.241252  0  -0.220761  -0.037514  0  3.750393  0
N  N203  1  0.71567683  0.88884560  0.72446241  1  -1.241255  0  -0.220752  -0.037502  0  3.750357  0
O  O204  1  0.58902567  0.39762658  0.18281625  1  -1.183214  0  -0.322026  -0.547284  0  2.142068  0
O  O205  1  0.58902445  0.81718790  0.39762662  1  -1.183146  0  -0.322139  -0.547457  0  2.141817  0
O  O206  1  0.58902670  0.60237333  0.81718358  1  -1.183238  0  -0.322049  -0.547308  0  2.14203  0
O  O207  1  0.58902577  0.18281201  0.60237321  1  -1.183193  0  -0.322102  -0.54738  0  2.141985  0
O  O208  1  0.08902617  0.10237379  0.68281251  1  -1.183184  0  -0.322133  -0.547498  0  2.141737  0
O  O209  1  0.08902601  0.31718340  0.10237162  1  -1.183243  0  -0.322021  -0.547239  0  2.142136  0
O  O210  1  0.08902555  0.89762725  0.31718766  1  -1.183175  0  -0.32213  -0.547454  0  2.141807  0
O  O211  1  0.08902571  0.68281694  0.89762855  1  -1.183228  0  -0.322026  -0.54727  0  2.142116  0
O  O212  1  0.46614538  0.45698616  0.09651107  1  -1.180365  0  -0.343241  -0.569057  0  2.333884  0
O  O213  1  0.46614278  0.90348879  0.45698901  1  -1.180451  0  -0.343231  -0.569057  0  2.333918  0
O  O214  1  0.46614571  0.54301298  0.90348797  1  -1.180356  0  -0.343268  -0.569068  0  2.33395  0
O  O215  1  0.46614329  0.09651106  0.54301073  1  -1.18043  0  -0.343249  -0.569068  0  2.333946  0
O  O216  1  0.96614362  0.04301159  0.59651193  1  -1.180409  0  -0.343269  -0.569094  0  2.33386  0
O  O217  1  0.96614566  0.40348951  0.04301306  1  -1.180383  0  -0.343227  -0.56905  0  2.333962  0
O  O218  1  0.96614382  0.95698854  0.40348819  1  -1.18042  0  -0.343232  -0.569032  0  2.333921  0
O  O219  1  0.96614536  0.59650992  0.95698564  1  -1.18037  0  -0.34326  -0.569092  0  2.33382  0
