# generated using pymatgen
data_NaH11C8S(NO)2
_symmetry_space_group_name_H-M   'P 1'
_cell_length_a   7.66814051
_cell_length_b   10.16151721
_cell_length_c   14.21937559
_cell_angle_alpha   108.42059714
_cell_angle_beta   90.00060161
_cell_angle_gamma   89.99916368
_symmetry_Int_Tables_number   1
_chemical_formula_structural   NaH11C8S(NO)2
_chemical_formula_sum   'Na4 H44 C32 S4 N8 O8'
_cell_volume   1051.20313169
_cell_formula_units_Z   4
loop_
 _symmetry_equiv_pos_site_id
 _symmetry_equiv_pos_as_xyz
  1  'x, y, z'
loop_
 _atom_site_type_symbol
 _atom_site_label
 _atom_site_symmetry_multiplicity
 _atom_site_fract_x
 _atom_site_fract_y
 _atom_site_fract_z
 _atom_site_occupancy
 _atom_site_hle17_bader_spin_density
 _atom_site_hle17_ddec_charge
 _atom_site_hle17_ddec_spin_density
 _atom_site_hle17_ddec_sum_bond_order
 _atom_site_hle17_magmom
 _atom_site_hse06_10hf_bader_spin_density
 _atom_site_hse06_10hf_ddec_charge
 _atom_site_hse06_10hf_ddec_spin_density
 _atom_site_hse06_10hf_ddec_sum_bond_order
 _atom_site_hse06_10hf_magmom
 _atom_site_hse06_bader_spin_density
 _atom_site_hse06_ddec_charge
 _atom_site_hse06_ddec_spin_density
 _atom_site_hse06_ddec_sum_bond_order
 _atom_site_hse06_magmom
 _atom_site_pbe_bader_spin_density
 _atom_site_pbe_cm5_charge
 _atom_site_pbe_ddec_charge
 _atom_site_pbe_ddec_spin_density
 _atom_site_pbe_ddec_sum_bond_order
 _atom_site_pbe_magmom
Na  Na0  1  0.54028722  0.50777454  0.88582877  1  0  0.890253  0  0.421696  0  0  0.843551  0  0.585835  0  0  0.854286  0  0.563717  0  0  0.662405  0.835609  0  0.601638  0
Na  Na1  1  0.04028648  0.99223799  0.61417325  1  0  0.890285  0  0.421639  0  0  0.843587  0  0.585776  0  0  0.85433  0  0.563676  0  0  0.66242  0.835653  0  0.60158  0
Na  Na2  1  0.45970756  0.49222922  0.11417046  1  0  0.890281  0  0.421663  0  0  0.843582  0  0.585805  0  0  0.854316  0  0.563686  0  0  0.662455  0.835646  0  0.601596  0
Na  Na3  1  0.95971091  0.00777190  0.38583303  1  0  0.89029  0  0.42164  0  0  0.843597  0  0.585752  0  0  0.854341  0  0.563642  0  0  0.66244  0.835667  0  0.601563  0
H  H4  1  0.25251922  0.23861628  0.67905175  1  0  0.154555  0  0.968346  0  0  0.164181  0  1.028302  0  0  0.16941  0  1.026399  0  0  0.112311  0.1605  0  1.029831  0
H  H5  1  0.75250991  0.26138297  0.82095044  1  0  0.154552  0  0.968321  0  0  0.164178  0  1.028288  0  0  0.169419  0  1.026369  0  0  0.112307  0.160498  0  1.029818  0
H  H6  1  0.74747426  0.76137611  0.32094271  1  0  0.154531  0  0.968448  0  0  0.164147  0  1.028414  0  0  0.169389  0  1.026495  0  0  0.112293  0.160466  0  1.029944  0
H  H7  1  0.24748487  0.73861658  0.17905132  1  0  0.154632  0  0.968521  0  0  0.164237  0  1.028495  0  0  0.169479  0  1.026579  0  0  0.112305  0.160558  0  1.030026  0
H  H8  1  0.32765520  0.95765043  0.36138674  1  0  0.0651  0  0.944677  0  0  0.079908  0  1.008126  0  0  0.081472  0  1.006522  0  0  0.110288  0.078614  0  1.009528  0
H  H9  1  0.82765440  0.54235288  0.13861233  1  0  0.065035  0  0.944689  0  0  0.079864  0  1.008151  0  0  0.081426  0  1.006554  0  0  0.110283  0.078573  0  1.009554  0
H  H10  1  0.67234740  0.04235233  0.63861014  1  0  0.065036  0  0.944663  0  0  0.079825  0  1.008153  0  0  0.081387  0  1.006556  0  0  0.110266  0.078531  0  1.009555  0
H  H11  1  0.17234429  0.45764886  0.86138360  1  0  0.065162  0  0.944676  0  0  0.079865  0  1.008271  0  0  0.081427  0  1.006673  0  0  0.110299  0.078577  0  1.009674  0
H  H12  1  0.53016158  0.00244180  0.31859688  1  0  0.061943  0  0.969678  0  0  0.075886  0  1.038454  0  0  0.076495  0  1.038817  0  0  0.102287  0.075309  0  1.038377  0
H  H13  1  0.03016334  0.49755930  0.18140131  1  0  0.061946  0  0.969714  0  0  0.0759  0  1.038515  0  0  0.076511  0  1.038876  0  0  0.102287  0.075323  0  1.03844  0
H  H14  1  0.46983189  0.99755468  0.68140205  1  0  0.061894  0  0.969679  0  0  0.07584  0  1.038474  0  0  0.07645  0  1.038837  0  0  0.102253  0.075262  0  1.038398  0
H  H15  1  0.96983274  0.50244868  0.81859468  1  0  0.061943  0  0.969705  0  0  0.075906  0  1.038468  0  0  0.076517  0  1.038826  0  0  0.102295  0.075327  0  1.038392  0
H  H16  1  0.66264623  0.57338167  0.62929935  1  0  0.104424  0  0.952144  0  0  0.124033  0  1.015738  0  0  0.125146  0  1.016506  0  0  0.08746  0.123077  0  1.015418  0
H  H17  1  0.16265172  0.92660685  0.87069918  1  0  0.104498  0  0.952085  0  0  0.12407  0  1.01571  0  0  0.125185  0  1.016475  0  0  0.087452  0.123095  0  1.015412  0
H  H18  1  0.33735637  0.42661473  0.37070449  1  0  0.104445  0  0.952078  0  0  0.124036  0  1.015685  0  0  0.125161  0  1.016439  0  0  0.087449  0.123064  0  1.015387  0
H  H19  1  0.83735740  0.07339480  0.12930166  1  0  0.10453  0  0.951967  0  0  0.124135  0  1.015563  0  0  0.125251  0  1.016326  0  0  0.087503  0.12316  0  1.015268  0
H  H20  1  0.73913225  0.50772029  0.50423524  1  0  0.099565  0  0.957446  0  0  0.115678  0  1.025925  0  0  0.116954  0  1.026653  0  0  0.080414  0.11462  0  1.025561  0
H  H21  1  0.23914412  0.99228106  0.99576249  1  0  0.099562  0  0.95757  0  0  0.115685  0  1.026028  0  0  0.116961  0  1.026758  0  0  0.080421  0.114624  0  1.025664  0
H  H22  1  0.26086383  0.49228865  0.49576519  1  0  0.099533  0  0.957545  0  0  0.115652  0  1.026011  0  0  0.116927  0  1.026743  0  0  0.080402  0.1146  0  1.025639  0
H  H23  1  0.76086370  0.00771848  0.00423997  1  0  0.099509  0  0.957555  0  0  0.115654  0  1.025997  0  0  0.116928  0  1.026728  0  0  0.080378  0.114601  0  1.025625  0
H  H24  1  0.88948063  0.57441183  0.60356791  1  0  0.105002  0  0.947742  0  0  0.130007  0  1.003663  0  0  0.130956  0  1.004482  0  0  0.091347  0.129193  0  1.003203  0
H  H25  1  0.38948272  0.92557869  0.89643238  1  0  0.104977  0  0.947735  0  0  0.129973  0  1.003671  0  0  0.130924  0  1.004489  0  0  0.091323  0.12916  0  1.003205  0
H  H26  1  0.11052328  0.42557728  0.39643563  1  0  0.104969  0  0.947665  0  0  0.12996  0  1.00362  0  0  0.13091  0  1.004436  0  0  0.091334  0.129147  0  1.003158  0
H  H27  1  0.61052118  0.07442290  0.10357266  1  0  0.104975  0  0.947676  0  0  0.129977  0  1.003618  0  0  0.130926  0  1.004438  0  0  0.091307  0.129164  0  1.003155  0
H  H28  1  0.81640414  0.37995762  0.66959514  1  0  0.074435  0  0.940967  0  0  0.091668  0  1.000163  0  0  0.093343  0  0.998506  0  0  0.112858  0.090336  0  1.001577  0
H  H29  1  0.31640302  0.12004005  0.83040283  1  0  0.074388  0  0.940912  0  0  0.091614  0  1.000139  0  0  0.093291  0  0.998478  0  0  0.112802  0.090278  0  1.001554  0
H  H30  1  0.18359324  0.62003366  0.33040328  1  0  0.074443  0  0.941006  0  0  0.091702  0  1.000167  0  0  0.093373  0  0.998518  0  0  0.112882  0.090369  0  1.001583  0
H  H31  1  0.68360219  0.87996364  0.16960060  1  0  0.074427  0  0.940937  0  0  0.09165  0  1.00019  0  0  0.093328  0  0.99854  0  0  0.112838  0.090317  0  1.001602  0
H  H32  1  0.89099793  0.31286085  0.54400401  1  0  0.058363  0  0.962093  0  0  0.071159  0  1.030636  0  0  0.072788  0  1.029007  0  0  0.103526  0.069864  0  1.031918  0
H  H33  1  0.39100317  0.18713199  0.95599186  1  0  0.05839  0  0.962134  0  0  0.071196  0  1.030652  0  0  0.072828  0  1.029012  0  0  0.103555  0.069912  0  1.031928  0
H  H34  1  0.10899033  0.68713159  0.45598765  1  0  0.058428  0  0.962093  0  0  0.071229  0  1.030627  0  0  0.072862  0  1.028986  0  0  0.103559  0.069947  0  1.031903  0
H  H35  1  0.60900335  0.81287171  0.04401087  1  0  0.058403  0  0.962052  0  0  0.071241  0  1.030568  0  0  0.072879  0  1.02893  0  0  0.103545  0.06993  0  1.031868  0
H  H36  1  0.18845268  0.16349024  0.31924285  1  0  0.089135  0  0.965116  0  0  0.107632  0  1.034928  0  0  0.109247  0  1.034415  0  0  0.089215  0.106373  0  1.035399  0
H  H37  1  0.68846268  0.33651349  0.18075757  1  0  0.089171  0  0.96496  0  0  0.107644  0  1.034805  0  0  0.109257  0  1.034289  0  0  0.089228  0.106385  0  1.035278  0
H  H38  1  0.81154861  0.83650215  0.68075160  1  0  0.089122  0  0.965082  0  0  0.107598  0  1.034934  0  0  0.109213  0  1.034422  0  0  0.089208  0.106339  0  1.035404  0
H  H39  1  0.31154513  0.66349234  0.81924214  1  0  0.089141  0  0.965046  0  0  0.107617  0  1.034875  0  0  0.109229  0  1.034368  0  0  0.089204  0.106359  0  1.035344  0
H  H40  1  0.27596826  0.03433071  0.21408131  1  0  0.109175  0  0.949297  0  0  0.132267  0  1.007251  0  0  0.13313  0  1.008337  0  0  0.091517  0.131567  0  1.006615  0
H  H41  1  0.77597911  0.46567329  0.28591617  1  0  0.109126  0  0.949401  0  0  0.132236  0  1.007337  0  0  0.133068  0  1.008455  0  0  0.091509  0.131556  0  1.00668  0
H  H42  1  0.72402652  0.96566475  0.78591598  1  0  0.109152  0  0.949288  0  0  0.132271  0  1.007216  0  0  0.133121  0  1.008314  0  0  0.091491  0.13157  0  1.006579  0
H  H43  1  0.22402871  0.53433573  0.71408006  1  0  0.109162  0  0.949327  0  0  0.132254  0  1.007275  0  0  0.133119  0  1.008358  0  0  0.091488  0.131554  0  1.006639  0
H  H44  1  0.39294350  0.19049364  0.27010347  1  0  0.104867  0  0.968454  0  0  0.126076  0  1.030897  0  0  0.127172  0  1.031272  0  0  0.082845  0.125169  0  1.030828  0
H  H45  1  0.89294976  0.30950919  0.22989792  1  0  0.104849  0  0.968475  0  0  0.126067  0  1.030896  0  0  0.127163  0  1.031269  0  0  0.082839  0.125161  0  1.030829  0
H  H46  1  0.60705258  0.80950079  0.72989287  1  0  0.104841  0  0.968466  0  0  0.126024  0  1.030957  0  0  0.127121  0  1.031329  0  0  0.082834  0.125117  0  1.030888  0
H  H47  1  0.10705806  0.69049877  0.77009947  1  0  0.104831  0  0.968437  0  0  0.126048  0  1.030849  0  0  0.127144  0  1.031225  0  0  0.082847  0.125142  0  1.030778  0
C  C48  1  0.34739961  0.23197187  0.62086085  1  0  -0.502724  0  3.752013  0  0  -0.528883  0  4.028509  0  0  -0.552178  0  4.043088  0  0  -0.152586  -0.51367  0  4.018704  0
C  C49  1  0.84737434  0.26801387  0.87914858  1  0  -0.502818  0  3.751727  0  0  -0.529013  0  4.028258  0  0  -0.552315  0  4.042822  0  0  -0.152727  -0.513802  0  4.018456  0
C  C50  1  0.65260951  0.76802348  0.37914344  1  0  -0.502603  0  3.7521  0  0  -0.528795  0  4.028556  0  0  -0.552102  0  4.043126  0  0  -0.152515  -0.513582  0  4.018752  0
C  C51  1  0.15262043  0.73197309  0.12085868  1  0  -0.503126  0  3.751481  0  0  -0.529296  0  4.028044  0  0  -0.552608  0  4.042614  0  0  -0.152721  -0.514083  0  4.018239  0
C  C52  1  0.59236123  0.21376302  0.47023382  1  0  0.370103  0  3.751899  0  0  0.320304  0  4.050668  0  0  0.348216  0  4.057724  0  0  0.245262  0.301976  0  4.04498  0
C  C53  1  0.09236021  0.28623648  0.02976225  1  0  0.370303  0  3.751623  0  0  0.32045  0  4.050515  0  0  0.348361  0  4.057567  0  0  0.245336  0.302121  0  4.04483  0
C  C54  1  0.40763354  0.78622320  0.52975568  1  0  0.369949  0  3.751866  0  0  0.320352  0  4.050476  0  0  0.348256  0  4.057538  0  0  0.245323  0.302024  0  4.044789  0
C  C55  1  0.90763717  0.71376827  0.97024002  1  0  0.37032  0  3.751729  0  0  0.320615  0  4.050398  0  0  0.348528  0  4.057443  0  0  0.245361  0.302287  0  4.044711  0
C  C56  1  0.40402792  0.04313623  0.35104368  1  0  0.056169  0  3.658966  0  0  -0.003451  0  3.922121  0  0  0.001912  0  3.93308  0  0  -0.066433  -0.006885  0  3.914538  0
C  C57  1  0.90403369  0.45686858  0.14895754  1  0  0.056261  0  3.658796  0  0  -0.003484  0  3.922128  0  0  0.00188  0  3.933074  0  0  -0.066389  -0.006923  0  3.91456  0
C  C58  1  0.59596946  0.95686337  0.64895528  1  0  0.056214  0  3.658755  0  0  -0.003414  0  3.92195  0  0  0.001944  0  3.932907  0  0  -0.066373  -0.006852  0  3.914369  0
C  C59  1  0.09596761  0.54313936  0.85104125  1  0  0.056009  0  3.659297  0  0  -0.003631  0  3.922562  0  0  0.001733  0  3.93352  0  0  -0.066505  -0.007072  0  3.914982  0
C  C60  1  0.31089259  0.14791646  0.52462771  1  0  0.560888  0  3.90896  0  0  0.516958  0  4.197197  0  0  0.546934  0  4.200038  0  0  0.200826  0.49708  0  4.194237  0
C  C61  1  0.81088583  0.35209152  0.97537967  1  0  0.560715  0  3.908862  0  0  0.516976  0  4.196844  0  0  0.546944  0  4.199686  0  0  0.200972  0.497098  0  4.193884  0
C  C62  1  0.68910088  0.85208721  0.47537712  1  0  0.560536  0  3.909265  0  0  0.516755  0  4.197322  0  0  0.546725  0  4.200168  0  0  0.200828  0.496879  0  4.194359  0
C  C63  1  0.18912590  0.64790915  0.02461743  1  0  0.560934  0  3.908821  0  0  0.517123  0  4.196888  0  0  0.547096  0  4.19973  0  0  0.200999  0.497245  0  4.19393  0
C  C64  1  0.50667378  0.30144582  0.64632589  1  0  0.563293  0  3.90972  0  0  0.519767  0  4.197265  0  0  0.550538  0  4.19891  0  0  0.209159  0.499108  0  4.195699  0
C  C65  1  0.00666378  0.19855166  0.85367166  1  0  0.563407  0  3.909523  0  0  0.519745  0  4.197302  0  0  0.550517  0  4.198945  0  0  0.209129  0.499086  0  4.195738  0
C  C66  1  0.49333273  0.69854656  0.35366927  1  0  0.563216  0  3.909594  0  0  0.519727  0  4.197189  0  0  0.550495  0  4.198834  0  0  0.209009  0.499068  0  4.19563  0
C  C67  1  0.99332839  0.80145820  0.14633602  1  0  0.563664  0  3.909531  0  0  0.52004  0  4.197241  0  0  0.550812  0  4.198872  0  0  0.209083  0.499381  0  4.195684  0
C  C68  1  0.76780480  0.51562541  0.58150756  1  0  -0.303273  0  3.68438  0  0  -0.377138  0  3.925116  0  0  -0.380757  0  3.936101  0  0  -0.245058  -0.374284  0  3.917639  0
C  C69  1  0.26780359  0.98436628  0.91849161  1  0  -0.30322  0  3.684742  0  0  -0.377072  0  3.925485  0  0  -0.380691  0  3.936468  0  0  -0.244989  -0.374205  0  3.918019  0
C  C70  1  0.23219649  0.48437002  0.41849183  1  0  -0.303163  0  3.684371  0  0  -0.376993  0  3.925124  0  0  -0.380621  0  3.936099  0  0  -0.245007  -0.374133  0  3.917659  0
C  C71  1  0.73220032  0.01563429  0.08151180  1  0  -0.303266  0  3.684393  0  0  -0.377106  0  3.925152  0  0  -0.380716  0  3.936147  0  0  -0.245004  -0.374243  0  3.917678  0
C  C72  1  0.78775507  0.37199032  0.59249399  1  0  0.059584  0  3.643243  0  0  0.001553  0  3.900983  0  0  0.007336  0  3.910532  0  0  -0.06292  -0.002253  0  3.894579  0
C  C73  1  0.28775398  0.12799719  0.90750496  1  0  0.059471  0  3.643342  0  0  0.001448  0  3.901107  0  0  0.007237  0  3.910653  0  0  -0.062947  -0.00236  0  3.894674  0
C  C74  1  0.21224623  0.62800513  0.40750400  1  0  0.059378  0  3.643431  0  0  0.001348  0  3.9013  0  0  0.007138  0  3.910841  0  0  -0.06298  -0.002469  0  3.894884  0
C  C75  1  0.71225253  0.87200126  0.09250006  1  0  0.059482  0  3.64318  0  0  0.001338  0  3.90115  0  0  0.007104  0  3.91072  0  0  -0.062984  -0.00245  0  3.894734  0
C  C76  1  0.30927223  0.11202675  0.28516096  1  0  -0.315355  0  3.711907  0  0  -0.391929  0  3.955101  0  0  -0.395009  0  3.965313  0  0  -0.247657  -0.38951  0  3.948049  0
C  C77  1  0.80927929  0.38797687  0.21484083  1  0  -0.315344  0  3.71174  0  0  -0.391899  0  3.955016  0  0  -0.394947  0  3.965242  0  0  -0.247676  -0.389493  0  3.947949  0
C  C78  1  0.69072646  0.88796974  0.71483727  1  0  -0.315296  0  3.711776  0  0  -0.391861  0  3.955003  0  0  -0.394931  0  3.96523  0  0  -0.247621  -0.389439  0  3.947947  0
C  C79  1  0.19072331  0.61203001  0.78515912  1  0  -0.31525  0  3.711966  0  0  -0.391743  0  3.955129  0  0  -0.394822  0  3.965342  0  0  -0.247584  -0.389327  0  3.948081  0
S  S80  1  0.72917576  0.21425871  0.37723943  1  0  -0.502928  0  1.901089  0  0  -0.491188  0  2.220361  0  0  -0.503331  0  2.211292  0  0  -0.208793  -0.482502  0  2.22644  0
S  S81  1  0.22917395  0.28574054  0.12275667  1  0  -0.503089  0  1.901135  0  0  -0.491283  0  2.220381  0  0  -0.503422  0  2.211305  0  0  -0.208839  -0.482596  0  2.22646  0
S  S82  1  0.27081901  0.78574098  0.62275392  1  0  -0.50301  0  1.901221  0  0  -0.491297  0  2.220384  0  0  -0.503442  0  2.211322  0  0  -0.208837  -0.482609  0  2.226466  0
S  S83  1  0.77082605  0.71426935  0.87724961  1  0  -0.50303  0  1.901239  0  0  -0.491317  0  2.220478  0  0  -0.503453  0  2.211399  0  0  -0.20887  -0.482625  0  2.226551  0
N  N84  1  0.43998324  0.13830201  0.45137649  1  0  -0.239083  0  3.350544  0  0  -0.147188  0  3.576624  0  0  -0.170502  0  3.596324  0  0  -0.239807  -0.131702  0  3.562676  0
N  N85  1  0.93997716  0.36169721  0.04862715  1  0  -0.239071  0  3.35043  0  0  -0.147188  0  3.576532  0  0  -0.170492  0  3.59622  0  0  -0.239909  -0.131698  0  3.562582  0
N  N86  1  0.56000632  0.86169756  0.54862387  1  0  -0.238792  0  3.350096  0  0  -0.146987  0  3.576135  0  0  -0.170275  0  3.595791  0  0  -0.239809  -0.1315  0  3.562181  0
N  N87  1  0.06002153  0.63830024  0.95137553  1  0  -0.239137  0  3.350392  0  0  -0.147262  0  3.576401  0  0  -0.17058  0  3.596109  0  0  -0.239811  -0.131772  0  3.562446  0
N  N88  1  0.62575805  0.29022775  0.56692899  1  0  -0.242901  0  3.350509  0  0  -0.151022  0  3.576391  0  0  -0.173946  0  3.594764  0  0  -0.236583  -0.135904  0  3.563891  0
N  N89  1  0.12574676  0.20976026  0.93306915  1  0  -0.242885  0  3.350176  0  0  -0.150997  0  3.576196  0  0  -0.173922  0  3.594567  0  0  -0.236517  -0.135883  0  3.563697  0
N  N90  1  0.37424194  0.70976878  0.43306644  1  0  -0.242705  0  3.350558  0  0  -0.151068  0  3.576652  0  0  -0.173993  0  3.595028  0  0  -0.236584  -0.135952  0  3.564157  0
N  N91  1  0.87425323  0.79023201  0.06693232  1  0  -0.243045  0  3.350365  0  0  -0.151187  0  3.57639  0  0  -0.174101  0  3.594761  0  0  -0.236551  -0.136072  0  3.563888  0
O  O92  1  0.55171354  0.37189649  0.73265442  1  0  -0.677645  0  1.955742  0  0  -0.63319  0  2.197375  0  0  -0.653239  0  2.185495  0  0  -0.430473  -0.619064  0  2.205131  0
O  O93  1  0.05168105  0.12809742  0.76734467  1  0  -0.677665  0  1.955894  0  0  -0.633137  0  2.197585  0  0  -0.653196  0  2.185724  0  0  -0.430493  -0.619012  0  2.205337  0
O  O94  1  0.44828906  0.62810093  0.26735036  1  0  -0.677526  0  1.955898  0  0  -0.633048  0  2.197502  0  0  -0.653098  0  2.185635  0  0  -0.430362  -0.618927  0  2.20526  0
O  O95  1  0.94830721  0.87188770  0.23264880  1  0  -0.677628  0  1.956362  0  0  -0.633109  0  2.198013  0  0  -0.653164  0  2.186151  0  0  -0.430354  -0.61899  0  2.205772  0
O  O96  1  0.17161153  0.07768469  0.49870664  1  0  -0.742951  0  1.971844  0  0  -0.696653  0  2.22461  0  0  -0.716386  0  2.210764  0  0  -0.491407  -0.682642  0  2.233547  0
O  O97  1  0.67161901  0.42233883  0.00130323  1  0  -0.742855  0  1.971785  0  0  -0.696559  0  2.224357  0  0  -0.716319  0  2.210584  0  0  -0.491434  -0.682544  0  2.233285  0
O  O98  1  0.82837803  0.92232644  0.50128797  1  0  -0.742872  0  1.971998  0  0  -0.696595  0  2.224653  0  0  -0.716352  0  2.210861  0  0  -0.491446  -0.682582  0  2.233588  0
O  O99  1  0.32839533  0.57767828  0.99870755  1  0  -0.742917  0  1.971993  0  0  -0.696625  0  2.224668  0  0  -0.716356  0  2.210829  0  0  -0.491505  -0.682608  0  2.233596  0
