# generated using pymatgen
data_GdH18C20N4Cl3
_symmetry_space_group_name_H-M   'P 1'
_cell_length_a   12.73257506
_cell_length_b   14.21505461
_cell_length_c   14.84196680
_cell_angle_alpha   90.00006799
_cell_angle_beta   89.99980565
_cell_angle_gamma   89.99996555
_symmetry_Int_Tables_number   1
_chemical_formula_structural   GdH18C20N4Cl3
_chemical_formula_sum   'Gd4 H72 C80 N16 Cl12'
_cell_volume   2686.31064656
_cell_formula_units_Z   4
loop_
 _symmetry_equiv_pos_site_id
 _symmetry_equiv_pos_as_xyz
  1  'x, y, z'
loop_
 _atom_site_type_symbol
 _atom_site_label
 _atom_site_symmetry_multiplicity
 _atom_site_fract_x
 _atom_site_fract_y
 _atom_site_fract_z
 _atom_site_occupancy
 _atom_site_pbe_bader_charge
 _atom_site_pbe_bader_spin_density
 _atom_site_pbe_cm5_charge
 _atom_site_pbe_ddec_charge
 _atom_site_pbe_ddec_spin_density
 _atom_site_pbe_ddec_sum_bond_order
 _atom_site_pbe_magmom
Gd  Gd0  1  0.33463459  0.16482398  0.36557582  1  2.021406  0  1.13395  1.56927  0  2.644256  0
Gd  Gd1  1  0.16536597  0.83517632  0.86557554  1  2.021378  0  1.133945  1.569241  0  2.644302  0
Gd  Gd2  1  0.83463499  0.33517510  0.63442500  1  2.021376  0  1.133965  1.569305  0  2.644217  0
Gd  Gd3  1  0.66536610  0.66482535  0.13442364  1  2.02142  0  1.133951  1.569261  0  2.644284  0
H  H4  1  0.09174036  0.50682996  0.66948959  1  0.096504  0  0.100632  0.118695  0  1.053966  0
H  H5  1  0.40826020  0.49317081  0.16948935  1  0.096485  0  0.100624  0.118712  0  1.053957  0
H  H6  1  0.59174027  0.99317104  0.33051048  1  0.096491  0  0.100624  0.118687  0  1.053975  0
H  H7  1  0.90825846  0.00682965  0.83050991  1  0.09651  0  0.100631  0.118716  0  1.05395  0
H  H8  1  0.44116783  0.44033343  0.61839743  1  0.112138  0  0.097785  0.116285  0  1.036157  0
H  H9  1  0.05883214  0.55966586  0.11839694  1  0.111989  0  0.097741  0.116251  0  1.036183  0
H  H10  1  0.94116705  0.05966560  0.38160308  1  0.111995  0  0.097743  0.116238  0  1.036194  0
H  H11  1  0.55883227  0.94033516  0.88160323  1  0.111995  0  0.097761  0.11625  0  1.036161  0
H  H12  1  0.33676297  0.06536420  0.79003905  1  0.098864  0  0.102671  0.097463  0  1.022972  0
H  H13  1  0.16323868  0.93463460  0.29003733  1  0.098889  0  0.102667  0.097434  0  1.022985  0
H  H14  1  0.83676262  0.43463559  0.20996244  1  0.098884  0  0.102669  0.097452  0  1.022986  0
H  H15  1  0.66323817  0.56536495  0.70996187  1  0.098886  0  0.102661  0.097445  0  1.022992  0
H  H16  1  0.41483056  0.59954072  0.64328645  1  0.081661  0  0.109825  0.117868  0  0.998982  0
H  H17  1  0.08516931  0.40045790  0.14328704  1  0.081667  0  0.109841  0.117877  0  0.998991  0
H  H18  1  0.91482965  0.90045870  0.35671471  1  0.081672  0  0.109825  0.117877  0  0.999014  0
H  H19  1  0.58516977  0.09954273  0.85671518  1  0.081683  0  0.109834  0.117895  0  0.999025  0
H  H20  1  0.18073133  0.17460321  0.55526654  1  0.115151  0  0.105437  0.077255  0  1.03925  0
H  H21  1  0.31926810  0.82539530  0.05526424  1  0.115114  0  0.105406  0.07718  0  1.039295  0
H  H22  1  0.68073091  0.32539455  0.44473405  1  0.115119  0  0.105421  0.077209  0  1.039295  0
H  H23  1  0.81926895  0.67460488  0.94473382  1  0.115134  0  0.105425  0.077219  0  1.039268  0
H  H24  1  0.37218929  0.72874044  0.75028318  1  0.12534  0  0.105652  0.078991  0  1.041852  0
H  H25  1  0.12781252  0.27125902  0.25028284  1  0.125377  0  0.105678  0.079013  0  1.041849  0
H  H26  1  0.87218888  0.77125830  0.24971944  1  0.125319  0  0.105686  0.079008  0  1.041828  0
H  H27  1  0.62781096  0.22874229  0.74971859  1  0.125353  0  0.105686  0.079007  0  1.041846  0
H  H28  1  0.20833330  0.08484029  0.01061020  1  0.136556  0  0.097023  0.118798  0  1.033664  0
H  H29  1  0.29166631  0.91516098  0.51060897  1  0.136609  0  0.097026  0.118765  0  1.033698  0
H  H30  1  0.70833380  0.41516028  0.98939031  1  0.136508  0  0.09702  0.118768  0  1.033673  0
H  H31  1  0.79166666  0.58483921  0.48939052  1  0.13656  0  0.097054  0.118796  0  1.033671  0
H  H32  1  0.46493783  0.31246399  0.50879730  1  0.133698  0  0.106738  0.080301  0  1.039557  0
H  H33  1  0.03506336  0.68753587  0.00879702  1  0.133712  0  0.10673  0.08032  0  1.039574  0
H  H34  1  0.96493732  0.18753643  0.49120247  1  0.1337  0  0.106726  0.080289  0  1.039592  0
H  H35  1  0.53506393  0.81246376  0.99120255  1  0.133718  0  0.106739  0.080318  0  1.039598  0
H  H36  1  0.54145280  0.04979498  0.05424003  1  0.067588  0  0.101155  0.104279  0  1.013856  0
H  H37  1  0.95854546  0.95020467  0.55424105  1  0.067564  0  0.10115  0.104262  0  1.013884  0
H  H38  1  0.04145385  0.45020497  0.94575827  1  0.067581  0  0.101159  0.104294  0  1.013816  0
H  H39  1  0.45854640  0.54979473  0.44575930  1  0.067588  0  0.101161  0.104285  0  1.013838  0
H  H40  1  0.15502975  0.32971756  0.42386831  1  0.089595  0  0.112904  0.07405  0  1.02641  0
H  H41  1  0.34496980  0.67028141  0.92386598  1  0.089914  0  0.112901  0.074052  0  1.02637  0
H  H42  1  0.65502970  0.17028162  0.57613438  1  0.089904  0  0.112902  0.074024  0  1.026382  0
H  H43  1  0.84497240  0.82971805  0.07613201  1  0.089898  0  0.112915  0.074032  0  1.026388  0
H  H44  1  0.17741041  0.13708745  0.71893553  1  0.084764  0  0.100902  0.121211  0  1.010783  0
H  H45  1  0.32258917  0.86291196  0.21893327  1  0.08481  0  0.100893  0.121202  0  1.010822  0
H  H46  1  0.67741061  0.36291242  0.28106507  1  0.084841  0  0.100897  0.12122  0  1.010819  0
H  H47  1  0.82258911  0.63708821  0.78106478  1  0.084772  0  0.100895  0.121223  0  1.01082  0
H  H48  1  0.11898966  0.46331684  0.52844084  1  0.072794  0  0.108081  0.114868  0  1.029461  0
H  H49  1  0.38101146  0.53668375  0.02844005  1  0.072725  0  0.108092  0.114847  0  1.029486  0
H  H50  1  0.61898853  0.03668377  0.47155994  1  0.07273  0  0.108092  0.114851  0  1.029486  0
H  H51  1  0.88101200  0.96331780  0.97155985  1  0.072763  0  0.108083  0.114822  0  1.02946  0
H  H52  1  0.06266429  0.64107433  0.77237028  1  0.108537  0  0.112939  0.085019  0  1.02313  0
H  H53  1  0.43733507  0.35892656  0.27237115  1  0.108552  0  0.112965  0.085072  0  1.023078  0
H  H54  1  0.56266549  0.85892740  0.22762920  1  0.108559  0  0.112938  0.085005  0  1.023111  0
H  H55  1  0.93733365  0.14107317  0.72762870  1  0.108555  0  0.112966  0.08505  0  1.02311  0
H  H56  1  0.48628862  0.07901361  0.52910374  1  0.055613  0  0.108394  0.063907  0  1.059596  0
H  H57  1  0.01371014  0.92098698  0.02910379  1  0.055596  0  0.108447  0.063943  0  1.059621  0
H  H58  1  0.98628881  0.42098680  0.47089596  1  0.055623  0  0.108394  0.063905  0  1.059568  0
H  H59  1  0.51371172  0.57901266  0.97089719  1  0.055605  0  0.108387  0.063902  0  1.059629  0
H  H60  1  0.51405581  0.10512657  0.21236941  1  0.110731  0  0.10939  0.074847  0  1.034791  0
H  H61  1  0.98594339  0.89487187  0.71237029  1  0.110714  0  0.109376  0.074811  0  1.034798  0
H  H62  1  0.01405595  0.39487199  0.78762964  1  0.110714  0  0.109377  0.074797  0  1.034808  0
H  H63  1  0.48594414  0.60512751  0.28762998  1  0.110724  0  0.109383  0.074817  0  1.034775  0
H  H64  1  0.19423212  0.13557182  0.17215353  1  0.089584  0  0.110145  0.069266  0  1.028541  0
H  H65  1  0.30576685  0.86442825  0.67215220  1  0.08961  0  0.11016  0.069278  0  1.028549  0
H  H66  1  0.69423252  0.36442735  0.82784703  1  0.089595  0  0.110147  0.069266  0  1.028543  0
H  H67  1  0.80576780  0.63557194  0.32784725  1  0.089593  0  0.110148  0.06926  0  1.028549  0
H  H68  1  0.49726566  0.03870222  0.69277743  1  0.077947  0  0.102388  0.105534  0  1.004968  0
H  H69  1  0.00273480  0.96129716  0.19277755  1  0.077956  0  0.102384  0.10555  0  1.004982  0
H  H70  1  0.99726491  0.46129818  0.30722224  1  0.077953  0  0.102386  0.105549  0  1.004956  0
H  H71  1  0.50273549  0.53870178  0.80722278  1  0.077962  0  0.102398  0.105553  0  1.00497  0
H  H72  1  0.38390867  0.03770699  0.95119011  1  0.091975  0  0.098428  0.094979  0  1.031966  0
H  H73  1  0.11608999  0.96229483  0.45119058  1  0.091981  0  0.098428  0.094964  0  1.031948  0
H  H74  1  0.88390893  0.46229489  0.04880922  1  0.091986  0  0.09842  0.094981  0  1.031947  0
H  H75  1  0.61609092  0.53770546  0.54880875  1  0.091987  0  0.098422  0.094986  0  1.03194  0
C  C76  1  0.25680205  0.54117096  0.64663660  1  -0.053745  0  0.012763  0.109098  0  3.974801  0
C  C77  1  0.24319938  0.45882837  0.14663479  1  -0.05387  0  0.012883  0.109341  0  3.974716  0
C  C78  1  0.75680112  0.95882925  0.35336434  1  -0.053522  0  0.012872  0.109325  0  3.974765  0
C  C79  1  0.74319753  0.04117217  0.85336428  1  -0.05374  0  0.01273  0.10914  0  3.974838  0
C  C80  1  0.27685157  0.46432773  0.58232026  1  0.012636  0  0.012624  0.107938  0  3.975552  0
C  C81  1  0.22314855  0.53567222  0.08231993  1  0.012612  0  0.012603  0.107831  0  3.975589  0
C  C82  1  0.77685145  0.03567350  0.41768006  1  0.012652  0  0.012618  0.107848  0  3.975571  0
C  C83  1  0.72315009  0.96432801  0.91767976  1  0.012605  0  0.012683  0.107926  0  3.975467  0
C  C84  1  0.15700362  0.55396238  0.68478130  1  0.055951  0  -0.077811  -0.157729  0  3.888026  0
C  C85  1  0.34299687  0.44603841  0.18478119  1  0.056077  0  -0.077855  -0.157894  0  3.88812  0
C  C86  1  0.65700363  0.94603859  0.31521926  1  0.056414  0  -0.077832  -0.157807  0  3.888039  0
C  C87  1  0.84299595  0.05396279  0.81521960  1  0.056421  0  -0.077793  -0.157785  0  3.888024  0
C  C88  1  0.37522054  0.42065147  0.57555684  1  -0.027643  0  -0.082691  -0.168718  0  3.919277  0
C  C89  1  0.12477960  0.57934847  0.07555685  1  -0.027486  0  -0.082583  -0.168587  0  3.919222  0
C  C90  1  0.87522036  0.07934900  0.42444319  1  -0.027497  0  -0.082613  -0.168609  0  3.919234  0
C  C91  1  0.62478036  0.92065251  0.92444381  1  -0.02748  0  -0.082671  -0.168613  0  3.919094  0
C  C92  1  0.33740006  0.08514741  0.71907407  1  -0.071901  0  -0.064738  -0.023099  0  3.958637  0
C  C93  1  0.16259873  0.91485131  0.21907233  1  -0.071834  0  -0.064706  -0.023019  0  3.958626  0
C  C94  1  0.83740179  0.41485238  0.28092607  1  -0.071884  0  -0.06468  -0.023004  0  3.958483  0
C  C95  1  0.66259950  0.58514755  0.78092687  1  -0.071894  0  -0.064704  -0.023053  0  3.958636  0
C  C96  1  0.33587004  0.60489564  0.67125860  1  -0.044639  0  -0.083518  -0.175226  0  3.945794  0
C  C97  1  0.16413286  0.39510160  0.17125559  1  -0.044533  0  -0.083591  -0.175326  0  3.945817  0
C  C98  1  0.83586846  0.89510382  0.32874346  1  -0.044769  0  -0.083604  -0.175392  0  3.945912  0
C  C99  1  0.66413107  0.10489757  0.82874438  1  -0.044632  0  -0.083543  -0.175304  0  3.945886  0
C  C100  1  0.24971183  0.14459629  0.58787598  1  0.43153  0  0.048017  0.110299  0  3.937633  0
C  C101  1  0.25028827  0.85540226  0.08787459  1  0.431369  0  0.048072  0.11041  0  3.937488  0
C  C102  1  0.74971151  0.35540284  0.41212441  1  0.431511  0  0.048047  0.110394  0  3.937686  0
C  C103  1  0.75028847  0.64459725  0.91212434  1  0.431513  0  0.048032  0.110373  0  3.937603  0
C  C104  1  0.31229337  0.67798651  0.73001841  1  0.414785  0  0.04227  0.090297  0  3.992043  0
C  C105  1  0.18770852  0.32201222  0.23001727  1  0.414815  0  0.04225  0.090291  0  3.992025  0
C  C106  1  0.81229285  0.82201297  0.26998304  1  0.414716  0  0.042283  0.090347  0  3.991995  0
C  C107  1  0.68770691  0.17798765  0.76998330  1  0.414696  0  0.042296  0.090358  0  3.992012  0
C  C108  1  0.27792244  0.08947341  0.05326550  1  -0.073129  0  -0.084836  -0.123071  0  3.946136  0
C  C109  1  0.22207701  0.91052721  0.55326514  1  -0.073168  0  -0.084883  -0.123093  0  3.946119  0
C  C110  1  0.77792233  0.41052641  0.94673414  1  -0.07307  0  -0.084816  -0.122999  0  3.946047  0
C  C111  1  0.72207752  0.58947372  0.44673388  1  -0.073118  0  -0.084861  -0.123082  0  3.946072  0
C  C112  1  0.38903565  0.34744313  0.51469422  1  0.450561  0  0.049404  0.115012  0  3.947302  0
C  C113  1  0.11096474  0.65255604  0.01469301  1  0.450577  0  0.049339  0.114857  0  3.947328  0
C  C114  1  0.88903596  0.15255663  0.48530644  1  0.450574  0  0.049358  0.114946  0  3.947253  0
C  C115  1  0.61096452  0.84744425  0.98530566  1  0.450566  0  0.049324  0.114826  0  3.947377  0
C  C116  1  0.46309782  0.06935738  0.07708214  1  -0.013623  0  -0.087487  -0.12964  0  3.970549  0
C  C117  1  0.03690153  0.93064257  0.57708235  1  -0.01357  0  -0.087483  -0.129666  0  3.970584  0
C  C118  1  0.96309779  0.43064234  0.92291696  1  -0.01355  0  -0.087498  -0.129671  0  3.97051  0
C  C119  1  0.53690215  0.56935776  0.42291721  1  -0.013626  0  -0.087479  -0.129627  0  3.970507  0
C  C120  1  0.21691737  0.35778922  0.46702290  1  0.458716  0  0.048453  0.10893  0  3.966052  0
C  C121  1  0.28308201  0.64220910  0.96702139  1  0.458504  0  0.04843  0.108876  0  3.966014  0
C  C122  1  0.71691751  0.14220993  0.53297827  1  0.458363  0  0.048479  0.108985  0  3.966113  0
C  C123  1  0.78308319  0.85779039  0.03297813  1  0.458503  0  0.048451  0.108945  0  3.966043  0
C  C124  1  0.24815345  0.12418841  0.67964481  1  0.02083  0  -0.080451  -0.112184  0  3.928244  0
C  C125  1  0.25184629  0.87580955  0.17964276  1  0.020814  0  -0.080463  -0.112204  0  3.928313  0
C  C126  1  0.74815348  0.37581002  0.32035626  1  0.020777  0  -0.080506  -0.112292  0  3.928253  0
C  C127  1  0.75184608  0.62418925  0.82035617  1  0.020839  0  -0.080491  -0.112274  0  3.928386  0
C  C128  1  0.19672650  0.43160607  0.52573284  1  0.025954  0  -0.079002  -0.158441  0  3.924163  0
C  C129  1  0.30327305  0.56839311  0.02573097  1  0.026037  0  -0.07899  -0.158359  0  3.924173  0
C  C130  1  0.69672692  0.06839379  0.47426973  1  0.026013  0  -0.079019  -0.158419  0  3.924288  0
C  C131  1  0.80327439  0.93160708  0.97426781  1  0.02598  0  -0.078993  -0.15838  0  3.924111  0
C  C132  1  0.14009567  0.62916016  0.74287744  1  0.487572  0  0.053388  0.117146  0  3.927288  0
C  C133  1  0.35990460  0.37083999  0.24287653  1  0.48743  0  0.053382  0.117187  0  3.927281  0
C  C134  1  0.64009596  0.87084012  0.25712384  1  0.4871  0  0.053435  0.117243  0  3.92721  0
C  C135  1  0.85990464  0.12916049  0.75712354  1  0.48709  0  0.053437  0.11726  0  3.927144  0
C  C136  1  0.42031523  0.09164745  0.57409384  1  0.525886  0  0.043677  0.097973  0  3.983749  0
C  C137  1  0.07968414  0.90835109  0.07409301  1  0.525995  0  0.043598  0.097942  0  3.983719  0
C  C138  1  0.92031482  0.40835159  0.42590606  1  0.525869  0  0.043702  0.098028  0  3.983729  0
C  C139  1  0.57968432  0.59164851  0.92590643  1  0.52589  0  0.043689  0.098008  0  3.983741  0
C  C140  1  0.44845017  0.09924687  0.16551453  1  0.440862  0  0.048749  0.109544  0  3.957577  0
C  C141  1  0.05154883  0.90075318  0.66551399  1  0.440783  0  0.048764  0.109615  0  3.957519  0
C  C142  1  0.94845129  0.40075285  0.83448529  1  0.44077  0  0.048807  0.109684  0  3.957481  0
C  C143  1  0.55154900  0.59924644  0.33448553  1  0.440835  0  0.048817  0.1097  0  3.95744  0
C  C144  1  0.27015242  0.11768370  0.14278803  1  0.520389  0  0.046118  0.103414  0  3.96369  0
C  C145  1  0.22984668  0.88231633  0.64278762  1  0.520009  0  0.046148  0.103458  0  3.96372  0
C  C146  1  0.77015346  0.38231613  0.85721163  1  0.520008  0  0.046152  0.103459  0  3.963716  0
C  C147  1  0.72984674  0.61768319  0.35721138  1  0.520241  0  0.046153  0.103522  0  3.963688  0
C  C148  1  0.42561013  0.06931414  0.66523538  1  -0.041942  0  -0.089356  -0.135008  0  3.980233  0
C  C149  1  0.07438966  0.93068592  0.16523391  1  -0.042059  0  -0.089366  -0.135077  0  3.980259  0
C  C150  1  0.92561007  0.43068561  0.33476518  1  -0.04196  0  -0.089374  -0.135063  0  3.980278  0
C  C151  1  0.57439022  0.56931439  0.83476554  1  -0.04195  0  -0.089368  -0.135032  0  3.980269  0
C  C152  1  0.37630088  0.06393987  0.01995304  1  -0.068802  0  -0.067128  -0.024173  0  3.957451  0
C  C153  1  0.12369791  0.93606071  0.51995368  1  -0.0688  0  -0.067097  -0.024097  0  3.957368  0
C  C154  1  0.87630141  0.43605990  0.98004631  1  -0.068783  0  -0.067134  -0.024216  0  3.957387  0
C  C155  1  0.62369909  0.56393957  0.48004630  1  -0.068787  0  -0.067142  -0.024211  0  3.957396  0
N  N156  1  0.31132799  0.31545942  0.46114952  1  -1.275843  0  -0.382129  -0.331609  0  3.54188  0
N  N157  1  0.18867141  0.68453889  0.96114699  1  -1.275992  0  -0.382109  -0.331521  0  3.54185  0
N  N158  1  0.81132808  0.18453898  0.53885338  1  -1.275866  0  -0.382139  -0.331595  0  3.541807  0
N  N159  1  0.68867260  0.81546136  0.03885145  1  -1.275951  0  -0.38211  -0.331514  0  3.541859  0
N  N160  1  0.33395334  0.12827129  0.53518472  1  -1.253791  0  -0.391596  -0.340488  0  3.553911  0
N  N161  1  0.16604618  0.87172719  0.03518360  1  -1.25369  0  -0.391583  -0.340487  0  3.553777  0
N  N162  1  0.83395281  0.37172779  0.46481543  1  -1.253776  0  -0.391603  -0.340541  0  3.553924  0
N  N163  1  0.66604697  0.62827236  0.96481559  1  -1.2538  0  -0.391592  -0.340515  0  3.553859  0
N  N164  1  0.21578336  0.69138292  0.76520998  1  -1.250417  0  -0.375058  -0.326513  0  3.531646  0
N  N165  1  0.28421682  0.30861586  0.26520922  1  -1.250436  0  -0.375079  -0.326567  0  3.531642  0
N  N166  1  0.71578377  0.80861591  0.23479175  1  -1.250404  0  -0.375124  -0.326597  0  3.531637  0
N  N167  1  0.78421691  0.19138537  0.73479174  1  -1.250391  0  -0.375179  -0.326699  0  3.531654  0
N  N168  1  0.35343318  0.12267490  0.19862754  1  -1.266874  0  -0.392288  -0.33596  0  3.547274  0
N  N169  1  0.14656569  0.87732520  0.69862670  1  -1.266464  0  -0.392307  -0.336014  0  3.547252  0
N  N170  1  0.85343367  0.37732488  0.80137255  1  -1.266498  0  -0.392348  -0.336077  0  3.547248  0
N  N171  1  0.64656597  0.62267507  0.30137254  1  -1.266721  0  -0.392365  -0.336163  0  3.5473  0
Cl  Cl172  1  0.53161438  0.21758067  0.36111793  1  -0.718153  0  -0.356667  -0.589604  0  1.059822  0
Cl  Cl173  1  0.96838738  0.78241654  0.86111941  1  -0.718148  0  -0.356653  -0.589587  0  1.059838  0
Cl  Cl174  1  0.03161440  0.28241787  0.63887905  1  -0.718156  0  -0.356668  -0.589604  0  1.059829  0
Cl  Cl175  1  0.46838706  0.71758426  0.13887957  1  -0.718154  0  -0.356661  -0.589589  0  1.059847  0
Cl  Cl176  1  0.12957633  0.13576470  0.36156720  1  -0.726957  0  -0.353658  -0.598605  0  1.043233  0
Cl  Cl177  1  0.37042425  0.86423700  0.86156568  1  -0.726928  0  -0.353672  -0.598597  0  1.043222  0
Cl  Cl178  1  0.62957668  0.36423801  0.63843287  1  -0.72692  0  -0.353667  -0.598603  0  1.043205  0
Cl  Cl179  1  0.87042438  0.63576245  0.13843493  1  -0.726928  0  -0.353666  -0.598585  0  1.043213  0
Cl  Cl180  1  0.38874827  0.98477299  0.37044349  1  -0.72867  0  -0.381505  -0.62248  0  1.020682  0
Cl  Cl181  1  0.11125150  0.01522732  0.87044580  1  -0.728681  0  -0.381496  -0.622477  0  1.020672  0
Cl  Cl182  1  0.88874732  0.51522715  0.62955640  1  -0.728666  0  -0.38151  -0.622491  0  1.020656  0
Cl  Cl183  1  0.61124986  0.48477329  0.12955364  1  -0.7287  0  -0.381496  -0.622476  0  1.020645  0
