# generated using pymatgen
data_Zr3H5C27S5O18F5
_symmetry_space_group_name_H-M   'P 1'
_cell_length_a   16.46199795
_cell_length_b   16.44939428
_cell_length_c   16.52820643
_cell_angle_alpha   61.84744047
_cell_angle_beta   59.81368413
_cell_angle_gamma   60.29837781
_symmetry_Int_Tables_number   1
_chemical_formula_structural   Zr3H5C27S5O18F5
_chemical_formula_sum   'Zr6 H10 C54 S10 O36 F10'
_cell_volume   3209.26164403
_cell_formula_units_Z   2
loop_
 _symmetry_equiv_pos_site_id
 _symmetry_equiv_pos_as_xyz
  1  'x, y, z'
loop_
 _atom_site_type_symbol
 _atom_site_label
 _atom_site_symmetry_multiplicity
 _atom_site_fract_x
 _atom_site_fract_y
 _atom_site_fract_z
 _atom_site_occupancy
 _atom_site_pbe_bader_charge
 _atom_site_pbe_bader_spin_density
 _atom_site_pbe_cm5_charge
 _atom_site_pbe_ddec_charge
 _atom_site_pbe_ddec_spin_density
 _atom_site_pbe_ddec_sum_bond_order
 _atom_site_pbe_magmom
Zr  Zr0  1  0.88803571  0.90296510  0.59640673  1  2.638219  0  1.631799  2.375479  0  2.776508  0
Zr  Zr1  1  0.11252839  0.10184531  0.39760939  1  2.641571  0  1.632304  2.375546  0  2.77812  0
Zr  Zr2  1  0.10237756  0.89340344  0.60615511  1  2.634797  0  1.623901  2.378795  0  2.733909  0
Zr  Zr3  1  0.89801493  0.11165434  0.38794532  1  2.638448  0  1.62404  2.379395  0  2.732614  0
Zr  Zr4  1  0.10941756  0.89330976  0.38777487  1  2.637877  0  1.622114  2.380168  0  2.72222  0
Zr  Zr5  1  0.89098579  0.11162666  0.60624058  1  2.638273  0  1.623226  2.380278  0  2.724056  0
H  H6  1  0.07816184  0.75274684  0.57517858  1  0.591664  0  0.331242  0.423787  0  0.855524  0
H  H7  1  0.09389274  0.08065119  0.24724400  1  0.622442  0  0.33145  0.42395  0  0.858032  0
H  H8  1  0.08334088  0.08140250  0.58963013  1  0.609557  0  0.331594  0.425681  0  0.853503  0
H  H9  1  0.74556922  0.09484901  0.57605789  1  0.603198  0  0.331196  0.424969  0  0.85406  0
H  H10  1  0.10232199  0.63640628  0.86599324  1  0.115591  0  0.11429  0.123641  0  1.015683  0
H  H11  1  0.84477194  0.64991889  0.84859581  1  0.125492  0  0.119149  0.131126  0  0.986305  0
H  H12  1  0.89590248  0.37118209  0.13084553  1  0.136104  0  0.114596  0.123958  0  1.015508  0
H  H13  1  0.15684341  0.35420403  0.14487339  1  0.136785  0  0.11914  0.131128  0  0.986145  0
H  H14  1  0.10437468  0.63707655  0.99770921  1  0.624117  0  0.333577  0.364582  0  0.8894  0
H  H15  1  0.76158969  0.50282711  0.13164869  1  0.602023  0  0.333189  0.364072  0  0.888774  0
C  C16  1  0.99514892  0.73975425  0.48269345  1  1.576025  0  0.224251  0.662806  0  4.157277  0
C  C17  1  0.28268138  0.98781781  0.23464592  1  1.587067  0  0.224281  0.663401  0  4.156821  0
C  C18  1  0.99798730  0.27217234  0.50443343  1  1.586662  0  0.224895  0.662469  0  4.157436  0
C  C19  1  0.72550775  0.00951874  0.76687193  1  1.588906  0  0.225014  0.663779  0  4.155904  0
C  C20  1  0.98110336  0.73982264  0.76382804  1  1.563943  0  0.235877  0.63619  0  4.108572  0
C  C21  1  0.73235567  0.00606039  0.48530429  1  1.578575  0  0.22494  0.663829  0  4.158428  0
C  C22  1  0.01543786  0.26932516  0.23455299  1  1.561991  0  0.235752  0.636494  0  4.108088  0
C  C23  1  0.27609906  0.99093646  0.50069539  1  1.598167  0  0.224732  0.66423  0  4.158329  0
C  C24  1  0.27309981  0.73087943  0.49533843  1  1.589262  0  0.224506  0.663319  0  4.152292  0
C  C25  1  0.99037895  0.99602788  0.77715305  1  1.58266  0  0.223503  0.662824  0  4.15509  0
C  C26  1  0.73601184  0.28235234  0.49085848  1  1.588535  0  0.223665  0.661791  0  4.158312  0
C  C27  1  0.00029490  0.00078061  0.22556821  1  1.585173  0  0.225186  0.665263  0  4.150735  0
C  C28  1  0.92774473  0.42310348  0.56140265  1  0.606775  0  0.105566  0.257452  0  4.072412  0
C  C29  1  0.06151854  0.59205747  0.42243595  1  0.555852  0  0.10275  0.254107  0  4.076891  0
C  C30  1  0.99550969  0.36414685  0.50023132  1  -0.113621  0  -0.034874  -0.249721  0  3.965174  0
C  C31  1  0.99435936  0.65056704  0.48407411  1  -0.057449  0  -0.035337  -0.253742  0  3.968166  0
C  C32  1  0.03779617  0.50905959  0.44977753  1  -0.152435  0  -0.030429  -0.122237  0  4.128576  0
C  C33  1  0.95093503  0.50662443  0.53363020  1  -0.120465  0  -0.029095  -0.123115  0  4.121196  0
C  C34  1  0.42468528  0.92708346  0.08736383  1  0.516194  0  0.102828  0.2545  0  4.077082  0
C  C35  1  0.58847316  0.06606116  0.91816221  1  0.535651  0  0.105674  0.25887  0  4.072597  0
C  C36  1  0.37172541  0.98873066  0.14585135  1  -0.058146  0  -0.035096  -0.253033  0  3.966431  0
C  C37  1  0.64053429  0.00499755  0.85913570  1  -0.081092  0  -0.034933  -0.251576  0  3.965559  0
C  C38  1  0.50975088  0.03812896  0.00193820  1  -0.135062  0  -0.029148  -0.123171  0  4.12109  0
C  C39  1  0.50413911  0.95433870  0.00440695  1  -0.082355  0  -0.031003  -0.1243  0  4.130853  0
C  C40  1  0.05242229  0.92676677  0.92006461  1  0.541687  0  0.099987  0.248991  0  4.074704  0
C  C41  1  0.93139379  0.06473416  0.08885811  1  0.579965  0  0.104762  0.257173  0  4.066711  0
C  C42  1  0.98901757  0.99434016  0.86748954  1  -0.080903  0  -0.035684  -0.252837  0  3.95692  0
C  C43  1  0.99618922  0.99813526  0.14016347  1  -0.0861  0  -0.034131  -0.250291  0  3.952235  0
C  C44  1  0.95108176  0.03937481  0.00857745  1  -0.151007  0  -0.029825  -0.122815  0  4.119814  0
C  C45  1  0.03216626  0.95153772  0.00089093  1  -0.088825  0  -0.032064  -0.125591  0  4.131551  0
C  C46  1  0.41428026  0.59373156  0.55968678  1  0.58551  0  0.104666  0.256846  0  4.068215  0
C  C47  1  0.59973140  0.42455216  0.42206252  1  0.587684  0  0.100705  0.250842  0  4.074028  0
C  C48  1  0.36483061  0.64502938  0.49305458  1  -0.124085  0  -0.033867  -0.249379  0  3.950874  0
C  C49  1  0.64835508  0.37233153  0.48944076  1  -0.124524  0  -0.035685  -0.252918  0  3.958626  0
C  C50  1  0.51427530  0.50527377  0.44690588  1  -0.117747  0  -0.032044  -0.127511  0  4.131747  0
C  C51  1  0.49997846  0.51320043  0.53457291  1  -0.118268  0  -0.029426  -0.121552  0  4.118351  0
C  C52  1  0.04216762  0.60750342  0.89809874  1  -0.039428  0  -0.077573  -0.146542  0  3.933959  0
C  C53  1  0.89657525  0.61517351  0.88738839  1  0.073363  0  -0.068307  -0.096042  0  3.935642  0
C  C54  1  0.88747584  0.53522461  0.96976568  1  -0.120618  0  -0.012806  -0.103151  0  3.983802  0
C  C55  1  0.95672332  0.48789168  0.01987117  1  0.016799  0  -0.001023  0.056839  0  3.979471  0
C  C56  1  0.95272741  0.40341338  0.10207306  1  -0.120942  0  -0.077368  -0.146738  0  3.936347  0
C  C57  1  0.10103870  0.39293985  0.11008782  1  -0.032524  0  -0.068727  -0.096587  0  3.936754  0
C  C58  1  0.10778098  0.47528341  0.03010572  1  -0.054859  0  -0.012761  -0.103321  0  3.98762  0
C  C59  1  0.03590446  0.52529773  0.98261361  1  0.035575  0  -0.000658  0.056273  0  3.980169  0
C  C60  1  0.97326537  0.65231714  0.85225678  1  -0.070277  0  -0.01233  -0.021229  0  3.975555  0
C  C61  1  0.02244418  0.35773442  0.14709718  1  0.065826  0  -0.01209  -0.020404  0  3.976182  0
C  C62  1  0.41878771  0.05562006  0.42970788  1  0.591705  0  0.104361  0.258034  0  4.069713  0
C  C63  1  0.59585713  0.93520023  0.54998546  1  0.525064  0  0.103656  0.256018  0  4.070515  0
C  C64  1  0.36754106  0.99009893  0.49633146  1  -0.129709  0  -0.034633  -0.251523  0  3.960619  0
C  C65  1  0.64606239  0.00176055  0.48446198  1  -0.016322  0  -0.034246  -0.25106  0  3.962444  0
C  C66  1  0.51315125  0.95381249  0.53045939  1  -0.144521  0  -0.029778  -0.12253  0  4.128185  0
C  C67  1  0.50247247  0.03602006  0.44825812  1  -0.114263  0  -0.030575  -0.125606  0  4.127931  0
C  C68  1  0.19562499  0.50542834  0.99461305  1  1.529442  0  0.230686  0.574969  0  4.116286  0
C  C69  1  0.80499059  0.49962095  0.00005065  1  1.523151  0  0.231044  0.574936  0  4.116553  0
S  S70  1  0.08968461  0.41090480  0.40636017  1  0.317299  0  0.101152  0.183704  0  2.758294  0
S  S71  1  0.89979218  0.60421893  0.57762152  1  0.322743  0  0.112172  0.201299  0  2.750799  0
S  S72  1  0.41928500  0.08214839  0.09953151  1  0.318035  0  0.112108  0.201153  0  2.750412  0
S  S73  1  0.59348325  0.91109884  0.90604954  1  0.308188  0  0.101275  0.184895  0  2.758575  0
S  S74  1  0.90144325  0.09009078  0.91821869  1  0.322482  0  0.111412  0.198811  0  2.73521  0
S  S75  1  0.08304282  0.90175882  0.09015058  1  0.303169  0  0.103605  0.188071  0  2.741144  0
S  S76  1  0.42407364  0.59465164  0.39697655  1  0.313111  0  0.103157  0.187808  0  2.739881  0
S  S77  1  0.58948510  0.42317038  0.58509841  1  0.304073  0  0.111208  0.19845  0  2.735791  0
S  S78  1  0.42250508  0.90191629  0.58342946  1  0.33295  0  0.107833  0.192873  0  2.735018  0
S  S79  1  0.59214941  0.08889652  0.39629673  1  0.300016  0  0.107762  0.193479  0  2.735311  0
O  O80  1  0.92355384  0.77733007  0.55080833  1  -1.176095  0  -0.356158  -0.612529  0  2.280616  0
O  O81  1  0.24845881  0.05603422  0.27211736  1  -1.172642  0  -0.356239  -0.612887  0  2.281328  0
O  O82  1  0.07111367  0.23333739  0.43771071  1  -1.178187  0  -0.35738  -0.615199  0  2.276466  0
O  O83  1  0.75790522  0.94289691  0.72792335  1  -1.174551  0  -0.357522  -0.615869  0  2.276977  0
O  O84  1  0.05253111  0.76981666  0.73344018  1  -1.176081  0  -0.346312  -0.606899  0  2.270682  0
O  O85  1  0.76693208  0.07454745  0.41925158  1  -1.169581  0  -0.349956  -0.609617  0  2.236781  0
O  O86  1  0.94430981  0.23907333  0.26456297  1  -1.17203  0  -0.345957  -0.607084  0  2.272404  0
O  O87  1  0.23913778  0.92483639  0.56912799  1  -1.176208  0  -0.35031  -0.61062  0  2.236797  0
O  O88  1  0.24084481  0.76346887  0.42585418  1  -1.16567  0  -0.351139  -0.611765  0  2.246288  0
O  O89  1  0.92370759  0.06754768  0.74231086  1  -1.171771  0  -0.349615  -0.60964  0  2.247622  0
O  O90  1  0.76610961  0.24766253  0.56228482  1  -1.176009  0  -0.349548  -0.609067  0  2.248919  0
O  O91  1  0.06954306  0.93137248  0.25805320  1  -1.179627  0  -0.351319  -0.612115  0  2.245892  0
O  O92  1  0.05930587  0.92687934  0.74000673  1  -1.172042  0  -0.361241  -0.616095  0  2.273701  0
O  O93  1  0.77364056  0.24534962  0.42153457  1  -1.163272  0  -0.361505  -0.616097  0  2.274263  0
O  O94  1  0.93497485  0.07291337  0.25956027  1  -1.168424  0  -0.361421  -0.615261  0  2.276395  0
O  O95  1  0.23257916  0.76512729  0.56723599  1  -1.16787  0  -0.361083  -0.614101  0  2.277925  0
O  O96  1  0.91515433  0.77711123  0.72518998  1  -1.170764  0  -0.355299  -0.611528  0  2.299001  0
O  O97  1  0.24024228  0.06019229  0.43504747  1  -1.176606  0  -0.366012  -0.614606  0  2.310979  0
O  O98  1  0.08280122  0.23054569  0.27180489  1  -1.184438  0  -0.355716  -0.61196  0  2.29696  0
O  O99  1  0.76464486  0.94035971  0.55452406  1  -1.17035  0  -0.366603  -0.615535  0  2.309254  0
O  O100  1  0.75950058  0.07866765  0.73266622  1  -1.164344  0  -0.358201  -0.609954  0  2.268919  0
O  O101  1  0.06682813  0.77130483  0.41631071  1  -1.169574  0  -0.357737  -0.610345  0  2.266179  0
O  O102  1  0.24556040  0.92171071  0.26592035  1  -1.168781  0  -0.357651  -0.610808  0  2.265382  0
O  O103  1  0.92888884  0.23808511  0.57338523  1  -1.173352  0  -0.358296  -0.609622  0  2.268685  0
O  O104  1  0.81795871  0.06955486  0.55298003  1  -1.229762  0  -0.692653  -1.070466  0  2.353671  0
O  O105  1  0.05935277  0.05841359  0.56422027  1  -1.238195  0  -0.693116  -1.071433  0  2.353457  0
O  O106  1  0.06754689  0.05821118  0.31826272  1  -1.250293  0  -0.693653  -1.071907  0  2.363593  0
O  O107  1  0.05596618  0.82376043  0.55271559  1  -1.219591  0  -0.693567  -1.07159  0  2.360094  0
O  O108  1  0.13420905  0.95313358  0.45592739  1  -1.198216  0  -0.789207  -1.150295  0  2.122423  0
O  O109  1  0.95669023  0.96141081  0.44766321  1  -1.201371  0  -0.78909  -1.150692  0  2.121847  0
O  O110  1  0.95904284  0.13433319  0.45590515  1  -1.20072  0  -0.789647  -1.1527  0  2.121132  0
O  O111  1  0.95065464  0.96128500  0.62895514  1  -1.201077  0  -0.789272  -1.152268  0  2.119343  0
O  O112  1  0.17615416  0.60119972  0.98065449  1  -1.114381  0  -0.336318  -0.47103  0  2.217501  0
O  O113  1  0.28067474  0.44814414  0.98089662  1  -1.104487  0  -0.277456  -0.436436  0  2.02449  0
O  O114  1  0.74263613  0.48579871  0.09583789  1  -1.091492  0  -0.335846  -0.470414  0  2.217782  0
O  O115  1  0.79095054  0.48572146  0.94288122  1  -1.09207  0  -0.277796  -0.436627  0  2.024734  0
F  F116  1  0.84819912  0.40428076  0.63927442  1  -0.618225  0  -0.078178  -0.094992  0  1.352254  0
F  F117  1  0.14161253  0.61036232  0.34479284  1  -0.61756  0  -0.082697  -0.100322  0  1.349872  0
F  F118  1  0.40378544  0.84957952  0.10555732  1  -0.616918  0  -0.082515  -0.100066  0  1.350739  0
F  F119  1  0.60904536  0.14394707  0.89916554  1  -0.614146  0  -0.078128  -0.095042  0  1.35351  0
F  F120  1  0.12631913  0.84523722  0.89809680  1  -0.620505  0  -0.081754  -0.097931  0  1.361765  0
F  F121  1  0.85744219  0.14585359  0.11104637  1  -0.618721  0  -0.079203  -0.095415  0  1.353321  0
F  F122  1  0.38514935  0.61622147  0.64057367  1  -0.615844  0  -0.079466  -0.095421  0  1.353413  0
F  F123  1  0.62927869  0.40249647  0.34059815  1  -0.617537  0  -0.082091  -0.097943  0  1.361062  0
F  F124  1  0.39308427  0.13101911  0.35506591  1  -0.621629  0  -0.081193  -0.099438  0  1.363541  0
F  F125  1  0.62081114  0.86048783  0.62535611  1  -0.618874  0  -0.081194  -0.099192  0  1.362037  0
