# generated using pymatgen
data_CuH16C24(NO2)2
_symmetry_space_group_name_H-M   'P 1'
_cell_length_a   9.42228267
_cell_length_b   11.16454476
_cell_length_c   11.41836385
_cell_angle_alpha   115.71890860
_cell_angle_beta   90.03077370
_cell_angle_gamma   114.95807775
_symmetry_Int_Tables_number   1
_chemical_formula_structural   CuH16C24(NO2)2
_chemical_formula_sum   'Cu2 H32 C48 N4 O8'
_cell_volume   955.99000919
_cell_formula_units_Z   2
loop_
 _symmetry_equiv_pos_site_id
 _symmetry_equiv_pos_as_xyz
  1  'x, y, z'
loop_
 _atom_site_type_symbol
 _atom_site_label
 _atom_site_symmetry_multiplicity
 _atom_site_fract_x
 _atom_site_fract_y
 _atom_site_fract_z
 _atom_site_occupancy
 _atom_site_pbe_cm5_charge
 _atom_site_pbe_ddec_charge
 _atom_site_pbe_ddec_spin_density
 _atom_site_pbe_ddec_sum_bond_order
 _atom_site_pbe_magmom
Cu  Cu0  1  0.99999790  0.99999472  0.99999908  1  0.726787  0.726975  -0.707869  2.186405  -0.542
Cu  Cu1  1  0.99999895  0.00000304  0.49999944  1  0.726521  0.726694  -0.707452  2.184109  -0.541
H  H2  1  0.91543253  0.88280562  0.19719353  1  0.117208  0.085014  -0.000427  1.039669  -0.001
H  H3  1  0.03227996  0.11713172  0.30294729  1  0.117534  0.08572  -0.000427  1.038987  -0.001
H  H4  1  0.08457029  0.11719469  0.80280611  1  0.117213  0.085044  -0.000427  1.039683  -0.001
H  H5  1  0.96771886  0.88287758  0.69705519  1  0.117599  0.085757  -0.000427  1.03893  -0.001
H  H6  1  0.47068696  0.52189538  0.80365541  1  0.112198  0.121871  -0.000561  1.023482  -0.001
H  H7  1  0.94875451  0.47811584  0.69634484  1  0.112055  0.122141  -0.000559  1.023365  -0.001
H  H8  1  0.52929921  0.47809924  0.19633837  1  0.112205  0.121904  -0.000561  1.023444  -0.001
H  H9  1  0.05124957  0.52189125  0.30365936  1  0.112076  0.122174  -0.000559  1.02324  -0.001
H  H10  1  0.59380603  0.32906438  0.69677707  1  0.09777  0.100683  0.0  1.030481  0.0
H  H11  1  0.26458053  0.67115316  0.80330119  1  0.098057  0.101443  0.0  1.029326  0.0
H  H12  1  0.40620398  0.67094394  0.30323289  1  0.097787  0.100709  0.0  1.030436  0.0
H  H13  1  0.73541731  0.32884144  0.19669171  1  0.098036  0.101457  0.0  1.029368  0.0
H  H14  1  0.69871081  0.66788497  0.20534751  1  0.111876  0.13375  -0.000564  1.036913  -0.001
H  H15  1  0.03056994  0.33205122  0.29475675  1  0.111675  0.133388  -0.000564  1.038199  -0.001
H  H16  1  0.30127651  0.33211406  0.79464284  1  0.111841  0.133683  -0.000564  1.036972  -0.001
H  H17  1  0.96942946  0.66795922  0.70524708  1  0.111662  0.133391  -0.000564  1.038237  -0.001
H  H18  1  0.81777967  0.51427842  0.90222375  1  0.095095  0.095219  -9.4e-05  1.035574  0.0
H  H19  1  0.30305918  0.48579041  0.59790995  1  0.094773  0.095103  -9.5e-05  1.03568  0.0
H  H20  1  0.18222700  0.48572322  0.09778782  1  0.095062  0.095246  -9.4e-05  1.035482  0.0
H  H21  1  0.69694563  0.51420540  0.40208783  1  0.094775  0.095067  -9.5e-05  1.035697  0.0
H  H22  1  0.68790109  0.75586746  0.82110771  1  0.119556  0.097515  -0.000743  1.016831  -0.001
H  H23  1  0.93194608  0.24414778  0.67891834  1  0.119478  0.097384  -0.000742  1.017112  -0.001
H  H24  1  0.31209306  0.24412613  0.17889090  1  0.119574  0.097544  -0.000743  1.016778  -0.001
H  H25  1  0.06805481  0.75585929  0.32108409  1  0.119471  0.097377  -0.000743  1.017045  -0.001
H  H26  1  0.91479736  0.41803014  0.02828319  1  0.098287  0.09752  1.6e-05  1.05069  0.0
H  H27  1  0.49623861  0.58184027  0.47184765  1  0.098274  0.097848  1.6e-05  1.049984  0.0
H  H28  1  0.08520958  0.58196356  0.97172160  1  0.098253  0.097493  1.6e-05  1.050597  0.0
H  H29  1  0.50376732  0.41815777  0.52815017  1  0.098258  0.097847  1.6e-05  1.049943  0.0
H  H30  1  0.48064939  0.05749725  0.62017323  1  0.100047  0.105714  2e-05  1.006338  0.0
H  H31  1  0.42329452  0.94266608  0.87976237  1  0.100055  0.105823  1.9e-05  1.006162  0.0
H  H32  1  0.51936047  0.94250866  0.37982698  1  0.100054  0.10576  2e-05  1.006332  0.0
H  H33  1  0.57669590  0.05732854  0.12023141  1  0.100063  0.105857  1.9e-05  1.006168  0.0
C  C34  1  0.56354327  0.56939886  0.00258453  1  0.020462  0.108965  0.003296  3.947288  0.002
C  C35  1  0.99400423  0.43058049  0.49742733  1  0.020402  0.108779  0.003312  3.948775  0.002
C  C36  1  0.43644933  0.43059799  0.99740930  1  0.020506  0.109172  0.003295  3.947194  0.002
C  C37  1  0.00600154  0.56942996  0.50257738  1  0.02032  0.108621  0.003312  3.948848  0.002
C  C38  1  0.63981417  0.08246159  0.77422027  1  0.003171  0.07138  -1.5e-05  3.953834  0.0
C  C39  1  0.55735103  0.91752207  0.72579643  1  0.004077  0.072614  -9e-06  3.952372  0.0
C  C40  1  0.36018968  0.91753654  0.22578197  1  0.003236  0.071499  -1.5e-05  3.953711  0.0
C  C41  1  0.44264691  0.08247485  0.27420093  1  0.004055  0.072582  -9e-06  3.952303  0.0
C  C42  1  0.81187363  0.80218698  0.11348201  1  0.047817  0.094553  0.00091  3.92778  0.0
C  C43  1  0.00941558  0.19776190  0.38660969  1  0.047322  0.093702  0.000924  3.927392  0.0
C  C44  1  0.18812593  0.19781107  0.88651581  1  0.047729  0.094362  0.00091  3.927802  0.0
C  C45  1  0.99058431  0.80224741  0.61339367  1  0.047195  0.093529  0.000923  3.927579  0.0
C  C46  1  0.56402143  0.59925346  0.89502947  1  -0.0729  -0.155985  -0.003601  3.901071  -0.004
C  C47  1  0.96455293  0.40070914  0.60495511  1  -0.072843  -0.156689  -0.003605  3.901618  -0.004
C  C48  1  0.43596857  0.40074457  0.10496747  1  -0.072902  -0.156148  -0.003601  3.901001  -0.004
C  C49  1  0.03544796  0.59929792  0.39504732  1  -0.072872  -0.156737  -0.003605  3.901501  -0.004
C  C50  1  0.84695239  0.14311815  0.96518893  1  0.197604  0.561702  0.001849  4.210479  0.003
C  C51  1  0.70350289  0.85662970  0.53473191  1  0.198459  0.562976  0.001836  4.208796  0.003
C  C52  1  0.15304710  0.85687548  0.03481233  1  0.197672  0.561843  0.001849  4.210244  0.003
C  C53  1  0.29649460  0.14337057  0.46526509  1  0.198477  0.562949  0.001837  4.208714  0.003
C  C54  1  0.76342112  0.18624710  0.89042640  1  -0.018323  -0.074947  -0.006531  3.927112  -0.007
C  C55  1  0.57703903  0.81369097  0.60966505  1  -0.018751  -0.075642  -0.006571  3.927816  -0.007
C  C56  1  0.23658268  0.81374880  0.10957667  1  -0.018254  -0.074876  -0.006532  3.927012  -0.007
C  C57  1  0.42296209  0.18630595  0.39033231  1  -0.018753  -0.075598  -0.006571  3.927714  -0.007
C  C58  1  0.64333081  0.29116599  0.75175328  1  -0.090055  -0.066003  0.000556  4.005441  0.0
C  C59  1  0.35201136  0.70893785  0.74832458  1  -0.090649  -0.067154  0.000559  4.00647  0.0
C  C60  1  0.35667799  0.70883779  0.24825305  1  -0.09006  -0.066043  0.000556  4.005331  0.0
C  C61  1  0.64798542  0.29105675  0.25166832  1  -0.090636  -0.067238  0.000559  4.0067  0.0
C  C62  1  0.69096761  0.67712629  0.11484452  1  -0.074154  -0.155898  -0.003771  3.893565  -0.004
C  C63  1  0.01357330  0.32281719  0.38523703  1  -0.07328  -0.15446  -0.003774  3.893985  -0.004
C  C64  1  0.30902992  0.32287618  0.88515075  1  -0.074079  -0.155848  -0.00377  3.893676  -0.004
C  C65  1  0.98642659  0.67719212  0.61476633  1  -0.073242  -0.154377  -0.003774  3.894044  -0.004
C  C66  1  0.76575260  0.39367494  0.86696602  1  -0.103196  -0.108082  -0.001501  4.042072  -0.002
C  C67  1  0.37178587  0.60638296  0.63317480  1  -0.102827  -0.107789  -0.001509  4.042784  -0.002
C  C68  1  0.23425727  0.60632885  0.13304119  1  -0.103159  -0.108063  -0.0015  4.042025  -0.002
C  C69  1  0.62821623  0.39361168  0.36681986  1  -0.102809  -0.10767  -0.001509  4.042859  -0.002
C  C70  1  0.68698838  0.72915860  0.90231647  1  0.049977  0.100208  0.001231  3.910905  0.0
C  C71  1  0.95764698  0.27082299  0.59769424  1  0.050072  0.100261  0.001226  3.912072  0.0
C  C72  1  0.31300738  0.27083610  0.09768172  1  0.049911  0.100144  0.00123  3.910987  0.0
C  C73  1  0.04235391  0.72918409  0.40230907  1  0.050087  0.100314  0.001226  3.912053  0.0
C  C74  1  0.82190974  0.34071768  0.93670145  1  -0.092352  -0.103087  -0.0003  3.995213  -0.001
C  C75  1  0.48089171  0.65923714  0.56343574  1  -0.092119  -0.103161  -0.0003  3.994968  -0.001
C  C76  1  0.17810108  0.65928165  0.06330567  1  -0.092355  -0.103124  -0.0003  3.995232  -0.001
C  C77  1  0.51911259  0.34075977  0.43656074  1  -0.092108  -0.103221  -0.0003  3.994967  -0.001
C  C78  1  0.57988711  0.13735879  0.70766090  1  -0.090703  -0.133692  -0.000605  3.954109  -0.001
C  C79  1  0.44254295  0.86271321  0.79235909  1  -0.091098  -0.134269  -0.000613  3.952661  -0.001
C  C80  1  0.42011954  0.86264495  0.29234278  1  -0.090803  -0.133874  -0.000605  3.954095  -0.001
C  C81  1  0.55745392  0.13728370  0.20763739  1  -0.091122  -0.134296  -0.000613  3.952751  -0.001
N  N82  1  0.81105065  0.82895438  0.00923815  1  -0.341873  -0.224239  -0.05962  3.596618  -0.077
N  N83  1  0.98192462  0.17103063  0.49086677  1  -0.341924  -0.224214  -0.059632  3.596739  -0.077
N  N84  1  0.18894993  0.17104144  0.99076051  1  -0.341778  -0.224018  -0.059615  3.596493  -0.077
N  N85  1  0.01807733  0.82897643  0.50913566  1  -0.341895  -0.224166  -0.059632  3.596913  -0.077
O  O86  1  0.84977146  0.01622290  0.89587467  1  -0.326606  -0.541824  -0.075887  2.385831  -0.106
O  O87  1  0.83337367  0.98351257  0.60387213  1  -0.326509  -0.542104  -0.076049  2.384511  -0.106
O  O88  1  0.15022852  0.98376959  0.10412524  1  -0.326705  -0.541932  -0.075886  2.385723  -0.106
O  O89  1  0.16662066  0.01648986  0.39612138  1  -0.326539  -0.542143  -0.076054  2.384452  -0.106
O  O90  1  0.91695589  0.23157718  0.08559998  1  -0.324662  -0.574326  0.000286  2.192705  -0.002
O  O91  1  0.68465697  0.76799601  0.41433789  1  -0.325099  -0.574508  0.000274  2.191815  -0.002
O  O92  1  0.08304089  0.76841318  0.91440517  1  -0.324668  -0.574372  0.000285  2.192691  -0.002
O  O93  1  0.31533995  0.23200312  0.58565776  1  -0.325064  -0.574455  0.000274  2.191851  -0.002
