# generated using pymatgen
data_CdH30C26(NO2)4
_symmetry_space_group_name_H-M   'P 1'
_cell_length_a   7.43550423
_cell_length_b   9.03928782
_cell_length_c   10.94114454
_cell_angle_alpha   99.77407549
_cell_angle_beta   102.07729569
_cell_angle_gamma   113.07874050
_symmetry_Int_Tables_number   1
_chemical_formula_structural   CdH30C26(NO2)4
_chemical_formula_sum   'Cd1 H30 C26 N4 O8'
_cell_volume   635.10592300
_cell_formula_units_Z   1
loop_
 _symmetry_equiv_pos_site_id
 _symmetry_equiv_pos_as_xyz
  1  'x, y, z'
loop_
 _atom_site_type_symbol
 _atom_site_label
 _atom_site_symmetry_multiplicity
 _atom_site_fract_x
 _atom_site_fract_y
 _atom_site_fract_z
 _atom_site_occupancy
 _atom_site_hle17_bader_spin_density
 _atom_site_hle17_ddec_charge
 _atom_site_hle17_ddec_spin_density
 _atom_site_hle17_ddec_sum_bond_order
 _atom_site_hle17_magmom
 _atom_site_hse06_10hf_bader_spin_density
 _atom_site_hse06_10hf_ddec_charge
 _atom_site_hse06_10hf_ddec_spin_density
 _atom_site_hse06_10hf_ddec_sum_bond_order
 _atom_site_hse06_10hf_magmom
 _atom_site_hse06_bader_spin_density
 _atom_site_hse06_ddec_charge
 _atom_site_hse06_ddec_spin_density
 _atom_site_hse06_ddec_sum_bond_order
 _atom_site_hse06_magmom
 _atom_site_pbe_bader_spin_density
 _atom_site_pbe_cm5_charge
 _atom_site_pbe_ddec_charge
 _atom_site_pbe_ddec_spin_density
 _atom_site_pbe_ddec_sum_bond_order
 _atom_site_pbe_magmom
Cd  Cd0  1  0.99999844  0.99999934  0.99999906  1  0  1.143352  0  1.692446  0  0  0.960562  0  2.13763  0  0  1.014436  0  2.084811  0  0  0.767718  0.921063  0  2.174811  0
H  H1  1  0.13829661  0.02205214  0.79860510  1  0  0.400246  0  0.921738  0  0  0.368038  0  0.989247  0  0  0.379289  0  0.972994  0  0  0.276871  0.3601  0  1.00067  0
H  H2  1  0.86170120  0.97794595  0.20139187  1  0  0.400236  0  0.92173  0  0  0.368026  0  0.98925  0  0  0.379277  0  0.972996  0  0  0.276846  0.360087  0  1.000674  0
H  H3  1  0.19324828  0.87424161  0.82525735  1  0  0.429494  0  0.871148  0  0  0.398502  0  0.934439  0  0  0.409318  0  0.918754  0  0  0.290259  0.391055  0  0.94524  0
H  H4  1  0.80675425  0.12576021  0.17474360  1  0  0.429489  0  0.871155  0  0  0.398494  0  0.934453  0  0  0.40931  0  0.918767  0  0  0.290249  0.391046  0  0.945255  0
H  H5  1  0.87145786  0.68211335  0.29721783  1  0  0.30348  0  0.920285  0  0  0.28302  0  0.987153  0  0  0.290577  0  0.981798  0  0  0.306445  0.277729  0  0.990809  0
H  H6  1  0.12854054  0.31788598  0.70278213  1  0  0.303491  0  0.920323  0  0  0.283019  0  0.987183  0  0  0.290576  0  0.981828  0  0  0.306452  0.277728  0  0.990841  0
H  H7  1  0.46758014  0.22896109  0.16596786  1  0  0.11454  0  0.964542  0  0  0.116744  0  1.032678  0  0  0.120844  0  1.028573  0  0  0.1214  0.113897  0  1.035599  0
H  H8  1  0.53241692  0.77103826  0.83403099  1  0  0.114569  0  0.964502  0  0  0.116769  0  1.032637  0  0  0.120869  0  1.028532  0  0  0.12141  0.113923  0  1.035559  0
H  H9  1  0.02693383  0.35914721  0.98607300  1  0  0.070758  0  0.96252  0  0  0.078084  0  1.03241  0  0  0.080287  0  1.0308  0  0  0.110008  0.076495  0  1.033612  0
H  H10  1  0.97306390  0.64085339  0.01392703  1  0  0.070745  0  0.962535  0  0  0.078075  0  1.03242  0  0  0.080278  0  1.03081  0  0  0.109994  0.076487  0  1.033622  0
H  H11  1  0.27789583  0.66949146  0.06638763  1  0  0.111269  0  0.94231  0  0  0.123567  0  0.996629  0  0  0.126484  0  0.995712  0  0  0.111967  0.121151  0  0.998153  0
H  H12  1  0.72210251  0.33050787  0.93361416  1  0  0.111273  0  0.942285  0  0  0.123634  0  0.99652  0  0  0.126552  0  0.995599  0  0  0.111986  0.121217  0  0.998045  0
H  H13  1  0.63270921  0.75241487  0.19979461  1  0  0.11936  0  0.965564  0  0  0.129378  0  1.026557  0  0  0.132455  0  1.024184  0  0  0.115885  0.12737  0  1.027669  0
H  H14  1  0.36728913  0.24758445  0.80020718  1  0  0.119334  0  0.965552  0  0  0.129372  0  1.026542  0  0  0.132448  0  1.024169  0  0  0.115884  0.127363  0  1.027653  0
H  H15  1  0.12393433  0.63904131  0.46048211  1  0  0.103514  0  0.94049  0  0  0.120449  0  1.000443  0  0  0.121736  0  1.001283  0  0  0.102229  0.119615  0  0.999692  0
H  H16  1  0.87606613  0.36095927  0.53951835  1  0  0.103514  0  0.940465  0  0  0.120452  0  1.000418  0  0  0.121739  0  1.001258  0  0  0.102227  0.119617  0  0.999668  0
H  H17  1  0.19111479  0.63873544  0.31722654  1  0  0.095145  0  0.952663  0  0  0.111011  0  1.01514  0  0  0.11157  0  1.017399  0  0  0.098826  0.110857  0  1.013147  0
H  H18  1  0.80888291  0.36126516  0.68277440  1  0  0.095146  0  0.952637  0  0  0.111008  0  1.015128  0  0  0.111568  0  1.017387  0  0  0.098815  0.110853  0  1.013135  0
H  H19  1  0.20936055  0.36644859  0.31028326  1  0  0.061323  0  0.962803  0  0  0.078396  0  1.026703  0  0  0.078568  0  1.028544  0  0  0.085603  0.078152  0  1.025416  0
H  H20  1  0.79063512  0.63355077  0.68971629  1  0  0.061325  0  0.962823  0  0  0.078405  0  1.026705  0  0  0.078577  0  1.028546  0  0  0.085605  0.078161  0  1.02542  0
H  H21  1  0.13625982  0.35862114  0.45209318  1  0  0.060046  0  0.943339  0  0  0.078572  0  1.005582  0  0  0.079476  0  1.005554  0  0  0.08586  0.077719  0  1.005544  0
H  H22  1  0.86373859  0.64137820  0.54790679  1  0  0.060055  0  0.943321  0  0  0.078578  0  1.005564  0  0  0.079481  0  1.005536  0  0  0.085866  0.077726  0  1.005527  0
H  H23  1  0.52284059  0.64070674  0.43387029  1  0  0.055173  0  0.951687  0  0  0.075127  0  1.013258  0  0  0.074781  0  1.015766  0  0  0.080658  0.075033  0  1.011642  0
H  H24  1  0.47715852  0.35929134  0.56612870  1  0  0.055234  0  0.951682  0  0  0.07515  0  1.013283  0  0  0.074802  0  1.015793  0  0  0.080676  0.075056  0  1.011667  0
H  H25  1  0.45034116  0.63117870  0.57569957  1  0  0.059732  0  0.945966  0  0  0.078617  0  1.008955  0  0  0.078387  0  1.011189  0  0  0.083364  0.078597  0  1.007512  0
H  H26  1  0.54965865  0.36882062  0.42429970  1  0  0.059755  0  0.945943  0  0  0.07862  0  1.008957  0  0  0.078389  0  1.011191  0  0  0.083362  0.078601  0  1.007509  0
H  H27  1  0.16905508  0.97627102  0.53205474  1  0  0.104963  0  0.957136  0  0  0.109692  0  1.026447  0  0  0.114285  0  1.022444  0  0  0.100619  0.106173  0  1.02974  0
H  H28  1  0.83094337  0.02372581  0.46794307  1  0  0.104954  0  0.957208  0  0  0.109701  0  1.026492  0  0  0.114293  0  1.02249  0  0  0.10061  0.106181  0  1.029786  0
H  H29  1  0.45726429  0.01557442  0.72065129  1  0  0.106914  0  0.958409  0  0  0.115015  0  1.022654  0  0  0.118991  0  1.019682  0  0  0.10478  0.111836  0  1.025479  0
H  H30  1  0.54273558  0.98442491  0.27934617  1  0  0.106915  0  0.958381  0  0  0.115037  0  1.022599  0  0  0.119014  0  1.019626  0  0  0.104784  0.111859  0  1.025423  0
C  C31  1  0.58157819  0.49856130  0.19373240  1  0  0.212548  0  3.76892  0  0  0.210942  0  4.016029  0  0  0.215663  0  4.037607  0  0  0.10789  0.207565  0  4.001022  0
C  C32  1  0.41842295  0.50143802  0.80626799  1  0  0.212513  0  3.76901  0  0  0.210908  0  4.016082  0  0  0.215627  0  4.037662  0  0  0.107889  0.20753  0  4.001074  0
C  C33  1  0.43267049  0.33018531  0.14674649  1  0  0.030906  0  3.643791  0  0  -0.007401  0  3.900898  0  0  -0.002928  0  3.916388  0  0  0.043953  -0.010654  0  3.890571  0
C  C34  1  0.56732941  0.66981403  0.85325005  1  0  0.030882  0  3.643782  0  0  -0.007431  0  3.900867  0  0  -0.002956  0  3.916356  0  0  0.04394  -0.010685  0  3.890543  0
C  C35  1  0.18454394  0.40470872  0.04678154  1  0  0.097544  0  3.742509  0  0  0.059616  0  4.007677  0  0  0.065808  0  4.026236  0  0  0.031314  0.055596  0  3.994611  0
C  C36  1  0.81545447  0.59529061  0.95321843  1  0  0.09759  0  3.74257  0  0  0.059633  0  4.007764  0  0  0.065825  0  4.026323  0  0  0.031305  0.055613  0  3.994696  0
C  C37  1  0.32233857  0.57410577  0.09078921  1  0  -0.10337  0  3.761184  0  0  -0.115373  0  4.01642  0  0  -0.120792  0  4.038403  0  0  -0.083  -0.111915  0  4.001901  0
C  C38  1  0.67765977  0.42589355  0.90921257  1  0  -0.103425  0  3.761153  0  0  -0.115458  0  4.016378  0  0  -0.120876  0  4.038357  0  0  -0.083011  -0.112001  0  4.001859  0
C  C39  1  0.52151186  0.62127208  0.16555563  1  0  -0.098614  0  3.665378  0  0  -0.124077  0  3.915164  0  0  -0.124268  0  3.933808  0  0  -0.067737  -0.123222  0  3.901278  0
C  C40  1  0.47848650  0.37872473  0.83444490  1  0  -0.098505  0  3.665228  0  0  -0.12402  0  3.915029  0  0  -0.124208  0  3.93367  0  0  -0.06772  -0.123164  0  3.901145  0
C  C41  1  0.88607861  0.45745083  0.29098838  1  0  0.605081  0  3.739784  0  0  0.558579  0  4.034294  0  0  0.586769  0  4.034249  0  0  0.251379  0.539781  0  4.033885  0
C  C42  1  0.11392173  0.54254972  0.70901572  1  0  0.605136  0  3.739717  0  0  0.558575  0  4.034269  0  0  0.586766  0  4.034224  0  0  0.25138  0.539781  0  4.033858  0
C  C43  1  0.11084130  0.55436751  0.37031579  1  0  -0.265581  0  3.690842  0  0  -0.304938  0  3.940998  0  0  -0.310105  0  3.951564  0  0  -0.163298  -0.30156  0  3.933358  0
C  C44  1  0.88915914  0.44563306  0.62968557  1  0  -0.265586  0  3.690785  0  0  -0.304971  0  3.941006  0  0  -0.310138  0  3.951572  0  0  -0.163298  -0.301588  0  3.93336  0
C  C45  1  0.21827398  0.44584395  0.40148875  1  0  -0.085839  0  3.696438  0  0  -0.126855  0  3.956895  0  0  -0.126724  0  3.969959  0  0  -0.17017  -0.126723  0  3.947649  0
C  C46  1  0.78172442  0.55415539  0.59851122  1  0  -0.085861  0  3.696468  0  0  -0.126858  0  3.956901  0  0  -0.126726  0  3.969965  0  0  -0.170181  -0.126727  0  3.947656  0
C  C47  1  0.44290033  0.55202887  0.48440072  1  0  -0.105868  0  3.677376  0  0  -0.14384  0  3.93658  0  0  -0.144838  0  3.951631  0  0  -0.170381  -0.142916  0  3.925908  0
C  C48  1  0.55709947  0.44797046  0.51559855  1  0  -0.105961  0  3.677475  0  0  -0.143913  0  3.936685  0  0  -0.144911  0  3.951736  0  0  -0.17041  -0.142989  0  3.926013  0
C  C49  1  0.16448386  0.94654421  0.28025703  1  0  0.642182  0  3.917685  0  0  0.589209  0  4.215455  0  0  0.62373  0  4.206966  0  0  0.206659  0.566388  0  4.219508  0
C  C50  1  0.83551870  0.05345761  0.71974301  1  0  0.64209  0  3.917828  0  0  0.589084  0  4.215631  0  0  0.623607  0  4.207142  0  0  0.206594  0.566264  0  4.219683  0
C  C51  1  0.33898131  0.97632433  0.39430126  1  0  -0.070512  0  3.769614  0  0  -0.047292  0  4.002653  0  0  -0.054063  0  4.025077  0  0  -0.020102  -0.043084  0  3.986619  0
C  C52  1  0.66102470  0.02368124  0.60569982  1  0  -0.070482  0  3.769583  0  0  -0.04724  0  4.002602  0  0  -0.054012  0  4.025026  0  0  -0.020108  -0.043033  0  3.986569  0
C  C53  1  0.31421294  0.98630458  0.51867750  1  0  -0.078547  0  3.731518  0  0  -0.101872  0  3.986202  0  0  -0.102269  0  4.004422  0  0  -0.086424  -0.101425  0  3.973529  0
C  C54  1  0.68579173  0.01370101  0.48132246  1  0  -0.07854  0  3.731583  0  0  -0.101878  0  3.986262  0  0  -0.102275  0  4.004482  0  0  -0.086399  -0.10143  0  3.973587  0
C  C55  1  0.47431993  0.00920856  0.62368681  1  0  -0.071842  0  3.72448  0  0  -0.097215  0  3.978204  0  0  -0.097798  0  3.997422  0  0  -0.085996  -0.096468  0  3.965087  0
C  C56  1  0.52568339  0.99079453  0.37631169  1  0  -0.071866  0  3.724533  0  0  -0.09727  0  3.978303  0  0  -0.097854  0  3.997521  0  0  -0.086029  -0.096521  0  3.96518  0
N  N57  1  0.23969850  0.28709203  0.07572962  1  0  -0.322048  0  3.299812  0  0  -0.244058  0  3.566559  0  0  -0.262723  0  3.586787  0  0  -0.328959  -0.23072  0  3.552309  0
N  N58  1  0.76030063  0.71290856  0.92426972  1  0  -0.322068  0  3.299841  0  0  -0.244055  0  3.566562  0  0  -0.262721  0  3.586788  0  0  -0.328937  -0.230717  0  3.552313  0
N  N59  1  0.78587911  0.55340676  0.26724965  1  0  -0.456264  0  3.334441  0  0  -0.398894  0  3.573612  0  0  -0.421894  0  3.58471  0  0  -0.393899  -0.383181  0  3.565365  0
N  N60  1  0.21412128  0.44659129  0.73275228  1  0  -0.456319  0  3.33452  0  0  -0.398874  0  3.57363  0  0  -0.421874  0  3.584728  0  0  -0.393933  -0.383164  0  3.565383  0
O  O61  1  0.79656762  0.30212339  0.25021837  1  0  -0.562083  0  1.990896  0  0  -0.502251  0  2.208448  0  0  -0.524706  0  2.202131  0  0  -0.276968  -0.486887  0  2.212319  0
O  O62  1  0.20343205  0.69787592  0.74978454  1  0  -0.562103  0  1.990871  0  0  -0.502234  0  2.208415  0  0  -0.524688  0  2.202097  0  0  -0.276936  -0.486868  0  2.212279  0
O  O63  1  0.20125166  0.95778747  0.17281591  1  0  -0.641913  0  1.994797  0  0  -0.577659  0  2.24569  0  0  -0.605248  0  2.233707  0  0  -0.32822  -0.558381  0  2.253804  0
O  O64  1  0.79874539  0.04220936  0.82718260  1  0  -0.641835  0  1.99479  0  0  -0.577588  0  2.245724  0  0  -0.605179  0  2.233742  0  0  -0.328156  -0.558305  0  2.253828  0
O  O65  1  0.98911638  0.90956536  0.29869877  1  0  -0.654567  0  1.992434  0  0  -0.593762  0  2.214272  0  0  -0.61785  0  2.202926  0  0  -0.326774  -0.576838  0  2.220792  0
O  O66  1  0.01088340  0.09043145  0.70130015  1  0  -0.654548  0  1.992498  0  0  -0.593725  0  2.214339  0  0  -0.617815  0  2.202994  0  0  -0.326768  -0.576802  0  2.220858  0
O  O67  1  0.20722776  0.98530043  0.86854837  1  0  -0.838841  0  1.837769  0  0  -0.77734  0  2.021482  0  0  -0.800021  0  1.988196  0  0  -0.597892  -0.76166  0  2.044267  0
O  O68  1  0.79277277  0.01470015  0.13145027  1  0  -0.838826  0  1.837763  0  0  -0.777315  0  2.021447  0  0  -0.799993  0  1.988164  0  0  -0.597853  -0.761637  0  2.044239  0
