# generated using pymatgen
data_Al3H22C42N3O14
_symmetry_space_group_name_H-M   'P 1'
_cell_length_a   13.52942116
_cell_length_b   13.50235893
_cell_length_c   28.29743957
_cell_angle_alpha   90.44458361
_cell_angle_beta   90.30266504
_cell_angle_gamma   60.04734952
_symmetry_Int_Tables_number   1
_chemical_formula_structural   Al3H22C42N3O14
_chemical_formula_sum   'Al6 H44 C84 N6 O28'
_cell_volume   4478.78283102
_cell_formula_units_Z   2
loop_
 _symmetry_equiv_pos_site_id
 _symmetry_equiv_pos_as_xyz
  1  'x, y, z'
loop_
 _atom_site_type_symbol
 _atom_site_label
 _atom_site_symmetry_multiplicity
 _atom_site_fract_x
 _atom_site_fract_y
 _atom_site_fract_z
 _atom_site_occupancy
 _atom_site_pbe_bader_charge
 _atom_site_pbe_bader_spin_density
 _atom_site_pbe_cm5_charge
 _atom_site_pbe_ddec_charge
 _atom_site_pbe_ddec_spin_density
 _atom_site_pbe_ddec_sum_bond_order
 _atom_site_pbe_magmom
Al  Al0  1  0.24692264  0.23571882  0.50396439  1  2.495455  0  0.39849  1.683629  0  2.550187  0
Al  Al1  1  0.47763825  0.24797474  0.50183172  1  2.478895  0  0.505163  1.659679  0  2.513461  0
Al  Al2  1  0.25574200  0.46882531  0.50201744  1  2.478539  0  0.504113  1.660146  0  2.516427  0
Al  Al3  1  0.75201638  0.48216446  0.00176382  1  2.492119  0  0.399002  1.682283  0  2.553933  0
Al  Al4  1  0.52154693  0.72639517  0.00165558  1  2.47192  0  0.505725  1.660843  0  2.510927  0
Al  Al5  1  0.74430601  0.72363237  0.00215639  1  2.48475  0  0.504328  1.659476  0  2.518101  0
H  H6  1  0.33323491  0.68952658  0.77137476  1  0.083222  0  0.106613  0.105325  0  0.976275  0
H  H7  1  0.47073716  0.88124197  0.29076038  1  0.04714  0  0.097716  0.090125  0  1.012556  0
H  H8  1  0.89187457  0.66296009  0.29194523  1  0.025456  0  0.103214  0.096403  0  0.996019  0
H  H9  1  0.65519234  0.45788496  0.29345025  1  0.081312  0  0.104143  0.100246  0  0.987497  0
H  H10  1  0.48582907  0.68033266  0.70095663  1  0.074973  0  0.104395  0.094751  0  0.990398  0
H  H11  1  0.84223773  0.47787985  0.70516846  1  0.05842  0  0.103425  0.094378  0  0.992423  0
H  H12  1  0.69113035  0.83787774  0.70940426  1  0.097449  0  0.104591  0.09625  0  0.993227  0
H  H13  1  0.51488621  0.16628271  0.20095925  1  0.061045  0  0.103964  0.094118  0  0.991116  0
H  H14  1  0.15592643  0.31367032  0.20580230  1  0.06743  0  0.102983  0.093473  0  0.994657  0
H  H15  1  0.30710687  0.53104999  0.20954585  1  0.098205  0  0.104133  0.095371  0  0.994438  0
H  H16  1  0.24285151  0.56074485  0.75001762  1  0.408541  0  0.288118  0.275688  0  0.998337  0
H  H17  1  0.99939143  0.33256069  0.77471100  1  0.067055  0  0.103377  0.105317  0  0.986395  0
H  H18  1  0.30745170  0.43499727  0.72089038  1  0.465397  0  0.277106  0.279272  0  1.032244  0
H  H19  1  0.25020186  0.30161345  0.75099478  1  0.429836  0  0.287281  0.274636  0  0.991164  0
H  H20  1  0.20328972  0.30842115  0.69599843  1  0.4253  0  0.299601  0.294433  0  0.947659  0
H  H21  1  0.48663893  0.23618717  0.76259445  1  0.400885  0  0.288242  0.273904  0  0.988895  0
H  H22  1  0.51703389  0.20025129  0.70607315  1  0.421804  0  0.297274  0.289478  0  0.950194  0
H  H23  1  0.75547900  0.80183526  0.25233257  1  0.411463  0  0.286838  0.272762  0  0.999995  0
H  H24  1  0.69208075  0.74388527  0.22044620  1  0.456348  0  0.277288  0.278681  0  1.029874  0
H  H25  1  0.74778690  0.55362940  0.25077695  1  0.419339  0  0.286638  0.273904  0  0.993655  0
H  H26  1  0.79464635  0.51151396  0.19596383  1  0.424756  0  0.298101  0.291858  0  0.95194  0
H  H27  1  0.51263088  0.72362652  0.26254963  1  0.407192  0  0.287941  0.273254  0  0.989536  0
H  H28  1  0.68265997  0.98623196  0.78307500  1  0.059013  0  0.104709  0.106588  0  0.984595  0
H  H29  1  0.48351655  0.71700309  0.20589925  1  0.443988  0  0.297093  0.289949  0  0.950938  0
H  H30  1  0.67865146  0.34260303  0.71904592  1  0.058894  0  0.103493  0.093721  0  0.988966  0
H  H31  1  0.95210912  0.70121716  0.72271684  1  0.075741  0  0.103784  0.093878  0  0.988368  0
H  H32  1  0.35456853  0.96409222  0.71993159  1  0.076215  0  0.107386  0.098838  0  0.982659  0
H  H33  1  0.32205261  0.02140530  0.21833814  1  0.074101  0  0.102357  0.09264  0  0.989889  0
H  H34  1  0.05154420  0.64599456  0.22228888  1  0.078912  0  0.103547  0.093731  0  0.989605  0
H  H35  1  0.64359540  0.31925095  0.21987436  1  0.080397  0  0.105652  0.096337  0  0.985428  0
H  H36  1  0.67303553  0.53721158  0.76051975  1  0.066543  0  0.100253  0.089549  0  1.010187  0
H  H37  1  0.78157702  0.66821508  0.76615432  1  0.073474  0  0.099184  0.087625  0  1.012933  0
H  H38  1  0.54937259  0.78298483  0.76401878  1  0.068529  0  0.101933  0.092533  0  1.00506  0
H  H39  1  0.66639741  0.02350174  0.27211709  1  0.067137  0  0.106159  0.104405  0  0.976579  0
H  H40  1  0.32682516  0.21095308  0.25973281  1  0.07259  0  0.099795  0.089251  0  1.013139  0
H  H41  1  0.21967708  0.44175091  0.26635235  1  0.058522  0  0.099475  0.088355  0  1.011064  0
H  H42  1  0.44892291  0.33361407  0.26394949  1  0.081613  0  0.101733  0.091797  0  1.005971  0
H  H43  1  0.99717097  0.32972299  0.27524533  1  0.047116  0  0.10183  0.103104  0  0.989127  0
H  H44  1  0.31714653  0.66992352  0.28329225  1  0.061054  0  0.104376  0.106358  0  0.985646  0
H  H45  1  0.52868856  0.35158123  0.79068279  1  0.051149  0  0.098612  0.090706  0  1.011161  0
H  H46  1  0.11059347  0.55549207  0.79242505  1  0.052487  0  0.103083  0.096363  0  0.995931  0
H  H47  1  0.34451359  0.11374738  0.79340416  1  0.070377  0  0.104717  0.100908  0  0.98678  0
H  H48  1  0.13491709  0.15930251  0.47755075  1  0.590925  0  0.292426  0.384161  0  0.921397  0
H  H49  1  0.84055896  0.29630300  0.03199195  1  0.570422  0  0.29202  0.382022  0  0.92436  0
C  C50  1  0.12249920  0.43940213  0.56840763  1  1.690192  0  0.277305  0.709504  0  4.167857  0
C  C51  1  0.50121296  0.99817044  0.19745315  1  0.078565  0  0.001923  0.053662  0  3.785856  0
C  C52  1  0.00455898  0.50438489  0.20095789  1  0.116078  0  0.006978  0.07058  0  3.801068  0
C  C53  1  0.49253421  0.50666671  0.20390127  1  0.097952  0  0.00703  0.06788  0  3.797753  0
C  C54  1  0.51783347  0.42390151  0.76946882  1  -0.058249  0  -0.077628  -0.156823  0  3.614179  0
C  C55  1  0.05133439  0.53882828  0.77210162  1  -0.030556  0  -0.072164  -0.133241  0  3.607657  0
C  C56  1  0.42123874  0.05267755  0.77416881  1  -0.052089  0  -0.07115  -0.135861  0  3.611581  0
C  C57  1  0.48191425  0.94246379  0.26954158  1  -0.057495  0  -0.079031  -0.159646  0  3.617012  0
C  C58  1  0.95011338  0.58625279  0.27184445  1  -0.00538  0  -0.071177  -0.132117  0  3.60754  0
C  C59  1  0.57816403  0.47402536  0.27423002  1  -0.061629  0  -0.071869  -0.137435  0  3.614137  0
C  C60  1  0.41041405  0.50629081  0.73786907  1  0.521249  0  0.10761  0.278359  0  3.74141  0
C  C61  1  0.45045951  0.11602098  0.56898702  1  1.656603  0  0.279868  0.707545  0  4.169771  0
C  C62  1  0.08557318  0.43239375  0.73938987  1  0.468635  0  0.102427  0.259781  0  3.727575  0
C  C63  1  0.50027001  0.08329452  0.74490452  1  0.442604  0  0.098937  0.251129  0  3.746367  0
C  C64  1  0.58974730  0.91722263  0.23823933  1  0.527005  0  0.106684  0.276632  0  3.739836  0
C  C65  1  0.91397705  0.51520029  0.23934949  1  0.469579  0  0.102054  0.258137  0  3.729383  0
C  C66  1  0.49916721  0.58408273  0.24503644  1  0.45576  0  0.098521  0.250524  0  3.745861  0
C  C67  1  0.52292149  0.54591998  0.84196427  1  -0.586601  0  -0.026048  -0.038648  0  4.07811  0
C  C68  1  0.93532715  0.52868758  0.84521272  1  -0.372167  0  -0.025365  -0.036756  0  4.081004  0
C  C69  1  0.53916220  0.92770204  0.84774222  1  -0.546905  0  -0.014824  -0.017605  0  4.059496  0
C  C70  1  0.47526041  0.07056974  0.34190434  1  -0.400016  0  -0.029317  -0.044497  0  4.083655  0
C  C71  1  0.06406426  0.46062560  0.34542758  1  -0.530354  0  -0.026686  -0.03856  0  4.083057  0
C  C72  1  0.43464216  0.43175446  0.56537863  1  1.651278  0  0.279151  0.720681  0  4.15417  0
C  C73  1  0.46069806  0.46685707  0.34778145  1  -0.454745  0  -0.016832  -0.021269  0  4.063068  0
C  C74  1  0.48623320  0.47986890  0.64941046  1  -0.368657  0  -0.015558  0.00273  0  4.076227  0
C  C75  1  0.02579991  0.50022355  0.65268417  1  -0.49431  0  -0.023324  -0.023523  0  4.080366  0
C  C76  1  0.49350462  0.03029234  0.65559559  1  -0.29205  0  -0.025876  -0.029643  0  4.081556  0
C  C77  1  0.51515242  0.96551304  0.14954377  1  -0.373332  0  -0.017767  -0.001526  0  4.076774  0
C  C78  1  0.97488503  0.52049500  0.15262938  1  -0.21  0  -0.025418  -0.027713  0  4.085257  0
C  C79  1  0.50504928  0.52508963  0.15570467  1  -0.024981  0  -0.029525  -0.037213  0  4.09108  0
C  C80  1  0.12704061  0.43270116  0.43524305  1  1.680461  0  0.275379  0.714748  0  4.168017  0
C  C81  1  0.43912261  0.12485161  0.43287950  1  1.66867  0  0.273096  0.709466  0  4.167082  0
C  C82  1  0.43361550  0.42443791  0.43633696  1  1.65013  0  0.281918  0.721112  0  4.155564  0
C  C83  1  0.87828084  0.55904929  0.06809483  1  1.667079  0  0.27582  0.712409  0  4.166413  0
C  C84  1  0.87082647  0.56011934  0.93471356  1  1.68101  0  0.277429  0.709308  0  4.17102  0
C  C85  1  0.55717379  0.56529530  0.93302537  1  1.637787  0  0.277247  0.70733  0  4.169253  0
C  C86  1  0.56725598  0.85820115  0.93632330  1  1.639382  0  0.282401  0.721758  0  4.154952  0
C  C87  1  0.49502144  0.60738621  0.72107908  1  -0.023624  0  -0.068008  -0.070545  0  3.655022  0
C  C88  1  0.90162579  0.49486992  0.72516864  1  -0.019612  0  -0.07131  -0.075399  0  3.661489  0
C  C89  1  0.61464584  0.89887569  0.72868502  1  -0.050278  0  -0.070514  -0.074564  0  3.657791  0
C  C90  1  0.50547661  0.10269994  0.22109476  1  -0.002788  0  -0.067983  -0.070764  0  3.652181  0
C  C91  1  0.09741732  0.39077147  0.22554268  1  -0.017474  0  -0.072093  -0.075266  0  3.662565  0
C  C92  1  0.38395604  0.51505033  0.22877248  1  -0.05436  0  -0.070623  -0.073267  0  3.65676  0
C  C93  1  0.41037111  0.61251939  0.75952684  1  -0.060435  0  -0.07329  -0.143969  0  3.641602  0
C  C94  1  0.54906919  0.56707465  0.06914059  1  1.679613  0  0.275207  0.710412  0  4.166677  0
C  C95  1  0.98950907  0.41387149  0.76267403  1  -0.043177  0  -0.07855  -0.161432  0  3.614619  0
C  C96  1  0.60984988  0.98157300  0.76865552  1  -0.025843  0  -0.07938  -0.162271  0  3.624895  0
C  C97  1  0.58944943  0.02356691  0.25994786  1  -0.040861  0  -0.074354  -0.14347  0  3.639849  0
C  C98  1  0.00864957  0.40002725  0.26301838  1  -0.030019  0  -0.080751  -0.163763  0  3.616858  0
C  C99  1  0.38958559  0.59235109  0.26882118  1  -0.039994  0  -0.079561  -0.162953  0  3.624674  0
C  C100  1  0.53255845  0.55300951  0.88454877  1  0.331216  0  -0.043151  -0.20128  0  3.977066  0
C  C101  1  0.91458767  0.53991640  0.88738370  1  0.052315  0  -0.042623  -0.20089  0  3.981563  0
C  C102  1  0.54638791  0.90564272  0.88976650  1  0.274088  0  -0.044272  -0.210228  0  3.970933  0
C  C103  1  0.46454391  0.08786579  0.38442808  1  0.108548  0  -0.044915  -0.200638  0  3.978872  0
C  C104  1  0.08399036  0.45320969  0.38769135  1  0.218788  0  -0.045449  -0.204259  0  3.983703  0
C  C105  1  0.56509935  0.86623338  0.06543922  1  1.617017  0  0.279978  0.721173  0  4.154527  0
C  C106  1  0.45387289  0.45150270  0.38976697  1  0.176615  0  -0.043826  -0.20877  0  3.972409  0
C  C107  1  0.46679249  0.46125607  0.60908993  1  0.110841  0  -0.048878  -0.222198  0  3.975697  0
C  C108  1  0.06221016  0.47786775  0.61240323  1  0.164049  0  -0.040569  -0.200526  0  3.969245  0
C  C109  1  0.48022388  0.06320832  0.61482138  1  0.011318  0  -0.039075  -0.198154  0  3.964842  0
C  C110  1  0.53395986  0.92764120  0.10922928  1  0.134286  0  -0.047355  -0.219108  0  3.974263  0
C  C111  1  0.93858125  0.53523683  0.11227252  1  -0.097857  0  -0.041932  -0.200115  0  3.969123  0
C  C112  1  0.51851909  0.54481806  0.11498293  1  -0.267903  0  -0.041596  -0.197109  0  3.966901  0
C  C113  1  0.59883670  0.52756286  0.75323035  1  -0.026949  0  -0.068191  -0.076578  0  3.624475  0
C  C114  1  0.86835473  0.60113046  0.75764775  1  -0.025439  0  -0.069625  -0.078144  0  3.629398  0
C  C115  1  0.53525165  0.86889312  0.75780306  1  -0.017208  0  -0.066628  -0.075651  0  3.622336  0
C  C116  1  0.49996731  0.49846798  0.69733049  1  0.072811  0  0.000966  0.049683  0  3.788483  0
C  C117  1  0.40117078  0.12697560  0.25281150  1  -0.041891  0  -0.070071  -0.079151  0  3.626164  0
C  C118  1  0.13243048  0.46280753  0.25780129  1  -0.022794  0  -0.069776  -0.080435  0  3.629625  0
C  C119  1  0.46331327  0.40525122  0.25778152  1  -0.033247  0  -0.066948  -0.074959  0  3.622861  0
C  C120  1  0.51344721  0.53298258  0.79280925  1  0.113483  0  0.006682  0.130543  0  3.814829  0
C  C121  1  0.95698283  0.52003515  0.79613389  1  0.12144  0  0.006987  0.130029  0  3.826621  0
C  C122  1  0.52995103  0.95231816  0.79891364  1  0.127115  0  0.007534  0.126503  0  3.814142  0
C  C123  1  0.48578299  0.04751295  0.29279530  1  0.107319  0  0.006716  0.1324  0  3.815692  0
C  C124  1  0.04301791  0.47261772  0.29625435  1  0.120954  0  0.006106  0.132671  0  3.822012  0
C  C125  1  0.46944651  0.48272205  0.29896596  1  0.137747  0  0.007436  0.12803  0  3.813631  0
C  C126  1  0.60194708  0.41971958  0.73101656  1  -0.007285  0  -0.075869  -0.078046  0  3.684494  0
C  C127  1  0.99593985  0.51378504  0.70095878  1  0.130223  0  0.007646  0.069738  0  3.802937  0
C  C128  1  0.96283063  0.61955231  0.73462135  1  -0.039993  0  -0.070807  -0.076745  0  3.645634  0
C  C129  1  0.42705260  0.96922564  0.73429962  1  -0.027201  0  -0.068333  -0.072232  0  3.640963  0
C  C130  1  0.39848305  0.02195438  0.23068847  1  -0.03027  0  -0.075821  -0.079171  0  3.685004  0
C  C131  1  0.03936547  0.57614689  0.23441193  1  -0.033442  0  -0.069897  -0.075136  0  3.64546  0
C  C132  1  0.57153238  0.39697042  0.23429568  1  -0.025058  0  -0.069046  -0.072556  0  3.643631  0
C  C133  1  0.50606287  0.99946304  0.70381183  1  0.107416  0  0.007641  0.066684  0  3.796407  0
N  N134  1  0.30828195  0.50886194  0.72837441  1  -1.230885  0  -0.615852  -0.655048  0  3.35161  0
N  N135  1  0.19872249  0.35523969  0.72526519  1  -1.200533  0  -0.602016  -0.64659  0  3.33262  0
N  N136  1  0.47273222  0.19674747  0.73454457  1  -1.16034  0  -0.606337  -0.638952  0  3.266985  0
N  N137  1  0.69229014  0.81763819  0.22887946  1  -1.238037  0  -0.616954  -0.653617  0  3.343512  0
N  N138  1  0.80044019  0.55338875  0.22510144  1  -1.190693  0  -0.602027  -0.644782  0  3.337866  0
N  N139  1  0.52707111  0.66973367  0.23466885  1  -1.198807  0  -0.606437  -0.639387  0  3.268633  0
O  O140  1  0.35622502  0.13606292  0.55165672  1  -1.21152  0  -0.198486  -0.529906  0  2.280963  0
O  O141  1  0.84694014  0.48973840  0.05432631  1  -1.221194  0  -0.214491  -0.569736  0  2.294388  0
O  O142  1  0.47770915  0.66305742  0.04981469  1  -1.257506  0  -0.242206  -0.601926  0  2.230088  0
O  O143  1  0.66484268  0.83515069  0.04934811  1  -1.239375  0  -0.227766  -0.588975  0  2.247535  0
O  O144  1  0.34240585  0.14847140  0.44832182  1  -1.20853  0  -0.210402  -0.557402  0  2.288797  0
O  O145  1  0.50605373  0.32641757  0.45275967  1  -1.242888  0  -0.227423  -0.586249  0  2.246001  0
O  O146  1  0.15234179  0.50614500  0.45238193  1  -1.250918  0  -0.242039  -0.601716  0  2.236202  0
O  O147  1  0.65236761  0.49065891  0.94930101  1  -1.214162  0  -0.201644  -0.534199  0  2.281662  0
O  O148  1  0.49401501  0.83459763  0.95332581  1  -1.242519  0  -0.228326  -0.588259  0  2.247392  0
O  O149  1  0.85043546  0.65560726  0.95392097  1  -1.257715  0  -0.243406  -0.607943  0  2.239523  0
O  O150  1  0.14099604  0.34363256  0.45555728  1  -1.218515  0  -0.214674  -0.570901  0  2.291098  0
O  O151  1  0.50645389  0.33671967  0.54581839  1  -1.252989  0  -0.231803  -0.599514  0  2.255418  0
O  O152  1  0.51631331  0.13465637  0.45619806  1  -1.256144  0  -0.247362  -0.61021  0  2.227628  0
O  O153  1  0.34190876  0.49798524  0.45695611  1  -1.251151  0  -0.22675  -0.587246  0  2.25363  0
O  O154  1  0.85179851  0.48627086  0.95288848  1  -1.212469  0  -0.203316  -0.540157  0  2.28722  0
O  O155  1  0.48101338  0.65448161  0.95553513  1  -1.254953  0  -0.246669  -0.612007  0  2.23131  0
O  O156  1  0.66035451  0.83792822  0.95645262  1  -1.243609  0  -0.226876  -0.587482  0  2.25258  0
O  O157  1  0.32740445  0.31818805  0.50217744  1  -1.610401  0  -0.39084  -1.272196  0  2.297609  0
O  O158  1  0.67177986  0.64550079  0.00203993  1  -1.616853  0  -0.390701  -1.271698  0  2.294393  0
O  O159  1  0.13988629  0.51204687  0.54575389  1  -1.255804  0  -0.242578  -0.607388  0  2.235381  0
O  O160  1  0.64434162  0.49301978  0.05263300  1  -1.220588  0  -0.210539  -0.561421  0  2.291854  0
O  O161  1  0.49306722  0.84251184  0.04644702  1  -1.243017  0  -0.231055  -0.597608  0  2.254453  0
O  O162  1  0.85778379  0.65210833  0.04724362  1  -1.251454  0  -0.240079  -0.600836  0  2.235461  0
O  O163  1  0.15658104  0.33711765  0.55639520  1  -1.213752  0  -0.206165  -0.548937  0  2.286737  0
O  O164  1  0.52155094  0.14195020  0.55040584  1  -1.250457  0  -0.242309  -0.604785  0  2.234289  0
O  O165  1  0.33414424  0.50039812  0.54974049  1  -1.258964  0  -0.227907  -0.589588  0  2.246376  0
O  O166  1  0.17653622  0.15679353  0.50580418  1  -1.377496  0  -0.576188  -0.994003  0  1.79109  0
O  O167  1  0.82347980  0.33270658  0.00144313  1  -1.351909  0  -0.575843  -0.991159  0  1.796841  0
