# generated using pymatgen
data_AgH11C9N2
_symmetry_space_group_name_H-M   'P 1'
_cell_length_a   8.45494413
_cell_length_b   9.71610857
_cell_length_c   11.74521882
_cell_angle_alpha   90.00000782
_cell_angle_beta   96.83351063
_cell_angle_gamma   90.00038151
_symmetry_Int_Tables_number   1
_chemical_formula_structural   AgH11C9N2
_chemical_formula_sum   'Ag4 H44 C36 N8'
_cell_volume   958.00552312
_cell_formula_units_Z   4
loop_
 _symmetry_equiv_pos_site_id
 _symmetry_equiv_pos_as_xyz
  1  'x, y, z'
loop_
 _atom_site_type_symbol
 _atom_site_label
 _atom_site_symmetry_multiplicity
 _atom_site_fract_x
 _atom_site_fract_y
 _atom_site_fract_z
 _atom_site_occupancy
 _atom_site_pbe_bader_spin_density
 _atom_site_pbe_cm5_charge
 _atom_site_pbe_ddec_charge
 _atom_site_pbe_ddec_spin_density
 _atom_site_pbe_ddec_sum_bond_order
 _atom_site_pbe_magmom
Ag  Ag0  1  0.75795444  0.35702692  0.65149863  1  0  0.441346  0.285438  0  2.374428  0
Ag  Ag1  1  0.74204878  0.85702233  0.84849921  1  0  0.441296  0.285308  0  2.374393  0
Ag  Ag2  1  0.24204598  0.64297936  0.34849641  1  0  0.441281  0.285288  0  2.374168  0
Ag  Ag3  1  0.25795293  0.14297571  0.15150019  1  0  0.441303  0.285327  0  2.374267  0
H  H4  1  0.48903172  0.16270346  0.57218952  1  0  0.093725  0.144197  0  1.010086  0
H  H5  1  0.01097151  0.66270371  0.92781137  1  0  0.093698  0.144148  0  1.010033  0
H  H6  1  0.51097006  0.83729355  0.42781329  1  0  0.093719  0.144202  0  1.010068  0
H  H7  1  0.98902662  0.33729536  0.07218775  1  0  0.093717  0.144178  0  1.01003  0
H  H8  1  0.46796221  0.31147489  0.48363097  1  0  0.092665  0.132228  0  1.018465  0
H  H9  1  0.03204533  0.81147312  0.01637567  1  0  0.092671  0.132242  0  1.018467  0
H  H10  1  0.53203482  0.68852315  0.51637233  1  0  0.092664  0.132251  0  1.018458  0
H  H11  1  0.96795879  0.18852286  0.98362561  1  0  0.092677  0.132234  0  1.018445  0
H  H12  1  0.38878223  0.15213617  0.42932525  1  0  0.092844  0.138191  0  1.019406  0
H  H13  1  0.11121688  0.65213282  0.07067732  1  0  0.09284  0.138183  0  1.01933  0
H  H14  1  0.61121365  0.84785879  0.57067967  1  0  0.09288  0.138257  0  1.019385  0
H  H15  1  0.88878245  0.34786317  0.92932189  1  0  0.092831  0.138192  0  1.019387  0
H  H16  1  0.54174089  0.04219238  0.29902857  1  0  0.094325  0.108138  0  1.059401  0
H  H17  1  0.95825955  0.54218698  0.20097525  1  0  0.094335  0.10819  0  1.059151  0
H  H18  1  0.45826089  0.95780669  0.70097423  1  0  0.094318  0.108148  0  1.05929  0
H  H19  1  0.04173621  0.45781003  0.79902370  1  0  0.094332  0.10815  0  1.059268  0
H  H20  1  0.79892699  0.03497727  0.12305880  1  0  0.094803  0.134063  0  1.011552  0
H  H21  1  0.70107094  0.53497451  0.37694143  1  0  0.094804  0.134054  0  1.011579  0
H  H22  1  0.20107591  0.96501768  0.87694068  1  0  0.094809  0.134079  0  1.01149  0
H  H23  1  0.29892606  0.46502353  0.62306017  1  0  0.094797  0.134058  0  1.011582  0
H  H24  1  0.92368775  0.91689142  0.20525431  1  0  0.091037  0.134018  0  1.024036  0
H  H25  1  0.57631550  0.41688570  0.29474724  1  0  0.091033  0.134004  0  1.024084  0
H  H26  1  0.07631881  0.08311177  0.79474971  1  0  0.091055  0.134027  0  1.024054  0
H  H27  1  0.42367908  0.58311543  0.70525247  1  0  0.091038  0.134036  0  1.024039  0
H  H28  1  0.71188502  0.89509606  0.18906273  1  0  0.092168  0.13508  0  1.014983  0
H  H29  1  0.78811330  0.39509262  0.31093845  1  0  0.092151  0.135023  0  1.014977  0
H  H30  1  0.28811672  0.10490404  0.81093837  1  0  0.092151  0.135036  0  1.015045  0
H  H31  1  0.21187771  0.60490439  0.68906100  1  0  0.092194  0.13508  0  1.014999  0
H  H32  1  0.05185623  0.09450819  0.34127320  1  0  0.098684  0.115203  0  1.037415  0
H  H33  1  0.44814830  0.59450684  0.15872551  1  0  0.098678  0.115234  0  1.037465  0
H  H34  1  0.94814187  0.90549603  0.65872422  1  0  0.098673  0.1152  0  1.037417  0
H  H35  1  0.55185101  0.40549635  0.84127285  1  0  0.098686  0.115263  0  1.037413  0
H  H36  1  0.05825965  0.37359321  0.51738484  1  0  0.092453  0.127738  0  1.027096  0
H  H37  1  0.44174998  0.87359497  0.98261741  1  0  0.092439  0.127731  0  1.027162  0
H  H38  1  0.94173972  0.62641204  0.48261608  1  0  0.092466  0.127761  0  1.027121  0
H  H39  1  0.55826008  0.12641439  0.01738346  1  0  0.092461  0.127736  0  1.027127  0
H  H40  1  0.06215409  0.24176679  0.62234334  1  0  0.091629  0.137148  0  1.016525  0
H  H41  1  0.43785332  0.74176645  0.87765788  1  0  0.091617  0.137158  0  1.01658  0
H  H42  1  0.93784524  0.75823434  0.37765588  1  0  0.09163  0.137152  0  1.016539  0
H  H43  1  0.56214961  0.25823777  0.12234331  1  0  0.091598  0.137082  0  1.016597  0
H  H44  1  0.17289333  0.22293652  0.50279832  1  0  0.096064  0.149014  0  1.01123  0
H  H45  1  0.32710915  0.72294276  0.99720168  1  0  0.096053  0.148993  0  1.011255  0
H  H46  1  0.82710363  0.77706564  0.49720157  1  0  0.096085  0.149065  0  1.011179  0
H  H47  1  0.67289257  0.27707072  0.00279857  1  0  0.096053  0.149022  0  1.01126  0
C  C48  1  0.76448007  0.55540575  0.70482558  1  0  -0.045726  -0.117912  0  3.890779  0
C  C49  1  0.73552084  0.05541229  0.79517203  1  0  -0.045688  -0.117851  0  3.891496  0
C  C50  1  0.23552035  0.44458200  0.29516946  1  0  -0.045643  -0.117862  0  3.891502  0
C  C51  1  0.26447607  0.94458781  0.20482530  1  0  -0.0457  -0.117877  0  3.891338  0
C  C52  1  0.64344673  0.16747125  0.44002610  1  0  0.117344  0.324613  0  3.966296  0
C  C53  1  0.85656066  0.66746625  0.05997997  1  0  0.117382  0.324571  0  3.966512  0
C  C54  1  0.35655272  0.83253091  0.55997909  1  0  0.117406  0.324683  0  3.966415  0
C  C55  1  0.14343984  0.33252562  0.94001848  1  0  0.117424  0.324612  0  3.966412  0
C  C56  1  0.48830918  0.19955669  0.48362103  1  0  -0.244278  -0.460902  0  3.940844  0
C  C57  1  0.01169382  0.69955583  0.01638014  1  0  -0.244263  -0.460818  0  3.94074  0
C  C58  1  0.51169020  0.80044033  0.51638075  1  0  -0.244395  -0.461076  0  3.940776  0
C  C59  1  0.98830907  0.30044119  0.98361934  1  0  -0.244314  -0.460917  0  3.940878  0
C  C60  1  0.65136513  0.08480854  0.34374357  1  0  -0.098313  -0.269119  0  3.90603  0
C  C61  1  0.84862951  0.58481586  0.15625217  1  0  -0.098367  -0.269188  0  3.906421  0
C  C62  1  0.34863781  0.91517921  0.65625762  1  0  -0.098339  -0.269145  0  3.906105  0
C  C63  1  0.15136730  0.41518218  0.84374090  1  0  -0.09835  -0.269143  0  3.906404  0
C  C64  1  0.79834513  0.05698198  0.30513902  1  0  0.009366  0.237231  0  3.972787  0
C  C65  1  0.70166490  0.55698021  0.19486297  1  0  0.009442  0.237247  0  3.972503  0
C  C66  1  0.20165667  0.94301503  0.69486464  1  0  0.009341  0.23715  0  3.972724  0
C  C67  1  0.29833197  0.44301474  0.80513266  1  0  0.009467  0.237425  0  3.972416  0
C  C68  1  0.80898062  0.97050720  0.20074617  1  0  -0.240048  -0.427623  0  3.931751  0
C  C69  1  0.69101705  0.47050627  0.29925326  1  0  -0.240045  -0.427537  0  3.931829  0
C  C70  1  0.19102232  0.02949084  0.79925502  1  0  -0.240032  -0.427564  0  3.931863  0
C  C71  1  0.30897749  0.52949486  0.70074474  1  0  -0.240071  -0.427675  0  3.931812  0
C  C72  1  0.93427139  0.11357191  0.36732835  1  0  -0.094695  -0.25461  0  3.887643  0
C  C73  1  0.56572582  0.61357860  0.13266588  1  0  -0.094716  -0.254671  0  3.887347  0
C  C74  1  0.06573028  0.88642098  0.63266934  1  0  -0.094648  -0.254576  0  3.887775  0
C  C75  1  0.43427339  0.38642562  0.86732822  1  0  -0.09482  -0.254881  0  3.887205  0
C  C76  1  0.91992476  0.19603494  0.46285071  1  0  0.116471  0.316227  0  3.980099  0
C  C77  1  0.58008277  0.69603345  0.03715196  1  0  0.11647  0.316236  0  3.980428  0
C  C78  1  0.08007346  0.80396928  0.53715268  1  0  0.11643  0.316194  0  3.980371  0
C  C79  1  0.41991775  0.30396562  0.96284734  1  0  0.116501  0.316249  0  3.980397  0
C  C80  1  0.06178418  0.26128900  0.53009370  1  0  -0.242011  -0.455314  0  3.939638  0
C  C81  1  0.43821979  0.76129177  0.96990641  1  0  -0.242025  -0.455342  0  3.939606  0
C  C82  1  0.93821397  0.73871316  0.46990628  1  0  -0.242086  -0.455423  0  3.939651  0
C  C83  1  0.56178190  0.23871657  0.03009213  1  0  -0.242037  -0.455299  0  3.939686  0
N  N84  1  0.76936093  0.66787775  0.74169603  1  0  -0.401179  -0.318044  0  3.439538  0
N  N85  1  0.73063740  0.16786367  0.75830737  1  0  -0.401189  -0.31805  0  3.440336  0
N  N86  1  0.23064196  0.33214294  0.25830345  1  0  -0.401207  -0.31797  0  3.440473  0
N  N87  1  0.26935603  0.83213232  0.24169396  1  0  -0.401185  -0.318007  0  3.440239  0
N  N88  1  0.77627329  0.22259453  0.49768979  1  0  -0.348615  -0.314946  0  3.471323  0
N  N89  1  0.72372605  0.72259595  0.00230972  1  0  -0.348635  -0.314902  0  3.471422  0
N  N90  1  0.22372604  0.77740659  0.50230942  1  0  -0.348591  -0.314896  0  3.471254  0
N  N91  1  0.27627563  0.27740518  0.99768882  1  0  -0.348612  -0.314846  0  3.471442  0
