# generated using pymatgen
data_ZnH3C4N3O4
_symmetry_space_group_name_H-M   'P 1'
_cell_length_a   4.63888817
_cell_length_b   10.77256628
_cell_length_c   14.21975115
_cell_angle_alpha   89.99991175
_cell_angle_beta   89.99988819
_cell_angle_gamma   90.00032389
_symmetry_Int_Tables_number   1
_chemical_formula_structural   ZnH3C4N3O4
_chemical_formula_sum   'Zn4 H12 C16 N12 O16'
_cell_volume   710.59978798
_cell_formula_units_Z   4
loop_
 _symmetry_equiv_pos_site_id
 _symmetry_equiv_pos_as_xyz
  1  'x, y, z'
loop_
 _atom_site_type_symbol
 _atom_site_label
 _atom_site_symmetry_multiplicity
 _atom_site_fract_x
 _atom_site_fract_y
 _atom_site_fract_z
 _atom_site_occupancy
 _atom_site_hle17_bader_spin_density
 _atom_site_hle17_ddec_charge
 _atom_site_hle17_ddec_spin_density
 _atom_site_hle17_ddec_sum_bond_order
 _atom_site_hle17_magmom
 _atom_site_hse06_10hf_bader_spin_density
 _atom_site_hse06_10hf_ddec_charge
 _atom_site_hse06_10hf_ddec_spin_density
 _atom_site_hse06_10hf_ddec_sum_bond_order
 _atom_site_hse06_10hf_magmom
 _atom_site_hse06_bader_spin_density
 _atom_site_hse06_ddec_charge
 _atom_site_hse06_ddec_spin_density
 _atom_site_hse06_ddec_sum_bond_order
 _atom_site_hse06_magmom
 _atom_site_pbe_bader_spin_density
 _atom_site_pbe_cm5_charge
 _atom_site_pbe_ddec_charge
 _atom_site_pbe_ddec_spin_density
 _atom_site_pbe_ddec_sum_bond_order
 _atom_site_pbe_magmom
Zn  Zn0  1  0.71485719  0.24728699  0.35113095  1  0  1.034157  0  1.858018  0  0  0.841193  0  2.340153  0  0  0.887638  0  2.285598  0  0  0.708006  0.808469  0  2.377727  0
Zn  Zn1  1  0.28513808  0.74728773  0.64886807  1  0  1.034224  0  1.85802  0  0  0.84125  0  2.340165  0  0  0.887694  0  2.285603  0  0  0.708018  0.80853  0  2.377749  0
Zn  Zn2  1  0.71485895  0.74728690  0.14886904  1  0  1.03421  0  1.857993  0  0  0.841238  0  2.340123  0  0  0.887682  0  2.285565  0  0  0.708013  0.80851  0  2.37771  0
Zn  Zn3  1  0.28514063  0.24728782  0.85112999  1  0  1.034164  0  1.85803  0  0  0.841173  0  2.340162  0  0  0.887619  0  2.28561  0  0  0.70801  0.808453  0  2.377751  0
H  H4  1  0.38532264  0.48406574  0.43439679  1  0  0.115523  0  0.949919  0  0  0.121532  0  1.013395  0  0  0.123932  0  1.012684  0  0  0.122253  0.119784  0  1.014038  0
H  H5  1  0.61468006  0.98406559  0.56560266  1  0  0.115504  0  0.949915  0  0  0.121509  0  1.013404  0  0  0.123907  0  1.012694  0  0  0.12224  0.119767  0  1.014049  0
H  H6  1  0.38532275  0.98406582  0.06560453  1  0  0.115501  0  0.949985  0  0  0.121501  0  1.013482  0  0  0.123899  0  1.012774  0  0  0.12223  0.119755  0  1.014119  0
H  H7  1  0.61467564  0.48406551  0.93439562  1  0  0.115541  0  0.949934  0  0  0.121534  0  1.013442  0  0  0.123933  0  1.012733  0  0  0.122246  0.119789  0  1.014082  0
H  H8  1  0.37440153  0.70835221  0.34023609  1  0  0.119295  0  0.957262  0  0  0.1222  0  1.027193  0  0  0.12553  0  1.024671  0  0  0.120905  0.119763  0  1.029242  0
H  H9  1  0.62559969  0.20835156  0.65976439  1  0  0.119311  0  0.957292  0  0  0.122213  0  1.027223  0  0  0.125544  0  1.0247  0  0  0.120922  0.119779  0  1.029266  0
H  H10  1  0.37440094  0.20835269  0.15976486  1  0  0.119309  0  0.957221  0  0  0.122211  0  1.027153  0  0  0.125541  0  1.024632  0  0  0.120899  0.119776  0  1.029193  0
H  H11  1  0.62559381  0.70835108  0.84023421  1  0  0.119306  0  0.957248  0  0  0.122212  0  1.027173  0  0  0.125541  0  1.024653  0  0  0.120906  0.119776  0  1.029217  0
H  H12  1  0.10039886  0.21362185  0.52496543  1  0  0.031847  0  0.926193  0  0  0.041346  0  0.993138  0  0  0.041445  0  0.988966  0  0  0.119228  0.040854  0  0.996495  0
H  H13  1  0.89960243  0.71362165  0.47503504  1  0  0.03185  0  0.926196  0  0  0.041349  0  0.993143  0  0  0.041447  0  0.988972  0  0  0.11923  0.040857  0  0.996501  0
H  H14  1  0.10040294  0.71361646  0.97503560  1  0  0.031794  0  0.926247  0  0  0.041298  0  0.993182  0  0  0.041395  0  0.989013  0  0  0.11919  0.040802  0  0.996537  0
H  H15  1  0.89959836  0.21362147  0.02496557  1  0  0.031862  0  0.92617  0  0  0.04136  0  0.993115  0  0  0.041458  0  0.988945  0  0  0.11924  0.04087  0  0.996467  0
C  C16  1  0.47823536  0.50815860  0.36688010  1  0  0.065791  0  3.626606  0  0  0.023402  0  3.898861  0  0  0.024582  0  3.919055  0  0  0.023657  0.022636  0  3.885126  0
C  C17  1  0.52176323  0.00815960  0.63311921  1  0  0.065852  0  3.626584  0  0  0.023467  0  3.898814  0  0  0.024649  0  3.919008  0  0  0.023691  0.0227  0  3.885087  0
C  C18  1  0.47823493  0.00815820  0.13312032  1  0  0.065899  0  3.626596  0  0  0.023519  0  3.898834  0  0  0.024699  0  3.919031  0  0  0.023738  0.022753  0  3.88509  0
C  C19  1  0.52175934  0.50815722  0.86687899  1  0  0.065816  0  3.626644  0  0  0.023425  0  3.898887  0  0  0.024606  0  3.919083  0  0  0.023696  0.022669  0  3.885136  0
C  C20  1  0.70871327  0.48884607  0.23674977  1  0  0.323646  0  3.770299  0  0  0.266042  0  4.044438  0  0  0.273701  0  4.069635  0  0  0.288766  0.262995  0  4.028973  0
C  C21  1  0.29128734  0.98884474  0.76324968  1  0  0.32362  0  3.770376  0  0  0.266062  0  4.044494  0  0  0.273687  0  4.069683  0  0  0.288759  0.263015  0  4.029038  0
C  C22  1  0.70871217  0.98884668  0.26325064  1  0  0.323643  0  3.770286  0  0  0.266059  0  4.044373  0  0  0.273734  0  4.069568  0  0  0.288748  0.263006  0  4.028913  0
C  C23  1  0.29128628  0.48884505  0.73674880  1  0  0.323605  0  3.770302  0  0  0.266029  0  4.044411  0  0  0.273682  0  4.069604  0  0  0.288739  0.262981  0  4.028956  0
C  C24  1  0.47287289  0.62146776  0.31924277  1  0  0.066734  0  3.62446  0  0  0.020253  0  3.905347  0  0  0.021779  0  3.92454  0  0  0.021805  0.019151  0  3.892665  0
C  C25  1  0.52712503  0.12146775  0.68075851  1  0  0.066669  0  3.624522  0  0  0.020185  0  3.905416  0  0  0.02171  0  3.924607  0  0  0.021789  0.019089  0  3.892725  0
C  C26  1  0.47287218  0.12146727  0.18075822  1  0  0.066662  0  3.624429  0  0  0.020175  0  3.90533  0  0  0.021699  0  3.924523  0  0  0.021788  0.019077  0  3.892633  0
C  C27  1  0.52712790  0.62146732  0.81924025  1  0  0.066673  0  3.624486  0  0  0.020189  0  3.905389  0  0  0.021713  0  3.924582  0  0  0.021793  0.019091  0  3.892692  0
C  C28  1  0.24141354  0.22895826  0.46354588  1  0  0.583041  0  3.859628  0  0  0.507515  0  4.161536  0  0  0.542221  0  4.153362  0  0  0.149215  0.484057  0  4.166452  0
C  C29  1  0.75858580  0.72895760  0.53645387  1  0  0.583055  0  3.859638  0  0  0.507515  0  4.161549  0  0  0.542221  0  4.153375  0  0  0.1492  0.484067  0  4.166462  0
C  C30  1  0.24142030  0.72895655  0.03645443  1  0  0.583255  0  3.859574  0  0  0.507716  0  4.161463  0  0  0.542423  0  4.153289  0  0  0.14932  0.484267  0  4.166368  0
C  C31  1  0.75858335  0.22895838  0.96354673  1  0  0.583088  0  3.859562  0  0  0.50754  0  4.161474  0  0  0.542248  0  4.153299  0  0  0.149218  0.484092  0  4.16638  0
N  N32  1  0.62858350  0.42495489  0.31416047  1  0  -0.417626  0  3.270872  0  0  -0.340886  0  3.56882  0  0  -0.357441  0  3.581857  0  0  -0.34606  -0.328826  0  3.559088  0
N  N33  1  0.37141843  0.92495484  0.68583976  1  0  -0.417696  0  3.270917  0  0  -0.340945  0  3.568844  0  0  -0.357499  0  3.58188  0  0  -0.346094  -0.328889  0  3.559126  0
N  N34  1  0.62858718  0.92495566  0.18584077  1  0  -0.417653  0  3.27084  0  0  -0.340935  0  3.568789  0  0  -0.35749  0  3.58182  0  0  -0.346085  -0.328872  0  3.559058  0
N  N35  1  0.37141474  0.42495407  0.81415875  1  0  -0.417577  0  3.270905  0  0  -0.340826  0  3.568827  0  0  -0.357381  0  3.581862  0  0  -0.346034  -0.328767  0  3.559099  0
N  N36  1  0.86605256  0.43391792  0.16236800  1  0  0.418807  0  3.997687  0  0  0.484001  0  4.248769  0  0  0.492497  0  4.27523  0  0  0.047067  0.469858  0  4.243829  0
N  N37  1  0.13395379  0.93391977  0.83763292  1  0  0.418746  0  3.997831  0  0  0.483831  0  4.248997  0  0  0.492435  0  4.275344  0  0  0.046987  0.469682  0  4.244061  0
N  N38  1  0.86605532  0.93391838  0.33763097  1  0  0.418734  0  3.99769  0  0  0.483971  0  4.248717  0  0  0.492423  0  4.275219  0  0  0.047095  0.469831  0  4.243782  0
N  N39  1  0.13394457  0.43391931  0.66236784  1  0  0.418756  0  3.997887  0  0  0.483918  0  4.248963  0  0  0.492441  0  4.275396  0  0  0.047051  0.469764  0  4.244041  0
N  N40  1  0.61893608  0.60824555  0.23681091  1  0  -0.416404  0  3.275277  0  0  -0.33926  0  3.578334  0  0  -0.356479  0  3.591145  0  0  -0.348653  -0.327199  0  3.56928  0
N  N41  1  0.38106383  0.10824316  0.76318969  1  0  -0.416337  0  3.275255  0  0  -0.339201  0  3.578309  0  0  -0.356421  0  3.591128  0  0  -0.348635  -0.327135  0  3.56925  0
N  N42  1  0.61893486  0.10824581  0.26318930  1  0  -0.416388  0  3.275316  0  0  -0.339246  0  3.578357  0  0  -0.356464  0  3.591166  0  0  -0.348659  -0.32718  0  3.569292  0
N  N43  1  0.38106289  0.60824475  0.73680989  1  0  -0.416393  0  3.275297  0  0  -0.339268  0  3.578373  0  0  -0.356486  0  3.591183  0  0  -0.348663  -0.327205  0  3.569316  0
O  O44  1  0.96288105  0.32664368  0.17560244  1  0  -0.379303  0  1.799932  0  0  -0.361763  0  2.004067  0  0  -0.369366  0  2.004734  0  0  -0.135073  -0.353541  0  2.007684  0
O  O45  1  0.03712174  0.82664624  0.82439720  1  0  -0.379252  0  1.799904  0  0  -0.361691  0  2.004091  0  0  -0.36933  0  2.004719  0  0  -0.135046  -0.353463  0  2.007716  0
O  O46  1  0.96287958  0.82664323  0.32439730  1  0  -0.379245  0  1.799884  0  0  -0.36174  0  2.004016  0  0  -0.369335  0  2.004702  0  0  -0.135091  -0.353514  0  2.007636  0
O  O47  1  0.03711890  0.32664576  0.67560234  1  0  -0.379258  0  1.799976  0  0  -0.36171  0  2.004124  0  0  -0.369328  0  2.004787  0  0  -0.135054  -0.353487  0  2.00776  0
O  O48  1  0.89799402  0.49385640  0.08789830  1  0  -0.361012  0  1.759611  0  0  -0.348965  0  1.952946  0  0  -0.355036  0  1.953342  0  0  -0.137149  -0.341773  0  1.956687  0
O  O49  1  0.10200665  0.99385709  0.91210255  1  0  -0.360961  0  1.759672  0  0  -0.34888  0  1.953039  0  0  -0.354988  0  1.953399  0  0  -0.137088  -0.341684  0  1.956782  0
O  O50  1  0.89798986  0.99385670  0.41209988  1  0  -0.360993  0  1.759684  0  0  -0.348966  0  1.952994  0  0  -0.355025  0  1.953414  0  0  -0.137148  -0.341779  0  1.956744  0
O  O51  1  0.10200650  0.49385771  0.58789956  1  0  -0.360992  0  1.759751  0  0  -0.348934  0  1.953087  0  0  -0.355018  0  1.95348  0  0  -0.137145  -0.341737  0  1.956834  0
O  O52  1  0.13122803  0.24796947  0.38288907  1  0  -0.608304  0  2.166098  0  0  -0.534098  0  2.460424  0  0  -0.563552  0  2.446159  0  0  -0.321753  -0.513659  0  2.469534  0
O  O53  1  0.86877587  0.74796890  0.61711065  1  0  -0.608317  0  2.166122  0  0  -0.534126  0  2.460489  0  0  -0.563581  0  2.446222  0  0  -0.321748  -0.513691  0  2.469607  0
O  O54  1  0.13122782  0.74797037  0.11711128  1  0  -0.608359  0  2.166011  0  0  -0.534166  0  2.460358  0  0  -0.563621  0  2.446092  0  0  -0.321758  -0.513733  0  2.46947  0
O  O55  1  0.86877177  0.24796893  0.88288986  1  0  -0.608319  0  2.166044  0  0  -0.534114  0  2.460379  0  0  -0.563569  0  2.446115  0  0  -0.321759  -0.513686  0  2.469499  0
O  O56  1  0.51212923  0.22873765  0.47690327  1  0  -0.576206  0  2.061444  0  0  -0.502521  0  2.329799  0  0  -0.531454  0  2.317208  0  0  -0.312229  -0.48259  0  2.337878  0
O  O57  1  0.48787011  0.72873635  0.52309648  1  0  -0.576259  0  2.061476  0  0  -0.502529  0  2.329788  0  0  -0.53146  0  2.317196  0  0  -0.312213  -0.482596  0  2.337867  0
O  O58  1  0.51213822  0.72873318  0.02309687  1  0  -0.57635  0  2.06145  0  0  -0.502619  0  2.329768  0  0  -0.531552  0  2.317176  0  0  -0.312287  -0.482692  0  2.337845  0
O  O59  1  0.48786758  0.22873711  0.97690359  1  0  -0.576281  0  2.061461  0  0  -0.502546  0  2.329791  0  0  -0.53148  0  2.317201  0  0  -0.312236  -0.482617  0  2.337867  0
