# generated using pymatgen
data_Zn4H10C22O13
_symmetry_space_group_name_H-M   'P 1'
_cell_length_a   10.98208220
_cell_length_b   10.96532955
_cell_length_c   16.14073965
_cell_angle_alpha   88.96924563
_cell_angle_beta   98.24307420
_cell_angle_gamma   100.14213601
_symmetry_Int_Tables_number   1
_chemical_formula_structural   Zn4H10C22O13
_chemical_formula_sum   'Zn4 H10 C22 O13'
_cell_volume   1893.51049305
_cell_formula_units_Z   1
loop_
 _symmetry_equiv_pos_site_id
 _symmetry_equiv_pos_as_xyz
  1  'x, y, z'
loop_
 _atom_site_type_symbol
 _atom_site_label
 _atom_site_symmetry_multiplicity
 _atom_site_fract_x
 _atom_site_fract_y
 _atom_site_fract_z
 _atom_site_occupancy
 _atom_site_pbe_bader_charge
 _atom_site_pbe_bader_spin_density
 _atom_site_pbe_cm5_charge
 _atom_site_pbe_ddec_charge
 _atom_site_pbe_ddec_spin_density
 _atom_site_pbe_ddec_sum_bond_order
 _atom_site_pbe_magmom
Zn  Zn0  1  0.40931345  0.59091532  0.56804514  1  1.309627  0  0.670915  0.96091  0  2.381166  0
Zn  Zn1  1  0.60904281  0.61837538  0.43863014  1  1.31277  0  0.674925  0.968045  0  2.353708  0
Zn  Zn2  1  0.37491852  0.38785126  0.42161021  1  1.31583  0  0.670289  0.965929  0  2.345001  0
Zn  Zn3  1  0.60024944  0.40218789  0.57501864  1  1.316396  0  0.677001  0.963347  0  2.378978  0
H  H4  1  0.59198044  0.40587632  0.01141678  1  0.120806  0  0.1233  0.127394  0  0.954621  0
H  H5  1  0.74727401  0.09636155  0.44991610  1  0.071481  0  0.101012  0.10153  0  0.992898  0
H  H6  1  0.40751015  0.59087504  0.98973398  1  0.113628  0  0.129476  0.133858  0  0.946789  0
H  H7  1  0.97016173  0.40120429  0.42394621  1  0.074605  0  0.115394  0.137208  0  0.972728  0
H  H8  1  0.03040659  0.59203431  0.56938899  1  0.132725  0  0.126764  0.14826  0  0.956721  0
H  H9  1  0.37502799  0.98046170  0.45050646  1  0.114682  0  0.115832  0.144133  0  0.973367  0
H  H10  1  0.63357958  0.97147500  0.68604336  1  0.059994  0  0.103781  0.107018  0  0.99003  0
H  H11  1  0.84185761  0.06830164  0.75964762  1  0.04641  0  0.102568  0.096429  0  0.994439  0
H  H12  1  0.00348728  0.17974852  0.67847892  1  0.042844  0  0.101615  0.096771  0  0.993212  0
H  H13  1  0.95652950  0.19219436  0.52329751  1  0.053944  0  0.099177  0.09461  0  1.007409  0
C  C14  1  0.83371222  0.52382673  0.51598112  1  1.569468  0  0.236827  0.655989  0  4.160385  0
C  C15  1  0.53311535  0.83284692  0.51199515  1  1.615878  0  0.235086  0.612261  0  4.163322  0
C  C16  1  0.46800021  0.16757388  0.48905146  1  1.562081  0  0.221684  0.654177  0  4.171826  0
C  C17  1  0.47928330  0.51477979  0.27580819  1  1.669373  0  0.236407  0.678119  0  4.243673  0
C  C18  1  0.51852650  0.48836561  0.72617455  1  1.67375  0  0.231586  0.678213  0  4.239099  0
C  C19  1  0.47324621  0.51941492  0.18589173  1  0.160684  0  -0.02543  -0.171667  0  3.905429  0
C  C20  1  0.46700395  0.53021101  0.02294825  1  0.103883  0  -0.051902  -0.043121  0  4.044639  0
C  C21  1  0.53237925  0.46659799  0.97851515  1  0.13394  0  -0.062191  -0.060772  0  4.060054  0
C  C22  1  0.67714310  0.02938011  0.56345489  1  -0.036257  0  -0.010399  0.085417  0  4.007164  0
C  C23  1  0.70484962  0.01948311  0.65056424  1  -0.051561  0  -0.091206  -0.132176  0  3.971087  0
C  C24  1  0.82176122  0.07420685  0.69169253  1  0.058019  0  -0.09293  -0.08164  0  4.042754  0
C  C25  1  0.52692866  0.47534639  0.89135062  1  -0.475484  0  -0.023227  0.013781  0  4.147805  0
C  C26  1  0.91234747  0.13676702  0.64619588  1  -0.062618  0  -0.092242  -0.086837  0  4.026459  0
C  C27  1  0.88584447  0.14415757  0.55917225  1  0.006187  0  -0.094831  -0.079831  0  4.037431  0
C  C28  1  0.76878573  0.09079230  0.51782107  1  -0.052825  0  -0.08813  -0.123953  0  3.973564  0
C  C29  1  0.47106271  0.52339891  0.11007252  1  -0.435948  0  -0.013551  0.021677  0  4.117472  0
C  C30  1  0.52378739  0.48132730  0.81550509  1  0.181375  0  -0.04015  -0.194767  0  3.950513  0
C  C31  1  0.02461703  0.46440140  0.47239525  1  0.000732  0  -0.091203  -0.219001  0  3.92972  0
C  C32  1  0.97150130  0.53028528  0.52148758  1  -0.031205  0  -0.056459  -0.128838  0  3.852991  0
C  C33  1  0.46096360  0.03165981  0.48498094  1  -0.01475  0  -0.089253  -0.267026  0  3.869155  0
C  C34  1  0.55253923  0.97180708  0.51964197  1  -0.074968  0  0.019087  0.013722  0  3.904143  0
C  C35  1  0.16212825  0.47343037  0.48147045  1  1.56484  0  0.221537  0.64537  0  4.180386  0
O  O36  1  0.49824042  0.50028414  0.49923886  1  -1.232482  0  -0.570009  -1.034993  0  2.524269  0
O  O37  1  0.56376658  0.59502363  0.31663959  1  -1.152888  0  -0.306336  -0.532339  0  2.272897  0
O  O38  1  0.58476129  0.42300735  0.69329780  1  -1.149386  0  -0.309507  -0.536009  0  2.277714  0
O  O39  1  0.40041322  0.43157486  0.30456737  1  -1.151388  0  -0.303821  -0.532231  0  2.269471  0
O  O40  1  0.44801342  0.55927191  0.68839284  1  -1.153441  0  -0.314031  -0.544873  0  2.277106  0
O  O41  1  0.45271432  0.77166095  0.55319592  1  -1.163841  0  -0.306043  -0.531661  0  2.313902  0
O  O42  1  0.54709098  0.22772016  0.54591352  1  -1.177319  0  -0.308739  -0.546041  0  2.380001  0
O  O43  1  0.78473140  0.59533043  0.46336919  1  -1.152747  0  -0.308342  -0.536651  0  2.285902  0
O  O44  1  0.20239321  0.40473763  0.43210160  1  -1.157524  0  -0.317301  -0.549301  0  2.286614  0
O  O45  1  0.77957269  0.44885420  0.56570325  1  -1.155406  0  -0.304  -0.53345  0  2.30523  0
O  O46  1  0.22840042  0.54782228  0.53707434  1  -1.181993  0  -0.318231  -0.553119  0  2.332078  0
O  O47  1  0.60154258  0.79060222  0.46620187  1  -1.164412  0  -0.306054  -0.534516  0  2.31729  0
O  O48  1  0.39102264  0.21301329  0.43508270  1  -1.157509  0  -0.318744  -0.549353  0  2.276794  0
