# generated using pymatgen
data_AgH5C9S(NO)2
_symmetry_space_group_name_H-M   'P 1'
_cell_length_a   7.05199243
_cell_length_b   10.23566187
_cell_length_c   12.97557904
_cell_angle_alpha   90.00009794
_cell_angle_beta   89.99992451
_cell_angle_gamma   90.00072206
_symmetry_Int_Tables_number   1
_chemical_formula_structural   AgH5C9S(NO)2
_chemical_formula_sum   'Ag4 H20 C36 S4 N8 O8'
_cell_volume   936.60078081
_cell_formula_units_Z   4
loop_
 _symmetry_equiv_pos_site_id
 _symmetry_equiv_pos_as_xyz
  1  'x, y, z'
loop_
 _atom_site_type_symbol
 _atom_site_label
 _atom_site_symmetry_multiplicity
 _atom_site_fract_x
 _atom_site_fract_y
 _atom_site_fract_z
 _atom_site_occupancy
 _atom_site_pbe_bader_charge
 _atom_site_pbe_bader_spin_density
 _atom_site_pbe_cm5_charge
 _atom_site_pbe_ddec_charge
 _atom_site_pbe_ddec_spin_density
 _atom_site_pbe_ddec_sum_bond_order
 _atom_site_pbe_magmom
Ag  Ag0  1  0.77332993  0.88352725  0.31849250  1  0.608535  0  0.489582  0.367344  0  2.063882  0
Ag  Ag1  1  0.72666987  0.11648192  0.81849587  1  0.608588  0  0.489588  0.367405  0  2.063811  0
Ag  Ag2  1  0.22666421  0.38352298  0.18150500  1  0.608498  0  0.489582  0.367415  0  2.06385  0
Ag  Ag3  1  0.27333204  0.61647884  0.68150981  1  0.608504  0  0.489569  0.367376  0  2.06391  0
H  H4  1  0.97392236  0.38997235  0.35811498  1  0.197035  0  0.115481  0.166038  0  1.028347  0
H  H5  1  0.79531949  0.64195274  0.69750739  1  0.17165  0  0.106009  0.129873  0  1.042091  0
H  H6  1  0.79385755  0.81408439  0.83390451  1  0.107174  0  0.118091  0.09157  0  0.97754  0
H  H7  1  0.95633130  0.09996004  0.62504623  1  0.108023  0  0.118422  0.096757  0  0.97789  0
H  H8  1  0.98438976  0.93986466  0.48252137  1  0.16105  0  0.101473  0.123522  0  1.066037  0
H  H9  1  0.52608018  0.61003788  0.85812765  1  0.197094  0  0.115508  0.16609  0  1.02832  0
H  H10  1  0.70467920  0.35805325  0.19751413  1  0.171933  0  0.105987  0.129806  0  1.042068  0
H  H11  1  0.70614221  0.18591699  0.33390175  1  0.107153  0  0.118062  0.091573  0  0.97767  0
H  H12  1  0.54369027  0.90004677  0.12504303  1  0.108137  0  0.11845  0.096815  0  0.977823  0
H  H13  1  0.51561246  0.06013997  0.98252327  1  0.161011  0  0.101459  0.123504  0  1.066088  0
H  H14  1  0.02609317  0.88996029  0.14187173  1  0.197097  0  0.115478  0.166047  0  1.028345  0
H  H15  1  0.20468858  0.14194561  0.80248984  1  0.1715  0  0.105979  0.129815  0  1.042071  0
H  H16  1  0.20615949  0.31408285  0.66609990  1  0.107129  0  0.118104  0.091648  0  0.977612  0
H  H17  1  0.04368164  0.59994863  0.87495172  1  0.108228  0  0.118478  0.096842  0  0.977755  0
H  H18  1  0.01559411  0.43985635  0.01747158  1  0.160929  0  0.101506  0.123545  0  1.065989  0
H  H19  1  0.47391594  0.11003265  0.64188341  1  0.197264  0  0.115493  0.166037  0  1.028361  0
H  H20  1  0.29533146  0.85804766  0.30249413  1  0.171465  0  0.106063  0.129908  0  1.042065  0
H  H21  1  0.29385806  0.68591209  0.16609932  1  0.107207  0  0.118061  0.091576  0  0.977628  0
H  H22  1  0.45632970  0.40004090  0.37495141  1  0.108048  0  0.118427  0.09677  0  0.977867  0
H  H23  1  0.48439972  0.56013340  0.51747925  1  0.160998  0  0.101439  0.123502  0  1.066047  0
C  C24  1  0.88500794  0.61046173  0.21783780  1  1.646314  0  0.182767  0.539072  0  4.299187  0
C  C25  1  0.89684547  0.59919443  0.33401758  1  0.467347  0  0.073207  0.067368  0  3.993606  0
C  C26  1  0.93951028  0.48661669  0.38810525  1  -0.292255  0  -0.083942  -0.221511  0  3.882972  0
C  C27  1  0.89434461  0.67957532  0.49541852  1  0.419168  0  0.119901  0.106019  0  3.971449  0
C  C28  1  0.88799120  0.77633121  0.57800219  1  0.085918  0  0.00297  0.081699  0  4.023419  0
C  C29  1  0.84019998  0.74136025  0.67951056  1  -0.113009  0  -0.086018  -0.169956  0  3.935574  0
C  C30  1  0.83489450  0.83749576  0.75497008  1  0.463387  0  0.04055  0.090063  0  3.947632  0
C  C31  1  0.92527915  0.99696592  0.63830099  1  0.483314  0  0.040755  0.096319  0  3.923752  0
C  C32  1  0.93583853  0.90729899  0.55832222  1  -0.089922  0  -0.087075  -0.168078  0  3.928513  0
C  C33  1  0.61499354  0.38953160  0.71784548  1  1.646836  0  0.183018  0.53955  0  4.298731  0
C  C34  1  0.60316138  0.40081868  0.83402914  1  0.46761  0  0.073208  0.067466  0  3.993509  0
C  C35  1  0.56048651  0.51339555  0.88812007  1  -0.292475  0  -0.084009  -0.221642  0  3.88332  0
C  C36  1  0.60563772  0.32043813  0.99542535  1  0.420299  0  0.120043  0.106317  0  3.971504  0
C  C37  1  0.61199788  0.22367647  0.07800803  1  0.085914  0  0.003004  0.081703  0  4.023133  0
C  C38  1  0.65980159  0.25864374  0.17951256  1  -0.113462  0  -0.086004  -0.169882  0  3.935506  0
C  C39  1  0.66511680  0.16250155  0.25497040  1  0.463437  0  0.040544  0.09001  0  3.947906  0
C  C40  1  0.57472821  0.00303896  0.13829807  1  0.483321  0  0.040751  0.096281  0  3.923961  0
C  C41  1  0.56415910  0.09270182  0.05832097  1  -0.089845  0  -0.08704  -0.168024  0  3.928569  0
C  C42  1  0.11499515  0.11046456  0.28215546  1  1.646815  0  0.182856  0.539253  0  4.29896  0
C  C43  1  0.10315598  0.09918227  0.16597336  1  0.467605  0  0.073231  0.067547  0  3.993408  0
C  C44  1  0.06048300  0.98660486  0.11188006  1  -0.292491  0  -0.083976  -0.221552  0  3.883272  0
C  C45  1  0.10563711  0.17956479  0.00457484  1  0.420243  0  0.120104  0.106315  0  3.971761  0
C  C46  1  0.11200527  0.27631967  0.92199369  1  0.085921  0  0.002938  0.081625  0  4.023287  0
C  C47  1  0.15980574  0.24135573  0.82048912  1  -0.113133  0  -0.086007  -0.169979  0  3.935647  0
C  C48  1  0.16513433  0.33749210  0.74503128  1  0.463654  0  0.040527  0.09007  0  3.947814  0
C  C49  1  0.07472863  0.49695491  0.86169982  1  0.483317  0  0.040707  0.096251  0  3.923774  0
C  C50  1  0.06415903  0.40729197  0.94167770  1  -0.089745  0  -0.087044  -0.167985  0  3.928234  0
C  C51  1  0.38500084  0.88954919  0.78215903  1  1.646416  0  0.182908  0.5394  0  4.298704  0
C  C52  1  0.39684314  0.90081365  0.66598002  1  0.467284  0  0.073255  0.067415  0  3.993658  0
C  C53  1  0.43951484  0.01338801  0.61189009  1  -0.292654  0  -0.083967  -0.221494  0  3.883136  0
C  C54  1  0.39435959  0.82042395  0.50457985  1  0.419256  0  0.119855  0.105959  0  3.97137  0
C  C55  1  0.38799036  0.72366702  0.42199772  1  0.086257  0  0.003003  0.08176  0  4.023412  0
C  C56  1  0.34019440  0.75863661  0.32049247  1  -0.113142  0  -0.086047  -0.169919  0  3.935591  0
C  C57  1  0.33488019  0.66250008  0.24503219  1  0.463438  0  0.040547  0.090002  0  3.947875  0
C  C58  1  0.42527282  0.50303556  0.36170352  1  0.483392  0  0.04079  0.096379  0  3.923571  0
C  C59  1  0.43583797  0.59270063  0.44168229  1  -0.08999  0  -0.087059  -0.168108  0  3.928554  0
S  S60  1  0.94607166  0.51647912  0.51703130  1  0.343607  0  0.145535  0.203388  0  2.992353  0
S  S61  1  0.55391048  0.48353040  0.01704062  1  0.343246  0  0.145522  0.203335  0  2.99275  0
S  S62  1  0.05391699  0.01646819  0.98296037  1  0.343326  0  0.145512  0.203337  0  2.992758  0
S  S63  1  0.44608699  0.98352156  0.48296472  1  0.343686  0  0.145506  0.203324  0  2.992414  0
N  N64  1  0.87045813  0.70640777  0.39620756  1  -1.200477  0  -0.346639  -0.24355  0  3.5827  0
N  N65  1  0.87271059  0.96435531  0.73514907  1  -1.205236  0  -0.358799  -0.224924  0  3.624351  0
N  N66  1  0.62954147  0.29360254  0.89621664  1  -1.201627  0  -0.346815  -0.244  0  3.583189  0
N  N67  1  0.62729935  0.03564489  0.23514154  1  -1.2053  0  -0.358794  -0.224875  0  3.624668  0
N  N68  1  0.12953687  0.20639765  0.10378275  1  -1.201589  0  -0.346854  -0.24408  0  3.583235  0
N  N69  1  0.12730082  0.46435235  0.76485401  1  -1.205514  0  -0.358805  -0.22498  0  3.624678  0
N  N70  1  0.37045532  0.79359814  0.60379082  1  -1.200481  0  -0.346649  -0.243618  0  3.582668  0
N  N71  1  0.37269521  0.53564378  0.26485702  1  -1.205301  0  -0.358814  -0.224969  0  3.62452  0
O  O72  1  0.84346759  0.72060192  0.17950897  1  -1.17238  0  -0.348827  -0.560809  0  2.224108  0
O  O73  1  0.92025803  0.50649004  0.16778832  1  -1.18927  0  -0.343448  -0.570189  0  2.312953  0
O  O74  1  0.65650137  0.27940011  0.67952341  1  -1.172679  0  -0.348858  -0.560831  0  2.224504  0
O  O75  1  0.57974357  0.49351784  0.66778692  1  -1.189151  0  -0.343583  -0.570559  0  2.312534  0
O  O76  1  0.15651066  0.22060128  0.32047828  1  -1.172683  0  -0.348798  -0.560776  0  2.224372  0
O  O77  1  0.07976433  0.00648194  0.33221482  1  -1.189195  0  -0.343533  -0.570407  0  2.312723  0
O  O78  1  0.34345686  0.77940669  0.82048944  1  -1.1722  0  -0.34893  -0.561012  0  2.223758  0
O  O79  1  0.42025138  0.99351922  0.83220927  1  -1.18937  0  -0.343468  -0.570292  0  2.312934  0
