# generated using pymatgen
data_KH7C10(NO2)4
_symmetry_space_group_name_H-M   'P 1'
_cell_length_a   6.92024318
_cell_length_b   8.44678759
_cell_length_c   12.11863324
_cell_angle_alpha   85.21935138
_cell_angle_beta   78.22393978
_cell_angle_gamma   65.81425631
_symmetry_Int_Tables_number   1
_chemical_formula_structural   KH7C10(NO2)4
_chemical_formula_sum   'K2 H14 C20 N8 O16'
_cell_volume   632.59952704
_cell_formula_units_Z   2
loop_
 _symmetry_equiv_pos_site_id
 _symmetry_equiv_pos_as_xyz
  1  'x, y, z'
loop_
 _atom_site_type_symbol
 _atom_site_label
 _atom_site_symmetry_multiplicity
 _atom_site_fract_x
 _atom_site_fract_y
 _atom_site_fract_z
 _atom_site_occupancy
 _atom_site_pbe_bader_charge
 _atom_site_pbe_bader_spin_density
 _atom_site_pbe_cm5_charge
 _atom_site_pbe_ddec_charge
 _atom_site_pbe_ddec_spin_density
 _atom_site_pbe_ddec_sum_bond_order
 _atom_site_pbe_magmom
K  K0  1  0.07543588  0.94956981  0.45877420  1  0.888805  0  0.806086  0.854459  0  0.689644  0
K  K1  1  0.02428835  0.05026648  0.95875545  1  0.889053  0  0.806111  0.854295  0  0.689971  0
H  H2  1  0.05214354  0.98144288  0.21156476  1  0.643367  0  0.289244  0.350355  0  1.010088  0
H  H3  1  0.03367572  0.01890799  0.71166787  1  0.642733  0  0.28935  0.350234  0  1.010438  0
H  H4  1  0.14188144  0.33598052  0.44060695  1  0.560286  0  0.320087  0.307161  0  0.965775  0
H  H5  1  0.47755260  0.66411572  0.94056532  1  0.568902  0  0.319811  0.306819  0  0.966127  0
H  H6  1  0.54758385  0.11801931  0.14415856  1  0.546884  0  0.318889  0.307521  0  0.987958  0
H  H7  1  0.66591414  0.88200378  0.64433922  1  0.578738  0  0.31868  0.307768  0  0.987635  0
H  H8  1  0.42273886  0.14452214  0.76686452  1  0.554366  0  0.323934  0.302697  0  0.961863  0
H  H9  1  0.56680736  0.85556411  0.26670021  1  0.558906  0  0.323756  0.302431  0  0.96217  0
H  H10  1  0.61945499  0.33121684  0.46172437  1  0.557171  0  0.317636  0.316082  0  0.974474  0
H  H11  1  0.95034409  0.66853530  0.96157493  1  0.552359  0  0.318066  0.316295  0  0.974152  0
H  H12  1  0.07300918  0.61534084  0.37253386  1  0.199305  0  0.138619  0.114686  0  1.025533  0
H  H13  1  0.68828346  0.38474573  0.87245637  1  0.182443  0  0.138587  0.114897  0  1.025725  0
H  H14  1  0.20661688  0.42804872  0.83989474  1  0.214644  0  0.13293  0.113308  0  1.022646  0
H  H15  1  0.63447486  0.57204666  0.33982951  1  0.220234  0  0.132793  0.11374  0  1.022802  0
C  C16  1  0.22588234  0.72011341  0.16877104  1  1.52999  0  0.215077  0.616539  0  4.17705  0
C  C17  1  0.94644124  0.27992997  0.66880013  1  1.553468  0  0.215722  0.616964  0  4.175318  0
C  C18  1  0.27764293  0.53921336  0.20922235  1  0.071292  0  -0.048316  -0.316918  0  3.995056  0
C  C19  1  0.81707154  0.46084499  0.70922915  1  0.089706  0  -0.048177  -0.316532  0  3.997122  0
C  C20  1  0.18444799  0.50993433  0.31613793  1  0.390414  0  0.074322  0.143266  0  3.924487  0
C  C21  1  0.69435566  0.49015649  0.81610444  1  0.368192  0  0.074454  0.143146  0  3.925143  0
C  C22  1  0.35466735  0.20110778  0.29793874  1  1.848845  0  0.353749  0.659057  0  4.114001  0
C  C23  1  0.55566525  0.79894791  0.79800156  1  1.84769  0  0.35316  0.658927  0  4.115886  0
C  C24  1  0.42175509  0.38889580  0.13914738  1  1.343791  0  0.238576  0.531596  0  4.119325  0
C  C25  1  0.81086767  0.61111226  0.63919442  1  1.355298  0  0.237676  0.529764  0  4.123907  0
C  C26  1  0.14543912  0.73535657  0.73738998  1  1.605359  0  0.210244  0.614485  0  4.210277  0
C  C27  1  0.88077454  0.26470977  0.23737386  1  1.580099  0  0.210638  0.615851  0  4.210513  0
C  C28  1  0.27746915  0.55953489  0.68629094  1  0.044801  0  -0.0455  -0.305829  0  3.968275  0
C  C29  1  0.83682397  0.44044276  0.18622065  1  0.078132  0  -0.045048  -0.305797  0  3.969785  0
C  C30  1  0.29297907  0.41640851  0.75273427  1  0.331631  0  0.072058  0.141906  0  3.912476  0
C  C31  1  0.70908772  0.58363839  0.25265030  1  0.339993  0  0.072038  0.14049  0  3.913917  0
C  C32  1  0.53793527  0.21552083  0.60863533  1  1.863792  0  0.354327  0.657356  0  4.12867  0
C  C33  1  0.75287147  0.78436804  0.10844985  1  1.846602  0  0.354428  0.656133  0  4.130453  0
C  C34  1  0.39499917  0.53101415  0.56987059  1  1.344067  0  0.239171  0.538854  0  4.092989  0
C  C35  1  0.92593617  0.46879033  0.06979673  1  1.330673  0  0.239077  0.539052  0  4.092207  0
N  N36  1  0.22011462  0.34987978  0.35956083  1  -1.282361  0  -0.367937  -0.325983  0  3.557358  0
N  N37  1  0.56979499  0.65020440  0.85955350  1  -1.303372  0  -0.367655  -0.32632  0  3.559155  0
N  N38  1  0.44561618  0.22960316  0.19141730  1  -1.256675  0  -0.379072  -0.4448  0  3.470668  0
N  N39  1  0.67536564  0.77040624  0.69151248  1  -1.295153  0  -0.378426  -0.443774  0  3.469987  0
N  N40  1  0.41472078  0.25174667  0.71567236  1  -1.28594  0  -0.368659  -0.325893  0  3.561331  0
N  N41  1  0.66592607  0.74824799  0.21552084  1  -1.30513  0  -0.368679  -0.324512  0  3.56214  0
N  N42  1  0.52351406  0.35675372  0.54205131  1  -1.284826  0  -0.379914  -0.449141  0  3.47137  0
N  N43  1  0.87984556  0.64305421  0.04188932  1  -1.250143  0  -0.379937  -0.448389  0  3.470349  0
O  O44  1  0.10066466  0.83931637  0.24513723  1  -1.196252  0  -0.388877  -0.570849  0  2.331461  0
O  O45  1  0.94032609  0.16080358  0.74520244  1  -1.190769  0  -0.389155  -0.570156  0  2.331642  0
O  O46  1  0.29258237  0.75639933  0.07029891  1  -1.185638  0  -0.346195  -0.55671  0  2.196826  0
O  O47  1  0.04974200  0.24346136  0.57039330  1  -1.181342  0  -0.346319  -0.556715  0  2.1959  0
O  O48  1  0.38721531  0.05306588  0.33715441  1  -1.172001  0  -0.344635  -0.553575  0  2.133286  0
O  O49  1  0.44004076  0.94701214  0.83723124  1  -1.176211  0  -0.34397  -0.553575  0  2.134329  0
O  O50  1  0.52284995  0.38869738  0.04211755  1  -1.158999  0  -0.292697  -0.498065  0  2.147816  0
O  O51  1  0.91182410  0.61127332  0.54217309  1  -1.157828  0  -0.291937  -0.497105  0  2.148837  0
O  O52  1  0.13705680  0.86598102  0.67198905  1  -1.174026  0  -0.388436  -0.560263  0  2.334701  0
O  O53  1  0.00284103  0.13398990  0.17192091  1  -1.183917  0  -0.388419  -0.560604  0  2.336662  0
O  O54  1  0.05417397  0.75018136  0.83948393  1  -1.208125  0  -0.356334  -0.593975  0  2.20044  0
O  O55  1  0.80464608  0.24997972  0.33951335  1  -1.206797  0  -0.355884  -0.594181  0  2.200736  0
O  O56  1  0.65631727  0.06489384  0.57531783  1  -1.175435  0  -0.34282  -0.552142  0  2.186018  0
O  O57  1  0.72044339  0.93497481  0.07509093  1  -1.172223  0  -0.34301  -0.551596  0  2.186249  0
O  O58  1  0.39459923  0.64100758  0.49516102  1  -1.158372  0  -0.35675  -0.516203  0  2.157069  0
O  O59  1  0.03584920  0.35867971  0.99514467  1  -1.160497  0  -0.356538  -0.516531  0  2.156724  0
