# generated using pymatgen
data_CuH12C10N4(ClO2)2
_symmetry_space_group_name_H-M   'P 1'
_cell_length_a   5.09972515
_cell_length_b   7.38590278
_cell_length_c   9.92248650
_cell_angle_alpha   73.09531825
_cell_angle_beta   83.62390981
_cell_angle_gamma   77.07330085
_symmetry_Int_Tables_number   1
_chemical_formula_structural   CuH12C10N4(ClO2)2
_chemical_formula_sum   'Cu1 H12 C10 N4 Cl2 O4'
_cell_volume   348.10488903
_cell_formula_units_Z   1
loop_
 _symmetry_equiv_pos_site_id
 _symmetry_equiv_pos_as_xyz
  1  'x, y, z'
loop_
 _atom_site_type_symbol
 _atom_site_label
 _atom_site_symmetry_multiplicity
 _atom_site_fract_x
 _atom_site_fract_y
 _atom_site_fract_z
 _atom_site_occupancy
 _atom_site_hle17_ddec_charge
 _atom_site_hle17_ddec_spin_density
 _atom_site_hle17_ddec_sum_bond_order
 _atom_site_hle17_magmom
 _atom_site_hse06_10hf_ddec_charge
 _atom_site_hse06_10hf_ddec_spin_density
 _atom_site_hse06_10hf_ddec_sum_bond_order
 _atom_site_hse06_10hf_magmom
 _atom_site_hse06_ddec_charge
 _atom_site_hse06_ddec_spin_density
 _atom_site_hse06_ddec_sum_bond_order
 _atom_site_hse06_magmom
 _atom_site_pbe_cm5_charge
 _atom_site_pbe_ddec_charge
 _atom_site_pbe_ddec_spin_density
 _atom_site_pbe_ddec_sum_bond_order
 _atom_site_pbe_magmom
Cu  Cu0  1  0.99999746  0.00000007  0.00000060  1  0.905465  0.708197  1.761262  0.542  0.888907  0.800571  2.146937  0.665  0.974886  0.861905  2.089572  0.75  0.76082  0.827969  0.754307  2.195174  0.605
H  H1  1  0.35043174  0.27344603  0.01700417  1  0.291094  9.7e-05  0.960385  0.0  0.269733  0.000213  1.024581  0.0  0.278174  0.000128  1.018753  0.0  0.313858  0.263588  0.000292  1.028847  0.0
H  H2  1  0.64956712  0.72655560  0.98299665  1  0.291088  9.7e-05  0.960339  0.0  0.269731  0.000213  1.024543  0.0  0.278171  0.000128  1.018714  0.0  0.313857  0.263579  0.000292  1.028812  0.0
H  H3  1  0.67688399  0.14240244  0.26075846  1  0.098207  -1.9e-05  0.977275  0.001  0.104052  6.9e-05  1.046225  0.001  0.106116  1.2e-05  1.043988  0.0  0.112271  0.102215  0.000135  1.048278  0.001
H  H4  1  0.32311685  0.85759918  0.73924024  1  0.098214  -1.9e-05  0.977243  0.001  0.104058  7e-05  1.046186  0.001  0.106124  1.2e-05  1.043953  0.0  0.112271  0.102225  0.000136  1.04824  0.001
H  H5  1  0.81669770  0.42815288  0.34691511  1  0.11381  0.000691  0.991457  0.001  0.121582  0.00048  1.055422  0.001  0.124188  0.000338  1.055527  0.0  0.094772  0.119425  0.000594  1.055834  0.001
H  H6  1  0.18329997  0.57184586  0.65308540  1  0.113826  0.000692  0.991395  0.001  0.121599  0.00048  1.055353  0.001  0.124204  0.000338  1.055457  0.0  0.094779  0.119444  0.000594  1.055765  0.001
H  H7  1  0.26043836  0.51455049  0.17156554  1  0.114649  0.000474  0.965173  0.001  0.125588  0.000306  1.026742  0.001  0.128346  0.000227  1.024149  0.0  0.121214  0.123278  0.000361  1.028911  0.001
H  H8  1  0.73956050  0.48545113  0.82843428  1  0.114641  0.000468  0.96515  0.001  0.125579  0.000306  1.026725  0.001  0.128336  0.000227  1.024133  0.0  0.121215  0.123272  0.000361  1.028894  0.001
H  H9  1  0.72616708  0.08392976  0.66064818  1  0.1326  0.000126  0.920821  0.0  0.142004  0.000316  0.980847  0.0  0.144202  0.000188  0.980572  0.0  0.109942  0.140585  0.000408  0.98102  0.0
H  H10  1  0.27383296  0.91606753  0.33935150  1  0.132613  0.000124  0.920841  0.0  0.141996  0.000316  0.980876  0.0  0.144195  0.000188  0.980601  0.0  0.10994  0.140569  0.000408  0.981045  0.0
H  H11  1  0.67190373  0.33721700  0.63572513  1  0.116752  0.000145  0.945252  0.0  0.122561  0.000203  1.01571  0.0  0.125038  8.6e-05  1.014236  0.0  0.100184  0.120802  0.000363  1.016888  0.0
H  H12  1  0.32809236  0.66278031  0.36427679  1  0.116742  0.000146  0.945275  0.0  0.122543  0.000204  1.01573  0.0  0.125021  8.5e-05  1.014256  0.0  0.100182  0.120784  0.000363  1.016884  0.0
C  C13  1  0.83919824  0.21903238  0.22074101  1  0.048695  -0.005028  3.729808  -0.001  0.012787  -0.001178  4.002702  0.001  0.024678  -0.002578  4.016404  0.0  0.010035  0.005167  -0.000162  3.993674  0.002
C  C14  1  0.16079864  0.78096925  0.77925791  1  0.048666  -0.005039  3.729821  -0.001  0.012763  -0.001179  4.002704  0.001  0.02465  -0.002576  4.016411  0.0  0.010038  0.005143  -0.000161  3.993685  0.002
C  C15  1  0.91306359  0.36444574  0.26396626  1  -0.218477  0.004043  3.785095  0.005  -0.227611  0.001888  4.041357  0.003  -0.238127  0.001476  4.061642  0.002  -0.124743  -0.221137  0.002281  4.028484  0.003
C  C16  1  0.08693290  0.63555733  0.73603338  1  -0.218481  0.00404  3.785064  0.005  -0.227608  0.001888  4.041311  0.003  -0.238124  0.001476  4.061598  0.002  -0.124737  -0.221134  0.002282  4.028455  0.003
C  C17  1  0.13889993  0.40831329  0.17847537  1  0.068296  -0.005263  3.659852  -0.002  0.019334  -0.001838  3.9227  0.0  0.029706  -0.002683  3.934709  -0.001  0.019588  0.012779  -0.00114  3.914936  0.0
C  C18  1  0.86110130  0.59168689  0.82152463  1  0.068294  -0.005236  3.659829  -0.002  0.019339  -0.001837  3.92268  0.0  0.029711  -0.002684  3.934693  -0.001  0.019588  0.01278  -0.001139  3.914922  0.0
C  C19  1  0.43442963  0.18744405  0.80831969  1  0.693153  -0.006031  3.844051  -0.006  0.649211  0.000229  4.15867  0.0  0.686773  -8.1e-05  4.150506  0.0  0.210453  0.623229  0.000861  4.162614  0.0
C  C20  1  0.56557041  0.81255324  0.19167999  1  0.693158  -0.00602  3.844024  -0.006  0.649211  0.00023  4.158655  0.0  0.686772  -8.2e-05  4.150489  0.0  0.210421  0.623218  0.00086  4.162591  0.0
C  C21  1  0.57163686  0.21411489  0.66093021  1  -0.191313  0.010734  3.581591  0.012  -0.233706  0.005992  3.848592  0.007  -0.236207  0.003757  3.850799  0.005  -0.126247  -0.232101  0.007975  3.847271  0.009
C  C22  1  0.42836516  0.78588239  0.33907037  1  -0.191364  0.010735  3.581596  0.012  -0.233714  0.005991  3.848562  0.007  -0.236222  0.003757  3.85078  0.005  -0.126222  -0.232076  0.007975  3.847206  0.009
N  N23  1  0.00944452  0.17696937  0.11509578  1  -0.239036  0.06312  3.244349  0.082  -0.212696  0.043  3.558271  0.059  -0.239419  0.034711  3.579328  0.051  -0.282969  -0.195688  0.047353  3.545247  0.062
N  N24  1  0.99055829  0.82303224  0.88490180  1  -0.239017  0.063121  3.24443  0.082  -0.212671  0.043  3.558361  0.059  -0.239391  0.034711  3.579416  0.051  -0.282971  -0.195664  0.047352  3.545339  0.062
N  N25  1  0.18988945  0.29340061  0.09129916  1  -0.160776  0.002141  3.472068  0.003  -0.09334  0.001475  3.70541  0.002  -0.105193  0.001109  3.726779  0.001  -0.283883  -0.085229  0.001788  3.690855  0.002
N  N26  1  0.81011375  0.70659955  0.90870072  1  -0.16077  0.00214  3.472053  0.003  -0.093364  0.001474  3.705425  0.002  -0.105215  0.001107  3.726795  0.001  -0.283889  -0.085238  0.001787  3.690868  0.002
Cl  Cl27  1  0.34983314  0.25309256  0.52342761  1  -0.11077  -0.000796  1.311011  -0.001  -0.083113  1.1e-05  1.560691  0.0  -0.087178  -0.0001  1.553486  0.0  -0.029068  -0.080116  0.000248  1.565939  0.0
Cl  Cl28  1  0.65016888  0.74690473  0.47657297  1  -0.110746  -0.000795  1.311012  -0.001  -0.0831  1.1e-05  1.560667  0.0  -0.087162  -0.0001  1.553466  0.0  -0.029078  -0.080115  0.000247  1.565904  0.0
O  O29  1  0.20622865  0.13909113  0.82835051  1  -0.586843  0.081545  2.095925  0.114  -0.567478  0.049103  2.389616  0.075  -0.608679  0.033865  2.382927  0.057  -0.31239  -0.537199  0.061003  2.392954  0.088
O  O30  1  0.79377061  0.86090905  0.17164859  1  -0.586859  0.081538  2.095903  0.114  -0.567459  0.049102  2.389599  0.075  -0.608656  0.033867  2.382906  0.057  -0.312379  -0.53718  0.061008  2.392929  0.088
O  O31  1  0.56750937  0.21390218  0.89903978  1  -0.622767  -7.8e-05  2.034869  0.003  -0.59337  -0.000556  2.29529  0.002  -0.619863  -0.001408  2.28326  0.001  -0.31343  -0.573593  0.000485  2.302504  0.003
O  O32  1  0.43249068  0.78609511  0.10095990  1  -0.622745  -8.9e-05  2.034885  0.003  -0.593346  -0.000556  2.29528  0.002  -0.619854  -0.001407  2.283293  0.001  -0.313424  -0.573579  0.000484  2.302499  0.003
