# generated using pymatgen
data_Tb4H22C24N6O35
_symmetry_space_group_name_H-M   'P 1'
_cell_length_a   8.51485596
_cell_length_b   13.39734622
_cell_length_c   20.10563171
_cell_angle_alpha   87.86511839
_cell_angle_beta   85.83803213
_cell_angle_gamma   81.69532855
_symmetry_Int_Tables_number   1
_chemical_formula_structural   Tb4H22C24N6O35
_chemical_formula_sum   'Tb8 H44 C48 N12 O70'
_cell_volume   2262.71123282
_cell_formula_units_Z   2
loop_
 _symmetry_equiv_pos_site_id
 _symmetry_equiv_pos_as_xyz
  1  'x, y, z'
loop_
 _atom_site_type_symbol
 _atom_site_label
 _atom_site_symmetry_multiplicity
 _atom_site_fract_x
 _atom_site_fract_y
 _atom_site_fract_z
 _atom_site_occupancy
 _atom_site_pbe_bader_charge
 _atom_site_pbe_bader_spin_density
 _atom_site_pbe_cm5_charge
 _atom_site_pbe_ddec_charge
 _atom_site_pbe_ddec_spin_density
 _atom_site_pbe_ddec_sum_bond_order
 _atom_site_pbe_magmom
Tb  Tb0  1  0.27755004  0.76900335  0.97211271  1  2.13747  0  1.539671  1.902388  0  2.302087  0
Tb  Tb1  1  0.72245852  0.23099799  0.02788768  1  2.13753  0  1.539733  1.90238  0  2.302178  0
Tb  Tb2  1  0.22238153  0.49983998  0.24714886  1  2.209319  0  1.546143  2.163788  0  2.125139  0
Tb  Tb3  1  0.77761644  0.50016132  0.75285183  1  2.20929  0  1.546124  2.163794  0  2.125106  0
Tb  Tb4  1  0.13260939  0.75660671  0.52609147  1  2.14362  0  1.518719  1.930245  0  2.249374  0
Tb  Tb5  1  0.86739012  0.24339309  0.47390872  1  2.143608  0  1.518715  1.930245  0  2.249408  0
Tb  Tb6  1  0.20327062  0.02915173  0.24484972  1  2.227038  0  1.477046  2.23652  0  1.875183  0
Tb  Tb7  1  0.79672688  0.97084655  0.75515106  1  2.227131  0  1.477016  2.236499  0  1.875202  0
H  H8  1  0.43322579  0.60110667  0.30061279  1  0.641863  0  0.309423  0.397863  0  0.921271  0
H  H9  1  0.56677386  0.39889234  0.69939039  1  0.64197  0  0.309373  0.397803  0  0.921371  0
H  H10  1  0.00603507  0.68277454  0.30139119  1  0.621955  0  0.339594  0.430389  0  0.848639  0
H  H11  1  0.99396270  0.31722750  0.69861198  1  0.621971  0  0.339633  0.430458  0  0.84855  0
H  H12  1  0.12985670  0.72985303  0.25186510  1  0.656896  0  0.311696  0.42909  0  0.87876  0
H  H13  1  0.87013593  0.27014599  0.74813431  1  0.656806  0  0.311663  0.429059  0  0.878805  0
H  H14  1  0.02946453  0.33726956  0.22157577  1  0.630832  0  0.323687  0.423912  0  0.874584  0
H  H15  1  0.97053635  0.66272951  0.77842190  1  0.630734  0  0.323664  0.423875  0  0.874626  0
H  H16  1  0.11622442  0.36393507  0.15135562  1  0.672412  0  0.297055  0.397998  0  0.94563  0
H  H17  1  0.88377810  0.63606702  0.84864244  1  0.672429  0  0.297069  0.398025  0  0.945577  0
H  H18  1  0.53489343  0.57637443  0.23239162  1  0.641856  0  0.336956  0.430148  0  0.848786  0
H  H19  1  0.46510605  0.42362535  0.76761155  1  0.642555  0  0.336959  0.43017  0  0.848767  0
H  H20  1  0.44715102  0.32289508  0.27129456  1  0.635902  0  0.337559  0.430251  0  0.85184  0
H  H21  1  0.55284360  0.67710545  0.72870575  1  0.635869  0  0.33753  0.430231  0  0.851849  0
H  H22  1  0.36595883  0.34114399  0.34708947  1  0.671054  0  0.299384  0.403485  0  0.936877  0
H  H23  1  0.63403849  0.65885504  0.65291079  1  0.67105  0  0.299403  0.403542  0  0.93679  0
H  H24  1  0.25200273  0.90004282  0.61825949  1  0.65787  0  0.29679  0.40053  0  0.938644  0
H  H25  1  0.74799760  0.09995850  0.38174014  1  0.657895  0  0.296772  0.400531  0  0.938641  0
H  H26  1  0.06313310  0.93587275  0.61029325  1  0.626491  0  0.311582  0.401358  0  0.924433  0
H  H27  1  0.93686640  0.06412704  0.38970743  1  0.626487  0  0.311589  0.401362  0  0.924432  0
H  H28  1  0.40052990  0.12940308  0.13837321  1  0.654376  0  0.312532  0.419738  0  0.899913  0
H  H29  1  0.59946509  0.87059596  0.86162464  1  0.654386  0  0.312515  0.41964  0  0.900039  0
H  H30  1  0.25555178  0.20893551  0.15449123  1  0.645076  0  0.310356  0.401838  0  0.925699  0
H  H31  1  0.74444518  0.79106502  0.84551050  1  0.644869  0  0.310373  0.401847  0  0.925668  0
H  H32  1  0.90498751  0.16405519  0.18729855  1  0.657567  0  0.308932  0.411394  0  0.908907  0
H  H33  1  0.09501183  0.83594538  0.81270013  1  0.657598  0  0.308929  0.4114  0  0.908894  0
H  H34  1  0.91928386  0.18737316  0.26325005  1  0.63561  0  0.334043  0.417653  0  0.873486  0
H  H35  1  0.08071095  0.81262663  0.73674878  1  0.635643  0  0.334074  0.417769  0  0.873341  0
H  H36  1  0.25230637  0.23100980  0.30091069  1  0.676317  0  0.308112  0.412795  0  0.908542  0
H  H37  1  0.74769042  0.76899149  0.69909004  1  0.676312  0  0.30813  0.412863  0  0.908464  0
H  H38  1  0.19317443  0.16449174  0.36199518  1  0.640367  0  0.310626  0.417705  0  0.907429  0
H  H39  1  0.80682525  0.83550731  0.63800452  1  0.640369  0  0.310621  0.417721  0  0.907393  0
H  H40  1  0.40908022  0.92661090  0.12211380  1  0.644062  0  0.309385  0.40499  0  0.918878  0
H  H41  1  0.59091240  0.07338811  0.87788611  1  0.644075  0  0.309348  0.404901  0  0.918993  0
H  H42  1  0.53264282  0.94608705  0.17558179  1  0.65928  0  0.307421  0.408547  0  0.913318  0
H  H43  1  0.46735687  0.05391200  0.82441641  1  0.659267  0  0.307465  0.408572  0  0.913271  0
H  H44  1  0.30705276  0.80838333  0.29361102  1  0.612471  0  0.333497  0.409018  0  0.873129  0
H  H45  1  0.69294511  0.19161344  0.70638878  1  0.612425  0  0.333533  0.40906  0  0.873076  0
H  H46  1  0.33838362  0.83450213  0.21816387  1  0.643812  0  0.313221  0.411116  0  0.903766  0
H  H47  1  0.66161589  0.16549767  0.78183582  1  0.64374  0  0.31321  0.411059  0  0.903834  0
H  H48  1  0.85066972  0.98136598  0.24543857  1  0.648209  0  0.302075  0.412323  0  0.915501  0
H  H49  1  0.14933096  0.01863383  0.75456108  1  0.648225  0  0.302057  0.412318  0  0.91551  0
H  H50  1  0.91786808  0.94862427  0.31656330  1  0.632931  0  0.325444  0.418721  0  0.879143  0
H  H51  1  0.08212536  0.05137625  0.68343754  1  0.632978  0  0.325414  0.418643  0  0.879257  0
C  C52  1  0.25498240  0.59987251  0.09140050  1  1.683279  0  0.250704  0.640955  0  4.159923  0
C  C53  1  0.74502243  0.40012955  0.90860147  1  1.683283  0  0.250597  0.641016  0  4.160001  0
C  C54  1  0.38755206  0.54204080  0.04674286  1  0.553186  0  0.157506  0.097397  0  3.835354  0
C  C55  1  0.61244428  0.45795748  0.95325646  1  0.553088  0  0.157477  0.097415  0  3.835284  0
C  C56  1  0.49520983  0.45558879  0.06257627  1  0.565158  0  0.156035  0.096124  0  3.831349  0
C  C57  1  0.50478733  0.54441100  0.93742299  1  0.565555  0  0.156058  0.096195  0  3.831431  0
C  C58  1  0.51156999  0.39567156  0.12865825  1  1.665148  0  0.245406  0.635793  0  4.162972  0
C  C59  1  0.48842734  0.60432746  0.87134251  1  1.665016  0  0.245402  0.635764  0  4.163127  0
C  C60  1  0.12605923  0.93862579  0.08917303  1  1.620551  0  0.234643  0.612212  0  4.169261  0
C  C61  1  0.87393972  0.06137625  0.91082961  1  1.620442  0  0.234681  0.6122  0  4.169259  0
C  C62  1  0.97798707  0.91471253  0.06007383  1  0.525133  0  0.13149  0.057299  0  3.930366  0
C  C63  1  0.02201697  0.08528805  0.93992521  1  0.525109  0  0.131521  0.057411  0  3.930324  0
C  C64  1  0.82087636  0.95394554  0.08136958  1  0.595011  0  0.146106  0.070744  0  3.9283  0
C  C65  1  0.17912279  0.04605577  0.91863058  1  0.59489  0  0.146091  0.070682  0  3.928299  0
C  C66  1  0.72535815  0.84941325  0.01116263  1  0.510048  0  0.153195  0.122886  0  3.878126  0
C  C67  1  0.27465176  0.15058734  0.98883674  1  0.51022  0  0.153113  0.122839  0  3.87783  0
C  C68  1  0.88095578  0.80981111  0.98900482  1  0.582646  0  0.132078  0.055514  0  3.931564  0
C  C69  1  0.11904908  0.19019097  0.01099466  1  0.582549  0  0.131968  0.055439  0  3.931538  0
C  C70  1  0.92569343  0.72567093  0.94066610  1  1.618633  0  0.23038  0.584551  0  4.196306  0
C  C71  1  0.07431462  0.27433270  0.05933127  1  1.618601  0  0.230222  0.584297  0  4.196439  0
C  C72  1  0.78051463  0.03330153  0.13332486  1  1.659312  0  0.239739  0.598013  0  4.212833  0
C  C73  1  0.21949275  0.96669981  0.86667557  1  1.659234  0  0.239766  0.598125  0  4.21277  0
C  C74  1  0.57784224  0.81394389  0.99016813  1  1.620843  0  0.201614  0.562588  0  4.25128  0
C  C75  1  0.42216804  0.18605521  0.00983027  1  1.62143  0  0.201613  0.562548  0  4.251371  0
C  C76  1  0.21691309  0.58850045  0.40640609  1  1.644273  0  0.239041  0.619756  0  4.171511  0
C  C77  1  0.78307917  0.41150006  0.59359578  1  1.644121  0  0.239014  0.61961  0  4.171768  0
C  C78  1  0.09914960  0.53835601  0.45210505  1  0.589058  0  0.154741  0.109995  0  3.849417  0
C  C79  1  0.90084113  0.46164600  0.54789683  1  0.589094  0  0.154702  0.110115  0  3.849481  0
C  C80  1  0.99381410  0.53569614  0.56254156  1  0.543681  0  0.153007  0.094481  0  3.869525  0
C  C81  1  0.00617862  0.46430739  0.43746023  1  0.543736  0  0.152909  0.094485  0  3.869504  0
C  C82  1  0.00851002  0.58069180  0.62928316  1  1.658226  0  0.242775  0.627351  0  4.180592  0
C  C83  1  0.99148524  0.41931100  0.37071807  1  1.65838  0  0.242761  0.627377  0  4.180572  0
C  C84  1  0.50357512  0.01617499  0.34409307  1  1.674395  0  0.225977  0.60567  0  4.225123  0
C  C85  1  0.49642692  0.98382406  0.65590706  1  1.674409  0  0.226072  0.605805  0  4.224778  0
C  C86  1  0.49622368  0.94135059  0.40259658  1  0.526094  0  0.137919  0.079919  0  3.882261  0
C  C87  1  0.50377465  0.05864920  0.59740314  1  0.525942  0  0.137901  0.079917  0  3.882123  0
C  C88  1  0.35700399  0.90404475  0.42929069  1  0.503963  0  0.129237  0.051617  0  3.885737  0
C  C89  1  0.64299334  0.09595429  0.57070907  1  0.503933  0  0.129238  0.051587  0  3.88583  0
C  C90  1  0.51023814  0.79793479  0.50156338  1  0.515764  0  0.13194  0.058391  0  3.938033  0
C  C91  1  0.48976208  0.20206200  0.49843585  1  0.51558  0  0.131958  0.058518  0  3.938011  0
C  C92  1  0.64676755  0.83756748  0.47577018  1  0.549702  0  0.146999  0.114292  0  3.890394  0
C  C93  1  0.35323032  0.16242930  0.52422863  1  0.549896  0  0.147009  0.114267  0  3.890482  0
C  C94  1  0.80988379  0.80019725  0.49883548  1  1.655176  0  0.201631  0.571115  0  4.251541  0
C  C95  1  0.19011862  0.19980030  0.50116268  1  1.655123  0  0.201644  0.571048  0  4.25201  0
C  C96  1  0.50741274  0.71540044  0.55483985  1  1.641491  0  0.224987  0.585872  0  4.209626  0
C  C97  1  0.49258495  0.28459709  0.44515944  1  1.641494  0  0.224943  0.585753  0  4.209734  0
C  C98  1  0.18460910  0.93266295  0.41169641  1  1.635182  0  0.237335  0.611418  0  4.174945  0
C  C99  1  0.81538505  0.06733456  0.58830398  1  1.635094  0  0.237364  0.611411  0  4.175133  0
N  N100  1  0.39772293  0.58311639  0.98513850  1  -1.202458  0  -0.341202  -0.294529  0  3.51172  0
N  N101  1  0.60227731  0.41688041  0.01485874  1  -1.201967  0  -0.341178  -0.294518  0  3.511547  0
N  N102  1  0.08751311  0.57230684  0.51418073  1  -1.203578  0  -0.34418  -0.311522  0  3.506386  0
N  N103  1  0.91247642  0.42769516  0.48582269  1  -1.203588  0  -0.344142  -0.311546  0  3.506384  0
N  N104  1  0.00332975  0.84439772  0.01377868  1  -1.242918  0  -0.366868  -0.312993  0  3.603917  0
N  N105  1  0.99667628  0.15560437  0.98622126  1  -1.242794  0  -0.366827  -0.312951  0  3.603958  0
N  N106  1  0.69641999  0.92032137  0.05733129  1  -1.1275  0  -0.268227  -0.219062  0  3.259101  0
N  N107  1  0.30358639  0.07967922  0.94266819  1  -1.127487  0  -0.268167  -0.219015  0  3.258897  0
N  N108  1  0.36990773  0.83388599  0.47865793  1  -1.186783  0  -0.364127  -0.305438  0  3.596231  0
N  N109  1  0.63009078  0.16611305  0.52134180  1  -1.186773  0  -0.364145  -0.305492  0  3.596277  0
N  N110  1  0.63820777  0.90901762  0.42727616  1  -1.13425  0  -0.284356  -0.248326  0  3.240174  0
N  N111  1  0.36179011  0.09097916  0.57272214  1  -1.134175  0  -0.284385  -0.248353  0  3.240078  0
O  O112  1  0.20947970  0.68987884  0.07321852  1  -1.160277  0  -0.375695  -0.597796  0  2.278892  0
O  O113  1  0.79053334  0.31012857  0.92677962  1  -1.160254  0  -0.375702  -0.597866  0  2.279167  0
O  O114  1  0.07711962  0.66892163  0.26170348  1  -1.244491  0  -0.620273  -0.847379  0  1.98056  0
O  O115  1  0.92287381  0.33107889  0.73829836  1  -1.244398  0  -0.620291  -0.847437  0  1.980523  0
O  O116  1  0.19557211  0.55563321  0.14139090  1  -1.19192  0  -0.415875  -0.64745  0  2.338446  0
O  O117  1  0.80443685  0.44437644  0.85860980  1  -1.191873  0  -0.415769  -0.647478  0  2.338301  0
O  O118  1  0.08575311  0.38827149  0.19840063  1  -1.281795  0  -0.668268  -0.883533  0  2.099424  0
O  O119  1  0.91424876  0.61172832  0.80159849  1  -1.281705  0  -0.668261  -0.883508  0  2.099437  0
O  O120  1  0.45796443  0.43654191  0.18311859  1  -1.217893  0  -0.396225  -0.691894  0  2.3192  0
O  O121  1  0.54203625  0.56345789  0.81688157  1  -1.217816  0  -0.396249  -0.691933  0  2.319295  0
O  O122  1  0.43558605  0.61267754  0.25169632  1  -1.259633  0  -0.608555  -0.819386  0  1.982124  0
O  O123  1  0.56441142  0.38732071  0.74830694  1  -1.260409  0  -0.608508  -0.819364  0  1.982111  0
O  O124  1  0.58609732  0.30768461  0.12398224  1  -1.159739  0  -0.364753  -0.584607  0  2.254984  0
O  O125  1  0.41390589  0.69231444  0.87601785  1  -1.159691  0  -0.364726  -0.58459  0  2.255046  0
O  O126  1  0.34660200  0.34474976  0.29666038  1  -1.280661  0  -0.618105  -0.857834  0  2.104448  0
O  O127  1  0.65339397  0.65525002  0.70334041  1  -1.280652  0  -0.618107  -0.857885  0  2.104394  0
O  O128  1  0.07203626  0.69077950  0.93269026  1  -1.172567  0  -0.381025  -0.604533  0  2.233954  0
O  O129  1  0.92797265  0.30922033  0.06731015  1  -1.172524  0  -0.380899  -0.604318  0  2.234012  0
O  O130  1  0.81347137  0.69668932  0.91146026  1  -1.171718  0  -0.291482  -0.525563  0  2.200742  0
O  O131  1  0.18654087  0.30331660  0.08853544  1  -1.171837  0  -0.291383  -0.525441  0  2.200647  0
O  O132  1  0.25751760  0.90605396  0.05772025  1  -1.173004  0  -0.332069  -0.595177  0  2.221536  0
O  O133  1  0.74248470  0.09394884  0.94228278  1  -1.173024  0  -0.332106  -0.595141  0  2.221558  0
O  O134  1  0.10690864  0.98613328  0.14308351  1  -1.183298  0  -0.378069  -0.644189  0  2.291603  0
O  O135  1  0.89308461  0.01386798  0.85691882  1  -1.183127  0  -0.378098  -0.64427  0  2.291603  0
O  O136  1  0.52673569  0.74363486  0.02534630  1  -1.1529  0  -0.368143  -0.587305  0  2.197917  0
O  O137  1  0.47327936  0.25635896  0.97465207  1  -1.153484  0  -0.368146  -0.587263  0  2.198169  0
O  O138  1  0.50264554  0.86094671  0.94315500  1  -1.17335  0  -0.356933  -0.601876  0  2.264423  0
O  O139  1  0.49736120  0.13905236  0.05684499  1  -1.173416  0  -0.356914  -0.601906  0  2.264489  0
O  O140  1  0.81326377  0.12155086  0.11754916  1  -1.190535  0  -0.373419  -0.639745  0  2.33891  0
O  O141  1  0.18674650  0.87844822  0.88245073  1  -1.190463  0  -0.373469  -0.639854  0  2.33864  0
O  O142  1  0.71580740  0.00616267  0.18784994  1  -1.166034  0  -0.283858  -0.506719  0  2.16703  0
O  O143  1  0.28419375  0.99384016  0.81215013  1  -1.166002  0  -0.283843  -0.506743  0  2.167165  0
O  O144  1  0.28621495  0.54175798  0.35634753  1  -1.198784  0  -0.376875  -0.666703  0  2.346934  0
O  O145  1  0.71377801  0.45823951  0.64365488  1  -1.198949  0  -0.376889  -0.666651  0  2.346973  0
O  O146  1  0.24197552  0.67435328  0.42358736  1  -1.168077  0  -0.360505  -0.610569  0  2.23592  0
O  O147  1  0.75801810  0.32564649  0.57641350  1  -1.167944  0  -0.360469  -0.6105  0  2.235988  0
O  O148  1  0.04604046  0.66827339  0.62763744  1  -1.159805  0  -0.343943  -0.581137  0  2.226117  0
O  O149  1  0.95396238  0.33172716  0.37236413  1  -1.159935  0  -0.343893  -0.581131  0  2.226144  0
O  O150  1  0.98957181  0.52514395  0.68098583  1  -1.202407  0  -0.418914  -0.666217  0  2.275716  0
O  O151  1  0.01042561  0.47485960  0.31901632  1  -1.202401  0  -0.418919  -0.666256  0  2.275749  0
O  O152  1  0.31679817  0.14855247  0.17427955  1  -1.269314  0  -0.649272  -0.86562  0  2.062364  0
O  O153  1  0.68319735  0.85144431  0.82571832  1  -1.269161  0  -0.649259  -0.865493  0  2.062504  0
O  O154  1  0.98123969  0.17448349  0.22082098  1  -1.266205  0  -0.593942  -0.820573  0  2.015093  0
O  O155  1  0.01875677  0.82551932  0.77917823  1  -1.266272  0  -0.593979  -0.820704  0  2.014967  0
O  O156  1  0.20332018  0.16965775  0.31273311  1  -1.283721  0  -0.652581  -0.868155  0  2.107688  0
O  O157  1  0.79667950  0.83034129  0.68726758  1  -1.28371  0  -0.65259  -0.868255  0  2.107675  0
O  O158  1  0.42419043  0.93065929  0.17015994  1  -1.271667  0  -0.599724  -0.847708  0  2.144279  0
O  O159  1  0.57580725  0.06933823  0.82984034  1  -1.271589  0  -0.599731  -0.847624  0  2.144409  0
O  O160  1  0.15005708  0.87908694  0.60552071  1  -1.26161  0  -0.64432  -0.848991  0  2.094875  0
O  O161  1  0.84994342  0.12091362  0.39447943  1  -1.261608  0  -0.644296  -0.848976  0  2.094909  0
O  O162  1  0.44016803  0.99239287  0.29245744  1  -1.191619  0  -0.427461  -0.700564  0  2.372005  0
O  O163  1  0.55983283  0.00760618  0.70754223  1  -1.191624  0  -0.427508  -0.700589  0  2.37196  0
O  O164  1  0.57493701  0.09037055  0.34979760  1  -1.164455  0  -0.295584  -0.51736  0  2.146599  0
O  O165  1  0.42506066  0.90962697  0.65020319  1  -1.164477  0  -0.295627  -0.517445  0  2.146374  0
O  O166  1  0.08326543  0.89544039  0.45035739  1  -1.161948  0  -0.371951  -0.599731  0  2.294719  0
O  O167  1  0.91673019  0.10456090  0.54964238  1  -1.161809  0  -0.372037  -0.599756  0  2.294754  0
O  O168  1  0.14753287  0.98913895  0.36156311  1  -1.205795  0  -0.371667  -0.656173  0  2.380574  0
O  O169  1  0.85246193  0.01086083  0.63843621  1  -1.205804  0  -0.37157  -0.656118  0  2.380717  0
O  O170  1  0.25151760  0.83076666  0.25376730  1  -1.225375  0  -0.572892  -0.793862  0  2.041778  0
O  O171  1  0.74847956  0.16923313  0.74623246  1  -1.225334  0  -0.572901  -0.793817  0  2.041805  0
O  O172  1  0.37264827  0.68753733  0.57070806  1  -1.176871  0  -0.395988  -0.626576  0  2.221712  0
O  O173  1  0.62735276  0.31246096  0.42929212  1  -1.176839  0  -0.395968  -0.626529  0  2.221692  0
O  O174  1  0.94806277  0.96707472  0.27070668  1  -1.258114  0  -0.636585  -0.879787  0  2.076015  0
O  O175  1  0.05193456  0.03292430  0.72929408  1  -1.258243  0  -0.636528  -0.879667  0  2.076129  0
O  O176  1  0.63789976  0.68187111  0.57904840  1  -1.163711  0  -0.294347  -0.511001  0  2.207009  0
O  O177  1  0.36210145  0.31812643  0.42095129  1  -1.163728  0  -0.29432  -0.510949  0  2.207101  0
O  O178  1  0.85624661  0.83833900  0.54986603  1  -1.18524  0  -0.355856  -0.599206  0  2.261273  0
O  O179  1  0.14374972  0.16165927  0.45013428  1  -1.185332  0  -0.355885  -0.599214  0  2.261409  0
O  O180  1  0.89794920  0.73582626  0.46327461  1  -1.168969  0  -0.361296  -0.60103  0  2.201521  0
O  O181  1  0.10205786  0.26417661  0.53672181  1  -1.168835  0  -0.361279  -0.600983  0  2.201732  0
