# generated using pymatgen
data_VH14C8Cl2O5
_symmetry_space_group_name_H-M   'P 1'
_cell_length_a   8.70952867
_cell_length_b   9.69069707
_cell_length_c   15.23201473
_cell_angle_alpha   90.00016179
_cell_angle_beta   94.85871015
_cell_angle_gamma   90.00010905
_symmetry_Int_Tables_number   1
_chemical_formula_structural   VH14C8Cl2O5
_chemical_formula_sum   'V4 H56 C32 Cl8 O20'
_cell_volume   1280.98373077
_cell_formula_units_Z   4
loop_
 _symmetry_equiv_pos_site_id
 _symmetry_equiv_pos_as_xyz
  1  'x, y, z'
loop_
 _atom_site_type_symbol
 _atom_site_label
 _atom_site_symmetry_multiplicity
 _atom_site_fract_x
 _atom_site_fract_y
 _atom_site_fract_z
 _atom_site_occupancy
 _atom_site_pbe_bader_charge
 _atom_site_pbe_bader_spin_density
 _atom_site_pbe_cm5_charge
 _atom_site_pbe_ddec_charge
 _atom_site_pbe_ddec_spin_density
 _atom_site_pbe_ddec_sum_bond_order
 _atom_site_pbe_magmom
V  V0  1  0.42964286  0.54974568  0.24595817  1  1.896848  0.947697  1.146598  1.539884  0.995985  3.179997  0.947
V  V1  1  0.07036495  0.04975049  0.75404349  1  1.897258  0.947726  1.146478  1.53989  0.996017  3.179535  0.947
V  V2  1  0.57035893  0.45025254  0.75404568  1  1.896962  -0.947675  1.146645  1.539957  -0.995973  3.179999  -0.947
V  V3  1  0.92964951  0.95026631  0.24596292  1  1.896748  -0.947698  1.146553  1.539845  -0.995985  3.180054  -0.947
H  H4  1  0.81994241  0.41118948  0.27552951  1  0.103238  0.001  0.104368  0.13077  0.000583  1.013057  0.001
H  H5  1  0.68006015  0.91118948  0.72447021  1  0.103199  0.001  0.104354  0.130735  0.000584  1.013143  0.001
H  H6  1  0.18005130  0.58880771  0.72447067  1  0.103277  -0.000999  0.104355  0.130791  -0.000583  1.01296  -0.001
H  H7  1  0.31994162  0.08880874  0.27553035  1  0.103397  -0.001  0.104339  0.130767  -0.000583  1.013006  -0.001
H  H8  1  0.82531981  0.58355281  0.31254048  1  0.118703  0.000946  0.103772  0.129618  0.000687  1.014692  0.001
H  H9  1  0.67468654  0.08354821  0.68745489  1  0.11865  0.000946  0.103772  0.129652  0.000687  1.014693  0.001
H  H10  1  0.17467392  0.41644335  0.68746561  1  0.118795  -0.000946  0.103808  0.129673  -0.000687  1.014582  -0.001
H  H11  1  0.32531864  0.91644382  0.31253533  1  0.118746  -0.000946  0.103792  0.129664  -0.000687  1.014663  -0.001
H  H12  1  0.05761745  0.45180905  0.19398145  1  0.107558  0.001055  0.111358  0.138643  0.000882  0.991786  0.001
H  H13  1  0.44238554  0.95180471  0.80601085  1  0.10737  0.001055  0.111385  0.138624  0.000882  0.991891  0.001
H  H14  1  0.94237626  0.54819433  0.80602135  1  0.107306  -0.001055  0.11138  0.138672  -0.000882  0.991765  -0.001
H  H15  1  0.55761850  0.04819042  0.19397997  1  0.10752  -0.001055  0.111373  0.138654  -0.000882  0.991805  -0.001
H  H16  1  0.06491202  0.62393814  0.22821991  1  0.119136  0.000534  0.110552  0.141163  -0.000101  1.006686  0.001
H  H17  1  0.43509827  0.12393848  0.77178265  1  0.119016  0.000534  0.110536  0.141119  -0.000101  1.006756  0.001
H  H18  1  0.93508400  0.37606524  0.77178497  1  0.118557  -0.000534  0.110555  0.141207  0.000101  1.006641  -0.001
H  H19  1  0.56491157  0.87606284  0.22821894  1  0.119125  -0.000534  0.110543  0.141165  0.000101  1.006676  -0.001
H  H20  1  0.66444097  0.70470332  0.04745661  1  0.08938  0.000307  0.110381  0.085584  0.000213  0.990037  0.0
H  H21  1  0.83556685  0.20469296  0.95254364  1  0.089473  0.000307  0.110356  0.085619  0.000213  0.989986  0.0
H  H22  1  0.33555504  0.29528974  0.95254303  1  0.089275  -0.000307  0.110351  0.085572  -0.000213  0.989988  0.0
H  H23  1  0.16443721  0.79529494  0.04745309  1  0.089257  -0.000307  0.110357  0.085575  -0.000213  0.989999  0.0
H  H24  1  0.68219849  0.54044896  0.99548507  1  0.077922  0.000418  0.109653  0.077833  0.000311  0.970422  0.0
H  H25  1  0.81779970  0.04044154  0.00451443  1  0.078022  0.000418  0.109679  0.077815  0.000311  0.97053  0.0
H  H26  1  0.31780329  0.45954307  0.00451746  1  0.077879  -0.000418  0.109662  0.077844  -0.000311  0.970431  0.0
H  H27  1  0.18219859  0.95954739  0.99548202  1  0.077888  -0.000418  0.109656  0.077826  -0.000311  0.970471  0.0
H  H28  1  0.94885447  0.61239541  0.95461009  1  0.043151  -2.9e-05  0.090089  0.130054  -3.6e-05  1.011286  0.0
H  H29  1  0.55114040  0.11238980  0.04537954  1  0.043069  -2.9e-05  0.090075  0.130044  -3.6e-05  1.011286  0.0
H  H30  1  0.05114846  0.38759868  0.04539381  1  0.04321  2.9e-05  0.090093  0.130092  3.6e-05  1.011275  0.0
H  H31  1  0.44885326  0.88760017  0.95460948  1  0.043204  2.9e-05  0.0901  0.130081  3.6e-05  1.011308  0.0
H  H32  1  0.91963382  0.77740615  0.00262904  1  0.022739  0.000134  0.091297  0.127256  0.000241  1.019938  0.0
H  H33  1  0.58036722  0.27740072  0.99736051  1  0.022534  0.000134  0.091283  0.127244  0.000241  1.019942  0.0
H  H34  1  0.08036451  0.22259001  0.99737464  1  0.022716  -0.000134  0.091283  0.127228  -0.000241  1.019981  0.0
H  H35  1  0.41962989  0.72259131  0.00262670  1  0.022754  -0.000134  0.091299  0.127272  -0.000241  1.019959  0.0
H  H36  1  0.80175918  0.72345634  0.90760257  1  0.093835  0.000414  0.082776  0.130769  0.000494  1.040244  0.0
H  H37  1  0.69823139  0.22345427  0.09239428  1  0.093964  0.000415  0.082739  0.130715  0.000494  1.04029  0.0
H  H38  1  0.19824144  0.27653776  0.09239925  1  0.093745  -0.000415  0.0828  0.130775  -0.000494  1.040301  0.0
H  H39  1  0.30175999  0.77654085  0.90759923  1  0.093746  -0.000415  0.082826  0.130834  -0.000494  1.040264  0.0
H  H40  1  0.07997974  0.37367301  0.52166009  1  0.086137  0.000233  0.10127  0.07708  0.000115  1.002381  0.0
H  H41  1  0.42000925  0.87368264  0.47833535  1  0.085956  0.000233  0.101276  0.077127  0.000115  1.002294  0.0
H  H42  1  0.92002780  0.62632418  0.47834271  1  0.086127  -0.000233  0.101305  0.077082  -0.000115  1.002283  0.0
H  H43  1  0.57997061  0.12632074  0.52166024  1  0.086076  -0.000233  0.101267  0.077035  -0.000115  1.002316  0.0
H  H44  1  0.25629399  0.43394634  0.48247333  1  0.111349  0.000168  0.104557  0.080923  5e-06  1.002117  0.0
H  H45  1  0.24369860  0.93394656  0.51752436  1  0.111251  0.000168  0.104537  0.080944  5e-06  1.002154  0.0
H  H46  1  0.74371239  0.56605291  0.51752679  1  0.111025  -0.000168  0.104584  0.080974  -5e-06  1.002082  0.0
H  H47  1  0.75628358  0.06605063  0.48247528  1  0.111154  -0.000168  0.104559  0.080919  -5e-06  1.002098  0.0
H  H48  1  0.27682911  0.21658822  0.39535915  1  0.050857  0.000215  0.08727  0.129295  9.4e-05  1.023278  0.0
H  H49  1  0.22317563  0.71658880  0.60463807  1  0.050776  0.000215  0.087279  0.129331  9.4e-05  1.023213  0.0
H  H50  1  0.72317612  0.78340794  0.60464223  1  0.050855  -0.000215  0.087292  0.129331  -9.4e-05  1.02328  0.0
H  H51  1  0.77682153  0.28340530  0.39536096  1  0.050795  -0.000215  0.087313  0.12934  -9.4e-05  1.023201  0.0
H  H52  1  0.09657212  0.15784212  0.43013702  1  0.056121  0.000155  0.087841  0.122653  0.000239  1.025225  0.0
H  H53  1  0.40343247  0.65785006  0.56985811  1  0.056086  0.000155  0.087835  0.122677  0.000239  1.025215  0.0
H  H54  1  0.90343197  0.84215404  0.56986693  1  0.056084  -0.000155  0.087824  0.12264  -0.000239  1.025222  0.0
H  H55  1  0.59656698  0.34215229  0.43013840  1  0.056082  -0.000155  0.087834  0.122665  -0.000239  1.025203  0.0
H  H56  1  0.25882703  0.17707118  0.50819281  1  0.07161  0.000222  0.089131  0.138917  0.000255  1.013515  0.0
H  H57  1  0.24117416  0.67707231  0.49180352  1  0.071554  0.000222  0.089117  0.138906  0.000255  1.013485  0.0
H  H58  1  0.74117820  0.82292601  0.49180923  1  0.071684  -0.000222  0.089156  0.138979  -0.000255  1.013424  0.0
H  H59  1  0.75882069  0.32292488  0.50819475  1  0.071619  -0.000223  0.089132  0.138935  -0.000255  1.013489  0.0
C  C60  1  0.75831415  0.55895463  0.17838136  1  1.50932  0.01749  0.261016  0.629184  0.01901  3.974127  0.014
C  C61  1  0.74169099  0.05895488  0.82161457  1  1.509249  0.017488  0.261117  0.629244  0.01901  3.974142  0.014
C  C62  1  0.24168073  0.44104668  0.82162282  1  1.509348  -0.017485  0.26112  0.629405  -0.019004  3.973676  -0.014
C  C63  1  0.25831190  0.94104747  0.17837751  1  1.509398  -0.017487  0.261077  0.629247  -0.019007  3.974084  -0.014
C  C64  1  0.85670322  0.51599101  0.25891213  1  -0.060249  0.000677  -0.162259  -0.306595  0.000737  3.966669  0.0
C  C65  1  0.64330066  0.01598970  0.74108563  1  -0.059604  0.000677  -0.16224  -0.306591  0.000737  3.966761  0.0
C  C66  1  0.14329280  0.48400927  0.74109210  1  -0.060347  -0.000678  -0.162284  -0.306682  -0.000737  3.966627  0.0
C  C67  1  0.35670108  0.98400852  0.25890902  1  -0.060399  -0.000677  -0.162268  -0.306654  -0.000737  3.96669  0.0
C  C68  1  0.02834419  0.52075981  0.24747640  1  -0.005722  -0.000508  -0.164844  -0.308978  -0.000229  3.976901  -0.001
C  C69  1  0.47165892  0.02076323  0.75252039  1  -0.00525  -0.000508  -0.164855  -0.308944  -0.00023  3.977104  -0.001
C  C70  1  0.97165299  0.47924047  0.75252854  1  -0.004736  0.000508  -0.164856  -0.309136  0.000229  3.976987  0.001
C  C71  1  0.52834398  0.97924015  0.24747366  1  -0.00553  0.000508  -0.164865  -0.309024  0.00023  3.976892  0.001
C  C72  1  0.13111502  0.47850099  0.32622551  1  1.455195  0.016358  0.259197  0.619433  0.017471  3.973069  0.013
C  C73  1  0.36888574  0.97851038  0.67377001  1  1.455022  0.016359  0.259165  0.619484  0.017472  3.972978  0.013
C  C74  1  0.86887754  0.52149104  0.67377592  1  1.454829  -0.016364  0.259272  0.619688  -0.017473  3.972823  -0.013
C  C75  1  0.63111601  0.02150023  0.32622530  1  1.455049  -0.016357  0.259226  0.619521  -0.01747  3.972891  -0.013
C  C76  1  0.74613780  0.62757267  0.02700263  1  0.33653  0.000197  -0.060407  0.095659  0.000211  3.823024  0.0
C  C77  1  0.75386636  0.12756639  0.97299665  1  0.336345  0.000197  -0.06033  0.095712  0.000211  3.823024  0.0
C  C78  1  0.25386050  0.37242452  0.97299579  1  0.336681  -0.000197  -0.060448  0.095668  -0.000211  3.822974  0.0
C  C79  1  0.24613655  0.87242667  0.02700265  1  0.336678  -0.000197  -0.060441  0.095659  -0.000211  3.822913  0.0
C  C80  1  0.86165789  0.68853231  0.96989625  1  -0.067582  0.000518  -0.251823  -0.407939  0.000663  3.95944  0.0
C  C81  1  0.63834180  0.18852884  0.03009834  1  -0.067357  0.000518  -0.251801  -0.407946  0.000663  3.959427  0.0
C  C82  1  0.13834504  0.31146281  0.03010634  1  -0.067562  -0.000518  -0.251812  -0.407925  -0.000663  3.959379  0.0
C  C83  1  0.36165533  0.81146423  0.96989347  1  -0.067591  -0.000518  -0.251859  -0.408003  -0.000663  3.959318  0.0
C  C84  1  0.15532206  0.36789215  0.46780337  1  0.296796  0.000213  -0.066922  0.08669  0.000184  3.812553  0.0
C  C85  1  0.34466692  0.86789467  0.53219337  1  0.296821  0.000213  -0.066871  0.086744  0.000184  3.812555  0.0
C  C86  1  0.84468433  0.63210400  0.53219937  1  0.296952  -0.000213  -0.066958  0.086734  -0.000184  3.812364  0.0
C  C87  1  0.65531640  0.13210458  0.46780238  1  0.297016  -0.000213  -0.066936  0.086745  -0.000184  3.81243  0.0
C  C88  1  0.19904892  0.22087280  0.44828010  1  -0.074954  0.000981  -0.253018  -0.406538  0.001088  3.933903  0.001
C  C89  1  0.30095352  0.72087533  0.55171505  1  -0.074617  0.000981  -0.253037  -0.406653  0.001088  3.933943  0.001
C  C90  1  0.80095631  0.77912440  0.55172194  1  -0.074963  -0.000981  -0.253062  -0.406668  -0.001089  3.933882  -0.001
C  C91  1  0.69904133  0.27912496  0.44828256  1  -0.074781  -0.000981  -0.253064  -0.406636  -0.001088  3.933844  -0.001
Cl  Cl92  1  0.54558686  0.67255247  0.36127298  1  -0.619278  0.033554  -0.280836  -0.491893  0.028241  1.125098  0.009
Cl  Cl93  1  0.95441858  0.17257599  0.63872907  1  -0.619338  0.033539  -0.28083  -0.491907  0.028225  1.125027  0.009
Cl  Cl94  1  0.45440686  0.32744781  0.63873245  1  -0.619255  -0.033553  -0.280827  -0.491881  -0.028243  1.125137  -0.009
Cl  Cl95  1  0.04558896  0.82745216  0.36127373  1  -0.619244  -0.033554  -0.280805  -0.491874  -0.028247  1.125139  -0.009
Cl  Cl96  1  0.45267251  0.32190133  0.21227920  1  -0.615946  0.029203  -0.291477  -0.496976  0.024029  1.130853  0.006
Cl  Cl97  1  0.04734172  0.82191688  0.78772390  1  -0.616034  0.029214  -0.291482  -0.496983  0.024041  1.130924  0.006
Cl  Cl98  1  0.54733503  0.67809276  0.78772360  1  -0.615907  -0.029209  -0.29148  -0.496987  -0.024036  1.130909  -0.006
Cl  Cl99  1  0.95267159  0.17810611  0.21228114  1  -0.616035  -0.029214  -0.291493  -0.496983  -0.024034  1.130877  -0.006
O  O100  1  0.31540517  0.63687023  0.17930414  1  -0.777419  -0.089804  -0.573417  -0.630729  -0.087873  1.623421  -0.087
O  O101  1  0.18460977  0.13688688  0.82070129  1  -0.777539  -0.08984  -0.573292  -0.630734  -0.087898  1.623011  -0.087
O  O102  1  0.68458855  0.36312593  0.82069998  1  -0.777471  0.089789  -0.573435  -0.630702  0.08786  1.623414  0.087
O  O103  1  0.81541163  0.86313817  0.17931136  1  -0.777186  0.089814  -0.57337  -0.630699  0.08788  1.623522  0.087
O  O104  1  0.61654552  0.57846807  0.17621832  1  -1.174957  0.010191  -0.330506  -0.580302  0.005881  2.497262  -0.01
O  O105  1  0.88346082  0.07847991  0.82377835  1  -1.17523  0.010197  -0.330521  -0.580332  0.005882  2.497133  -0.01
O  O106  1  0.38344935  0.42153944  0.82378520  1  -1.174877  -0.010193  -0.330584  -0.580373  -0.005882  2.49706  0.01
O  O107  1  0.11654438  0.92154204  0.17621515  1  -1.175063  -0.010193  -0.330508  -0.580296  -0.005884  2.497256  0.01
O  O108  1  0.83274467  0.57491005  0.10701046  1  -1.053665  0.009329  -0.14127  -0.199312  0.007798  2.48241  0.007
O  O109  1  0.66726282  0.07490223  0.89298560  1  -1.053987  0.009331  -0.141371  -0.199291  0.007799  2.482547  0.007
O  O110  1  0.16725136  0.42509230  0.89299377  1  -1.053826  -0.009326  -0.141305  -0.199511  -0.007796  2.482391  -0.007
O  O111  1  0.33274469  0.92509187  0.10700735  1  -1.053726  -0.009327  -0.141312  -0.199418  -0.007797  2.48248  -0.007
O  O112  1  0.27485457  0.48782140  0.33077486  1  -1.131775  0.007625  -0.329147  -0.573364  0.003552  2.491561  -0.011
O  O113  1  0.22514737  0.98783775  0.66922271  1  -1.131852  0.00763  -0.32911  -0.573344  0.003551  2.491429  -0.011
O  O114  1  0.72514029  0.51217166  0.66922669  1  -1.131665  -0.007627  -0.329176  -0.573491  -0.003555  2.491586  0.011
O  O115  1  0.77485325  0.01218318  0.33077779  1  -1.131856  -0.007629  -0.329165  -0.573364  -0.003552  2.491507  0.011
O  O116  1  0.06034564  0.42697641  0.39226572  1  -1.064859  0.007935  -0.145193  -0.208763  0.006502  2.487541  0.006
O  O117  1  0.43965154  0.92698561  0.60772823  1  -1.064815  0.007935  -0.145218  -0.208915  0.006502  2.487571  0.006
O  O118  1  0.93965384  0.57301872  0.60773801  1  -1.064683  -0.007935  -0.145281  -0.208951  -0.006502  2.487503  -0.006
O  O119  1  0.56033984  0.07301880  0.39226527  1  -1.064875  -0.007934  -0.145172  -0.208813  -0.006501  2.487387  -0.006
