# generated using pymatgen
data_ZnH12C10(NO2)2
_symmetry_space_group_name_H-M   'P 1'
_cell_length_a   5.18169005
_cell_length_b   10.28807971
_cell_length_c   12.47817808
_cell_angle_alpha   87.51054314
_cell_angle_beta   82.04795177
_cell_angle_gamma   91.42795837
_symmetry_Int_Tables_number   1
_chemical_formula_structural   ZnH12C10(NO2)2
_chemical_formula_sum   'Zn2 H24 C20 N4 O8'
_cell_volume   657.86727633
_cell_formula_units_Z   2
loop_
 _symmetry_equiv_pos_site_id
 _symmetry_equiv_pos_as_xyz
  1  'x, y, z'
loop_
 _atom_site_type_symbol
 _atom_site_label
 _atom_site_symmetry_multiplicity
 _atom_site_fract_x
 _atom_site_fract_y
 _atom_site_fract_z
 _atom_site_occupancy
 _atom_site_hle17_bader_spin_density
 _atom_site_hle17_ddec_charge
 _atom_site_hle17_ddec_spin_density
 _atom_site_hle17_ddec_sum_bond_order
 _atom_site_hle17_magmom
 _atom_site_hse06_10hf_bader_spin_density
 _atom_site_hse06_10hf_ddec_charge
 _atom_site_hse06_10hf_ddec_spin_density
 _atom_site_hse06_10hf_ddec_sum_bond_order
 _atom_site_hse06_10hf_magmom
 _atom_site_hse06_bader_spin_density
 _atom_site_hse06_ddec_charge
 _atom_site_hse06_ddec_spin_density
 _atom_site_hse06_ddec_sum_bond_order
 _atom_site_hse06_magmom
 _atom_site_pbe_bader_spin_density
 _atom_site_pbe_cm5_charge
 _atom_site_pbe_ddec_charge
 _atom_site_pbe_ddec_spin_density
 _atom_site_pbe_ddec_sum_bond_order
 _atom_site_pbe_magmom
Zn  Zn0  1  0.25377800  0.53983406  0.73397841  1  0  1.001479  0  1.816304  0  0  0.818147  0  2.286538  0  0  0.862934  0  2.233759  0  0  0.673608  0.783772  0  2.325804  0
Zn  Zn1  1  0.74620535  0.46016596  0.26602928  1  0  1.001446  0  1.816234  0  0  0.818065  0  2.286427  0  0  0.86285  0  2.233656  0  0  0.673607  0.783692  0  2.325692  0
H  H2  1  0.69982961  0.46034747  0.65653428  1  0  0.30937  0  0.917161  0  0  0.296472  0  0.976399  0  0  0.303701  0  0.971009  0  0  0.290388  0.291009  0  0.980715  0
H  H3  1  0.30014968  0.53965806  0.34346042  1  0  0.309324  0  0.917207  0  0  0.296434  0  0.976411  0  0  0.303658  0  0.971028  0  0  0.290393  0.290976  0  0.980741  0
H  H4  1  0.72019625  0.61717439  0.65485985  1  0  0.310862  0  0.91174  0  0  0.297705  0  0.971326  0  0  0.305007  0  0.965635  0  0  0.291341  0.292094  0  0.976063  0
H  H5  1  0.27980026  0.38282650  0.34513609  1  0  0.310795  0  0.911845  0  0  0.297637  0  0.971408  0  0  0.304935  0  0.965724  0  0  0.291349  0.292028  0  0.976136  0
H  H6  1  0.11761962  0.52799231  0.93742822  1  0  0.264901  0  0.929259  0  0  0.262194  0  0.976926  0  0  0.267164  0  0.974001  0  0  0.294224  0.258482  0  0.979328  0
H  H7  1  0.88247063  0.47201576  0.06257771  1  0  0.26481  0  0.929167  0  0  0.262098  0  0.976844  0  0  0.267071  0  0.973913  0  0  0.294152  0.258387  0  0.979247  0
H  H8  1  0.30584046  0.65916539  0.89456806  1  0  0.316836  0  0.9075  0  0  0.308319  0  0.955341  0  0  0.315585  0  0.94986  0  0  0.297912  0.302941  0  0.959412  0
H  H9  1  0.69422812  0.34084899  0.10542626  1  0  0.316816  0  0.907614  0  0  0.308292  0  0.955465  0  0  0.315561  0  0.949984  0  0  0.297898  0.302949  0  0.959483  0
H  H10  1  0.72910432  0.25423810  0.61426131  1  0  0.081397  0  0.97197  0  0  0.090203  0  1.039395  0  0  0.093288  0  1.036838  0  0  0.097327  0.088061  0  1.041207  0
H  H11  1  0.27085506  0.74576274  0.38575199  1  0  0.081416  0  0.972016  0  0  0.090145  0  1.03955  0  0  0.093231  0  1.036984  0  0  0.097284  0.088004  0  1.041365  0
H  H12  1  0.55542077  0.04800948  0.55439544  1  0  0.08117  0  0.985062  0  0  0.092607  0  1.04504  0  0  0.095001  0  1.045235  0  0  0.097435  0.090947  0  1.044919  0
H  H13  1  0.44454641  0.95198657  0.44561703  1  0  0.08116  0  0.985158  0  0  0.092613  0  1.045119  0  0  0.095009  0  1.045307  0  0  0.09744  0.090949  0  1.045007  0
H  H14  1  0.74318551  0.83677542  0.60535748  1  0  0.085161  0  0.954354  0  0  0.09636  0  1.017259  0  0  0.099222  0  1.015203  0  0  0.100111  0.094436  0  1.018572  0
H  H15  1  0.25680003  0.16322654  0.39464843  1  0  0.085095  0  0.954146  0  0  0.096263  0  1.017122  0  0  0.099137  0  1.015031  0  0  0.100019  0.094293  0  1.018487  0
H  H16  1  0.26421848  0.04157110  0.78423389  1  0  0.116774  0  0.937932  0  0  0.123628  0  1.000433  0  0  0.128146  0  0.99645  0  0  0.109974  0.120374  0  1.003492  0
H  H17  1  0.73575540  0.95843170  0.21577238  1  0  0.116695  0  0.937818  0  0  0.123511  0  1.000372  0  0  0.128031  0  0.996383  0  0  0.109916  0.120258  0  1.003432  0
H  H18  1  0.79138781  0.53808648  0.47316594  1  0  0.057485  0  0.948067  0  0  0.075888  0  1.007862  0  0  0.076498  0  1.007939  0  0  0.101386  0.075203  0  1.008272  0
H  H19  1  0.20858338  0.46190828  0.52683041  1  0  0.057438  0  0.948082  0  0  0.075902  0  1.007881  0  0  0.076516  0  1.007951  0  0  0.101363  0.075218  0  1.008293  0
H  H20  1  0.53667284  0.64899690  0.49496380  1  0  0.063546  0  0.915405  0  0  0.086212  0  0.96845  0  0  0.085787  0  0.969938  0  0  0.109468  0.086238  0  0.967617  0
H  H21  1  0.46331347  0.35100689  0.50503636  1  0  0.063509  0  0.915487  0  0  0.086162  0  0.968618  0  0  0.085735  0  0.970107  0  0  0.109474  0.08619  0  0.967785  0
H  H22  1  0.69009647  0.54217140  0.89728257  1  0  0.061328  0  0.915351  0  0  0.082969  0  0.971681  0  0  0.082622  0  0.972706  0  0  0.108159  0.082913  0  0.971453  0
H  H23  1  0.30996158  0.45782704  0.10270171  1  0  0.061465  0  0.915143  0  0  0.083039  0  0.971526  0  0  0.082695  0  0.972554  0  0  0.10822  0.082988  0  0.97129  0
H  H24  1  0.50806068  0.39250586  0.91617266  1  0  0.089909  0  0.925175  0  0  0.107425  0  0.980041  0  0  0.108717  0  0.979461  0  0  0.11209  0.106271  0  0.980655  0
H  H25  1  0.49201042  0.60748501  0.08381475  1  0  0.090028  0  0.925229  0  0  0.107584  0  0.980001  0  0  0.108885  0  0.979418  0  0  0.112125  0.106429  0  0.980619  0
C  C26  1  0.12164425  0.28607400  0.73616444  1  0  0.626703  0  3.931832  0  0  0.580911  0  4.218179  0  0  0.614254  0  4.212628  0  0  0.196746  0.557824  0  4.221551  0
C  C27  1  0.87834241  0.71392324  0.26384729  1  0  0.62662  0  3.931983  0  0  0.580838  0  4.218332  0  0  0.614178  0  4.212786  0  0  0.19663  0.557756  0  4.2217  0
C  C28  1  0.00886319  0.16182307  0.70254924  1  0  -0.080205  0  3.772003  0  0  -0.053076  0  4.00172  0  0  -0.064065  0  4.026377  0  0  -0.022105  -0.045874  0  3.985509  0
C  C29  1  0.99112476  0.83818080  0.29745327  1  0  -0.080311  0  3.772233  0  0  -0.053209  0  4.001972  0  0  -0.0642  0  4.02663  0  0  -0.022165  -0.046006  0  3.985762  0
C  C30  1  0.80910876  0.16220539  0.63754481  1  0  -0.033803  0  3.7214  0  0  -0.063707  0  3.974848  0  0  -0.059835  0  3.993142  0  0  -0.077572  -0.065345  0  3.961741  0
C  C31  1  0.19087614  0.83778008  0.36246437  1  0  -0.033626  0  3.721282  0  0  -0.063509  0  3.974782  0  0  -0.059629  0  3.993064  0  0  -0.07753  -0.065149  0  3.961678  0
C  C32  1  0.71294673  0.04587270  0.60351860  1  0  -0.083364  0  3.781966  0  0  -0.095478  0  4.040884  0  0  -0.102109  0  4.064211  0  0  -0.091728  -0.091242  0  4.024518  0
C  C33  1  0.28701001  0.95411945  0.39649926  1  0  -0.083469  0  3.782045  0  0  -0.095576  0  4.040966  0  0  -0.102209  0  4.064295  0  0  -0.091717  -0.091336  0  4.024582  0
C  C34  1  0.81570311  0.92787970  0.63296032  1  0  -0.031295  0  3.715387  0  0  -0.061741  0  3.970541  0  0  -0.057953  0  3.989684  0  0  -0.07545  -0.063348  0  3.956977  0
C  C35  1  0.18428150  0.07210451  0.36703610  1  0  -0.031144  0  3.715359  0  0  -0.061571  0  3.97046  0  0  -0.057777  0  3.989615  0  0  -0.075287  -0.063145  0  3.956903  0
C  C36  1  0.01421328  0.92574766  0.69868300  1  0  -0.079053  0  3.758145  0  0  -0.054382  0  3.992282  0  0  -0.065312  0  4.016739  0  0  -0.020503  -0.047293  0  3.976312  0
C  C37  1  0.98576830  0.07426111  0.30132430  1  0  -0.079312  0  3.758114  0  0  -0.054602  0  3.992214  0  0  -0.065542  0  4.016673  0  0  -0.020589  -0.047505  0  3.976228  0
C  C38  1  0.10931845  0.04302620  0.73346822  1  0  -0.050321  0  3.677431  0  0  -0.084723  0  3.918459  0  0  -0.081243  0  3.937682  0  0  -0.066632  -0.087145  0  3.906256  0
C  C39  1  0.89068727  0.95696415  0.26653035  1  0  -0.050157  0  3.677099  0  0  -0.084498  0  3.918084  0  0  -0.081013  0  3.937307  0  0  -0.06657  -0.086923  0  3.905885  0
C  C40  1  0.13122850  0.80154700  0.73234451  1  0  0.639422  0  3.909698  0  0  0.594209  0  4.196512  0  0  0.627687  0  4.190434  0  0  0.202108  0.571052  0  4.200282  0
C  C41  1  0.86872676  0.19844798  0.26767005  1  0  0.639666  0  3.909649  0  0  0.59441  0  4.196481  0  0  0.62789  0  4.190405  0  0  0.202177  0.57125  0  4.200255  0
C  C42  1  0.59496229  0.55038817  0.51711714  1  0  0.058815  0  3.624248  0  0  0.001148  0  3.890741  0  0  0.004656  0  3.903567  0  0  -0.071667  -0.001266  0  3.882209  0
C  C43  1  0.40501122  0.44960947  0.48287656  1  0  0.059173  0  3.624148  0  0  0.001253  0  3.890817  0  0  0.004761  0  3.903642  0  0  -0.071657  -0.001172  0  3.882296  0
C  C44  1  0.50842910  0.49452416  0.93879003  1  0  0.047735  0  3.636479  0  0  -0.010798  0  3.908949  0  0  -0.007324  0  3.921388  0  0  -0.072134  -0.013161  0  3.900511  0
C  C45  1  0.49164474  0.50547442  0.06119208  1  0  0.047164  0  3.636785  0  0  -0.011315  0  3.909187  0  0  -0.007868  0  3.921648  0  0  -0.072319  -0.013675  0  3.900751  0
N  N46  1  0.60130161  0.54184397  0.63561511  1  0  -0.64222  0  3.095363  0  0  -0.577698  0  3.361973  0  0  -0.597791  0  3.355046  0  0  -0.628368  -0.563493  0  3.367284  0
N  N47  1  0.39868579  0.45816160  0.36437690  1  0  -0.642238  0  3.09555  0  0  -0.577581  0  3.362117  0  0  -0.597664  0  3.355189  0  0  -0.628376  -0.563385  0  3.367428  0
N  N48  1  0.29220858  0.55867390  0.89446622  1  0  -0.623653  0  3.171126  0  0  -0.565651  0  3.434353  0  0  -0.584381  0  3.428673  0  0  -0.624492  -0.55236  0  3.438299  0
N  N49  1  0.70785281  0.44133346  0.10552310  1  0  -0.623572  0  3.17132  0  0  -0.565538  0  3.434427  0  0  -0.584269  0  3.428767  0  0  -0.624458  -0.552273  0  3.438328  0
O  O50  1  0.01118308  0.39391538  0.70854243  1  0  -0.689123  0  2.063278  0  0  -0.613223  0  2.331141  0  0  -0.642183  0  2.316856  0  0  -0.343969  -0.591577  0  2.341866  0
O  O51  1  0.98881785  0.60609621  0.29145039  1  0  -0.689004  0  2.063428  0  0  -0.613101  0  2.331242  0  0  -0.642054  0  2.316959  0  0  -0.343876  -0.591461  0  2.34197  0
O  O52  1  0.31761140  0.28711870  0.78440411  1  0  -0.604943  0  1.918969  0  0  -0.559886  0  2.135493  0  0  -0.582866  0  2.127718  0  0  -0.319422  -0.543188  0  2.139976  0
O  O53  1  0.68237212  0.71287935  0.21560207  1  0  -0.604935  0  1.918909  0  0  -0.559875  0  2.135429  0  0  -0.582863  0  2.12766  0  0  -0.319365  -0.543172  0  2.139909  0
O  O54  1  0.30516319  0.80454289  0.79270861  1  0  -0.60906  0  1.917215  0  0  -0.563396  0  2.122801  0  0  -0.586084  0  2.114578  0  0  -0.321727  -0.547013  0  2.127783  0
O  O55  1  0.69481771  0.19545588  0.20728799  1  0  -0.60929  0  1.91706  0  0  -0.5636  0  2.122631  0  0  -0.586294  0  2.114406  0  0  -0.321847  -0.547224  0  2.127621  0
O  O56  1  0.04615336  0.69364228  0.69470176  1  0  -0.68578  0  2.018175  0  0  -0.610522  0  2.28066  0  0  -0.639014  0  2.265587  0  0  -0.346439  -0.589197  0  2.2918  0
O  O57  1  0.95383960  0.30635461  0.30529131  1  0  -0.685633  0  2.018179  0  0  -0.610386  0  2.280708  0  0  -0.638872  0  2.265619  0  0  -0.346362  -0.589057  0  2.291837  0
