# generated using pymatgen
data_Zn2H23C41N2O9
_symmetry_space_group_name_H-M   'P 1'
_cell_length_a   16.52545125
_cell_length_b   17.91484673
_cell_length_c   29.09724224
_cell_angle_alpha   90.24831896
_cell_angle_beta   89.86993927
_cell_angle_gamma   89.94940097
_symmetry_Int_Tables_number   1
_chemical_formula_structural   Zn2H23C41N2O9
_chemical_formula_sum   'Zn4 H46 C82 N4 O18'
_cell_volume   8614.15898568
_cell_formula_units_Z   2
loop_
 _symmetry_equiv_pos_site_id
 _symmetry_equiv_pos_as_xyz
  1  'x, y, z'
loop_
 _atom_site_type_symbol
 _atom_site_label
 _atom_site_symmetry_multiplicity
 _atom_site_fract_x
 _atom_site_fract_y
 _atom_site_fract_z
 _atom_site_occupancy
 _atom_site_pbe_bader_charge
 _atom_site_pbe_bader_spin_density
 _atom_site_pbe_cm5_charge
 _atom_site_pbe_ddec_charge
 _atom_site_pbe_ddec_spin_density
 _atom_site_pbe_ddec_sum_bond_order
 _atom_site_pbe_magmom
Zn  Zn0  1  0.58364888  0.49989199  0.50095954  1  1.250663  0  0.663763  0.809548  0  2.440705  0
Zn  Zn1  1  0.41541564  0.50007100  0.49998384  1  1.276539  0  0.664087  0.812296  0  2.442213  0
Zn  Zn2  1  0.41537592  0.50200391  0.88528709  1  1.272608  0  0.663957  0.811763  0  2.442964  0
Zn  Zn3  1  0.58359278  0.50180655  0.88387423  1  1.251456  0  0.66382  0.809921  0  2.439633  0
H  H4  1  0.28586425  0.58223312  0.55061961  1  0.138588  0  0.134988  0.110525  0  0.960641  0
H  H5  1  0.13387935  0.58527803  0.55310817  1  0.105924  0  0.121777  0.131206  0  0.972164  0
H  H6  1  0.13504590  0.41462633  0.44726665  1  0.099112  0  0.119321  0.128525  0  0.975836  0
H  H7  1  0.28729900  0.41858670  0.44987122  1  0.1317  0  0.133349  0.108996  0  0.963304  0
H  H8  1  0.86489968  0.58533156  0.55315318  1  0.107322  0  0.119505  0.128687  0  0.976096  0
H  H9  1  0.71261106  0.58118251  0.55146921  1  0.134733  0  0.13346  0.107784  0  0.967655  0
H  H10  1  0.71217264  0.41857061  0.45021188  1  0.143751  0  0.133204  0.108572  0  0.964497  0
H  H11  1  0.86444185  0.41491782  0.44722368  1  0.107157  0  0.119345  0.128928  0  0.976746  0
H  H12  1  0.62975341  0.73786702  0.50040523  1  0.100683  0  0.103335  0.107442  0  1.00235  0
H  H13  1  0.63043190  0.87765073  0.49984162  1  0.060565  0  0.103338  0.104968  0  0.992663  0
H  H14  1  0.36946529  0.87763503  0.49972555  1  0.060872  0  0.103587  0.105508  0  0.992127  0
H  H15  1  0.37036496  0.73786569  0.50031430  1  0.097897  0  0.103663  0.107414  0  1.001534  0
H  H16  1  0.63048836  0.12207114  0.49994921  1  0.057436  0  0.103667  0.105539  0  0.99312  0
H  H17  1  0.62980834  0.26186723  0.50019365  1  0.115355  0  0.103295  0.107256  0  1.002586  0
H  H18  1  0.37039899  0.26224715  0.50016391  1  0.095648  0  0.103849  0.107677  0  1.001601  0
H  H19  1  0.36952381  0.12247018  0.49994765  1  0.061681  0  0.103648  0.10553  0  0.992416  0
H  H20  1  0.68769011  0.55067282  0.73537948  1  0.041464  0  0.083528  0.084844  0  1.003704  0
H  H21  1  0.68702914  0.45099759  0.73547314  1  0.029331  0  0.088778  0.095504  0  0.990989  0
H  H22  1  0.68693927  0.45053727  0.64887310  1  0.025656  0  0.088798  0.095512  0  0.991474  0
H  H23  1  0.68756756  0.55021640  0.64910805  1  0.003412  0  0.08333  0.084539  0  1.003905  0
H  H24  1  0.37029778  0.50214518  0.03148630  1  0.085529  0  0.103164  0.106914  0  1.003541  0
H  H25  1  0.36970162  0.50167227  0.11760084  1  0.059905  0  0.103584  0.105329  0  0.992477  0
H  H26  1  0.63067534  0.50186326  0.11702830  1  0.062126  0  0.103433  0.105198  0  0.992476  0
H  H27  1  0.62965222  0.50226990  0.03089919  1  0.091014  0  0.103098  0.106795  0  1.002968  0
H  H28  1  0.36984447  0.50057901  0.26783636  1  0.070418  0  0.1035  0.10573  0  0.992691  0
H  H29  1  0.37060910  0.50027511  0.35394753  1  0.087763  0  0.103404  0.107086  0  1.003881  0
H  H30  1  0.62995075  0.50051257  0.35371953  1  0.082784  0  0.103233  0.106763  0  1.003232  0
H  H31  1  0.63082414  0.50088275  0.26760298  1  0.060391  0  0.103564  0.105701  0  0.992802  0
H  H32  1  0.71300302  0.58301220  0.83367045  1  0.125726  0  0.133542  0.10797  0  0.968152  0
H  H33  1  0.86532342  0.58742090  0.83217574  1  0.072307  0  0.119705  0.128851  0  0.975733  0
H  H34  1  0.86393693  0.41799215  0.93781033  1  0.088621  0  0.119295  0.12825  0  0.976269  0
H  H35  1  0.71169871  0.42133531  0.93461254  1  0.125445  0  0.133219  0.108806  0  0.964632  0
H  H36  1  0.13440677  0.58713458  0.83237535  1  0.078831  0  0.121929  0.13132  0  0.972537  0
H  H37  1  0.28634833  0.58394776  0.83490550  1  0.092933  0  0.134553  0.109703  0  0.962175  0
H  H38  1  0.28667539  0.42090482  0.93515481  1  0.118598  0  0.133261  0.108896  0  0.963474  0
H  H39  1  0.13438830  0.41720555  0.93774564  1  0.09738  0  0.119189  0.128313  0  0.976334  0
H  H40  1  0.37043471  0.73982041  0.88372760  1  0.083715  0  0.103529  0.106994  0  1.002809  0
H  H41  1  0.36952594  0.87962099  0.88384932  1  0.095638  0  0.103859  0.105988  0  0.991531  0
H  H42  1  0.63049378  0.87963167  0.88401315  1  0.093024  0  0.10365  0.10562  0  0.991795  0
H  H43  1  0.62982255  0.73982565  0.88388728  1  0.080834  0  0.103363  0.107479  0  1.003161  0
H  H44  1  0.36947624  0.12435678  0.88438542  1  0.100241  0  0.10379  0.105994  0  0.99149  0
H  H45  1  0.37033386  0.26414380  0.88446564  1  0.080188  0  0.103525  0.107001  0  1.003224  0
H  H46  1  0.62973229  0.26379738  0.88454669  1  0.080693  0  0.103217  0.107228  0  1.003171  0
H  H47  1  0.63044197  0.12399849  0.88452386  1  0.095054  0  0.10368  0.105606  0  0.992064  0
H  H48  1  0.36448593  0.49907555  0.61348166  1  0.654125  0  0.295191  0.338693  0  0.998232  0
H  H49  1  0.36466197  0.49969406  0.77202182  1  0.6276  0  0.295483  0.339689  0  0.997603  0
C  C50  1  0.50037101  0.64625061  0.50148536  1  1.593504  0  0.213266  0.59072  0  4.171719  0
C  C51  1  0.49794655  0.50053924  0.59205797  1  1.448101  0  0.214557  0.612766  0  4.148025  0
C  C52  1  0.50030318  0.35369715  0.50001436  1  1.592947  0  0.213311  0.591249  0  4.171489  0
C  C53  1  0.49996931  0.49959463  0.41018644  1  1.503835  0  0.212606  0.590994  0  4.172825  0
C  C54  1  0.50041532  0.64818807  0.88334455  1  1.537856  0  0.214095  0.59241  0  4.16935  0
C  C55  1  0.49819463  0.50152218  0.79301610  1  1.524162  0  0.2149  0.614493  0  4.145782  0
C  C56  1  0.50024652  0.35560440  0.88477182  1  1.528181  0  0.213804  0.592016  0  4.170254  0
C  C57  1  0.49959395  0.50168165  0.97483572  1  1.550474  0  0.212494  0.58966  0  4.176965  0
C  C58  1  0.24951628  0.54614319  0.52853531  1  0.529975  0  0.066559  0.108943  0  3.911799  0
C  C59  1  0.16557085  0.54775066  0.52967259  1  -0.045547  0  -0.065556  -0.163992  0  3.897068  0
C  C60  1  0.12205711  0.50003593  0.50009701  1  0.043694  0  0.023569  0.17669  0  4.103116  0
C  C61  1  0.16628816  0.45242479  0.47062790  1  -0.019216  0  -0.06851  -0.169604  0  3.908166  0
C  C62  1  0.25020459  0.45434119  0.47188761  1  0.514194  0  0.065178  0.106752  0  3.921953  0
C  C63  1  0.03643930  0.49997569  0.49999338  1  -0.227546  0  -0.026361  -0.087899  0  4.075504  0
C  C64  1  0.96266264  0.50006491  0.49996312  1  -0.14494  0  -0.026009  -0.089296  0  4.075999  0
C  C65  1  0.87703508  0.50009844  0.50015841  1  0.157364  0  0.02233  0.177204  0  4.105135  0
C  C66  1  0.83327126  0.54763919  0.52989857  1  -0.017813  0  -0.067855  -0.168794  0  3.906347  0
C  C67  1  0.74932707  0.54565078  0.52911195  1  0.497038  0  0.066412  0.106917  0  3.919626  0
C  C68  1  0.74909282  0.45423347  0.47224515  1  0.487251  0  0.065239  0.108027  0  3.920494  0
C  C69  1  0.83302018  0.45251158  0.47074260  1  -0.001931  0  -0.069142  -0.171395  0  3.910039  0
C  C70  1  0.50009336  0.72980563  0.50076755  1  0.050887  0  -0.016836  -0.030178  0  3.958697  0
C  C71  1  0.57332165  0.76936761  0.50043974  1  -0.142844  0  -0.084627  -0.09037  0  3.996646  0
C  C72  1  0.57358720  0.84684599  0.50004621  1  0.033485  0  -0.085695  -0.129785  0  3.956687  0
C  C73  1  0.49992727  0.88695675  0.49992919  1  0.087668  0  0.001378  0.143394  0  4.120269  0
C  C74  1  0.42636302  0.84682154  0.49997546  1  0.032529  0  -0.085414  -0.129797  0  3.955871  0
C  C75  1  0.42677402  0.76932467  0.50037356  1  -0.140901  0  -0.084226  -0.089462  0  3.994742  0
C  C76  1  0.49987389  0.96587141  0.49977500  1  -0.091307  0  -0.04628  -0.111027  0  4.129028  0
C  C77  1  0.49992766  0.03406141  0.49974934  1  -0.321512  0  -0.0462  -0.110505  0  4.128148  0
C  C78  1  0.49998987  0.11298051  0.49979228  1  0.089116  0  0.00108  0.143172  0  4.119164  0
C  C79  1  0.57364381  0.15297449  0.49987199  1  0.028738  0  -0.08584  -0.130343  0  3.958504  0
C  C80  1  0.57337563  0.23046407  0.49996033  1  -0.152941  0  -0.08434  -0.090291  0  3.996897  0
C  C81  1  0.50012878  0.27013605  0.49991789  1  0.050508  0  -0.016408  -0.029774  0  3.95779  0
C  C82  1  0.42681444  0.23071140  0.49991591  1  -0.138039  0  -0.084956  -0.090163  0  3.994841  0
C  C83  1  0.42641637  0.15321574  0.49985832  1  0.03424  0  -0.084864  -0.129261  0  3.955592  0
C  C84  1  0.49747524  0.50150022  0.74226955  1  0.005196  0  -0.03913  -0.218869  0  4.023362  0
C  C85  1  0.49734882  0.50098388  0.64280702  1  0.034586  0  -0.039579  -0.218514  0  4.025607  0
C  C86  1  0.56904453  0.50140619  0.71615034  1  0.010086  0  -0.026229  0.045833  0  3.959782  0
C  C87  1  0.42378380  0.50107086  0.66809091  1  0.499495  0  0.080361  0.203557  0  4.020044  0
C  C88  1  0.56899833  0.50113735  0.66867164  1  -0.061873  0  -0.026144  0.045899  0  3.961313  0
C  C89  1  0.42383494  0.50128048  0.71722631  1  0.594875  0  0.080197  0.204217  0  4.018318  0
C  C90  1  0.66060533  0.50082555  0.71945722  1  0.06743  0  -0.157873  -0.190723  0  3.909998  0
C  C91  1  0.66053479  0.50052955  0.66504896  1  -0.006524  0  -0.157606  -0.190472  0  3.910956  0
C  C92  1  0.49995056  0.50165394  0.02628138  1  -0.007025  0  -0.017935  -0.031058  0  3.961383  0
C  C93  1  0.42672743  0.50172975  0.05077675  1  -0.077452  0  -0.084232  -0.089255  0  3.998077  0
C  C94  1  0.42649868  0.50156879  0.09847839  1  0.042617  0  -0.086434  -0.131088  0  3.957519  0
C  C95  1  0.50022280  0.50140784  0.12296513  1  0.125864  0  0.000735  0.143205  0  4.119183  0
C  C96  1  0.57379056  0.50166694  0.09813615  1  0.059128  0  -0.085653  -0.129932  0  3.955558  0
C  C97  1  0.57331679  0.50179000  0.05042364  1  -0.110152  0  -0.08447  -0.090176  0  3.998016  0
C  C98  1  0.50032096  0.50109891  0.17152341  1  -0.078051  0  -0.046734  -0.111314  0  4.132844  0
C  C99  1  0.50036389  0.50081417  0.21348946  1  -0.359477  0  -0.047216  -0.112284  0  4.13368  0
C  C100  1  0.50035497  0.50047510  0.26204815  1  0.091701  0  0.000193  0.144652  0  4.120004  0
C  C101  1  0.42668363  0.50033715  0.28677654  1  -0.083323  0  -0.085779  -0.131346  0  3.958509  0
C  C102  1  0.42700199  0.50009018  0.33447724  1  0.030031  0  -0.085142  -0.090777  0  3.998704  0
C  C103  1  0.50026563  0.49990528  0.35873734  1  0.034609  0  -0.017987  -0.030208  0  3.960797  0
C  C104  1  0.57357980  0.50021406  0.33437004  1  0.031028  0  -0.084456  -0.090115  0  4.000162  0
C  C105  1  0.57396035  0.50048441  0.28665716  1  -0.075366  0  -0.085412  -0.13114  0  3.959464  0
C  C106  1  0.74954493  0.54771201  0.85597119  1  0.517505  0  0.066524  0.106405  0  3.918829  0
C  C107  1  0.83350588  0.54988634  0.85532207  1  0.006099  0  -0.06828  -0.168624  0  3.903473  0
C  C108  1  0.87700870  0.50269506  0.88503074  1  0.182161  0  0.02244  0.175795  0  4.104019  0
C  C109  1  0.83272624  0.45532094  0.91431144  1  0.000731  0  -0.069046  -0.169807  0  3.908358  0
C  C110  1  0.74880624  0.45683805  0.91267671  1  0.4825  0  0.065305  0.107483  0  3.920607  0
C  C111  1  0.96262175  0.50266264  0.88530459  1  -0.384017  0  -0.026285  -0.088052  0  4.076089  0
C  C112  1  0.03640275  0.50245005  0.88529637  1  0.011672  0  -0.026369  -0.089163  0  4.077237  0
C  C113  1  0.12200980  0.50234117  0.88519507  1  0.046493  0  0.023435  0.176882  0  4.105393  0
C  C114  1  0.16582503  0.54979405  0.85575366  1  -0.010837  0  -0.065423  -0.163765  0  3.89792  0
C  C115  1  0.24975426  0.54808046  0.85689915  1  0.565104  0  0.067393  0.109602  0  3.912179  0
C  C116  1  0.24983240  0.45660134  0.91324800  1  0.541211  0  0.064906  0.105556  0  3.922033  0
C  C117  1  0.16590563  0.45481438  0.91450195  1  -0.030518  0  -0.068262  -0.169492  0  3.909035  0
C  C118  1  0.50016491  0.73175926  0.88349727  1  -0.005315  0  -0.017549  -0.031352  0  3.960051  0
C  C119  1  0.42683891  0.77128889  0.88361850  1  0.021472  0  -0.084146  -0.089025  0  3.997287  0
C  C120  1  0.42641884  0.84878965  0.88376343  1  -0.111333  0  -0.085172  -0.130157  0  3.955068  0
C  C121  1  0.49999703  0.88891481  0.88385664  1  0.18366  0  0.001324  0.14408  0  4.116985  0
C  C122  1  0.57365634  0.84881187  0.88385683  1  -0.112079  0  -0.086077  -0.130639  0  3.956083  0
C  C123  1  0.57339079  0.77132513  0.88370252  1  0.035609  0  -0.084414  -0.090368  0  3.99877  0
C  C124  1  0.49992855  0.96780992  0.88404506  1  -0.26015  0  -0.0468  -0.112169  0  4.130848  0
C  C125  1  0.49992969  0.03598317  0.88429196  1  -0.268633  0  -0.046022  -0.108938  0  4.129814  0
C  C126  1  0.49994592  0.11488944  0.88452085  1  0.181806  0  0.00076  0.142233  0  4.118337  0
C  C127  1  0.42635427  0.15511685  0.88453672  1  -0.104391  0  -0.085256  -0.130254  0  3.954719  0
C  C128  1  0.42674326  0.23261419  0.88463007  1  0.009955  0  -0.083653  -0.088534  0  3.996522  0
C  C129  1  0.50005700  0.27203939  0.88473447  1  0.01394  0  -0.017308  -0.030516  0  3.95939  0
C  C130  1  0.57330141  0.23238975  0.88469586  1  0.017651  0  -0.084171  -0.090562  0  3.998982  0
C  C131  1  0.57359681  0.15490184  0.88461986  1  -0.106582  0  -0.085704  -0.129801  0  3.956574  0
N  N132  1  0.29094166  0.50031182  0.50026132  1  -1.21111  0  -0.313809  -0.190935  0  3.506092  0
N  N133  1  0.70813360  0.49983369  0.50087843  1  -1.216938  0  -0.3118  -0.186635  0  3.501048  0
N  N134  1  0.70809962  0.50206864  0.88405892  1  -1.208922  0  -0.312108  -0.186552  0  3.500778  0
N  N135  1  0.29088971  0.50237593  0.88503981  1  -1.211293  0  -0.313941  -0.188873  0  3.503772  0
O  O136  1  0.56912814  0.61392498  0.50151343  1  -1.164558  0  -0.319729  -0.550808  0  2.329719  0
O  O137  1  0.43178416  0.61360711  0.50197244  1  -1.169247  0  -0.320759  -0.552965  0  2.33038  0
O  O138  1  0.42849922  0.49970051  0.57142111  1  -1.172013  0  -0.314977  -0.55964  0  2.353402  0
O  O139  1  0.56566572  0.50093439  0.57140538  1  -1.160233  0  -0.309598  -0.527537  0  2.305997  0
O  O140  1  0.43168613  0.38637108  0.49986126  1  -1.168446  0  -0.320725  -0.552724  0  2.329579  0
O  O141  1  0.56904285  0.38597443  0.50025401  1  -1.161334  0  -0.319883  -0.551203  0  2.329021  0
O  O142  1  0.56836291  0.49926125  0.43034520  1  -1.170299  0  -0.320071  -0.552722  0  2.31928  0
O  O143  1  0.43098434  0.49973604  0.42995578  1  -1.173112  0  -0.321257  -0.552901  0  2.328106  0
O  O144  1  0.43183271  0.61552505  0.88316175  1  -1.169658  0  -0.321177  -0.553749  0  2.329346  0
O  O145  1  0.56916460  0.61584514  0.88347397  1  -1.166988  0  -0.319655  -0.551316  0  2.328512  0
O  O146  1  0.56594233  0.50216738  0.81346734  1  -1.16229  0  -0.309619  -0.52764  0  2.302128  0
O  O147  1  0.42876566  0.50080231  0.81384944  1  -1.165421  0  -0.31525  -0.561006  0  2.357143  0
O  O148  1  0.56898680  0.38786551  0.88442820  1  -1.167359  0  -0.320014  -0.55154  0  2.328883  0
O  O149  1  0.43163372  0.38828222  0.88512873  1  -1.168907  0  -0.32084  -0.553012  0  2.328996  0
O  O150  1  0.43059335  0.50210104  0.95526052  1  -1.171265  0  -0.32145  -0.552141  0  2.328068  0
O  O151  1  0.56796969  0.50136950  0.95448831  1  -1.173843  0  -0.319753  -0.552057  0  2.323275  0
O  O152  1  0.35074529  0.50062488  0.64722056  1  -1.162543  0  -0.367276  -0.436618  0  2.280792  0
O  O153  1  0.35083838  0.50097902  0.73832831  1  -1.126976  0  -0.367949  -0.438203  0  2.280803  0
