# generated using pymatgen
data_ZnH11C20(NO2)2
_symmetry_space_group_name_H-M   'P 1'
_cell_length_a   7.68125333
_cell_length_b   10.33725279
_cell_length_c   10.78109441
_cell_angle_alpha   114.48622736
_cell_angle_beta   88.94043832
_cell_angle_gamma   89.84875523
_symmetry_Int_Tables_number   1
_chemical_formula_structural   ZnH11C20(NO2)2
_chemical_formula_sum   'Zn2 H22 C40 N4 O8'
_cell_volume   778.87619254
_cell_formula_units_Z   2
loop_
 _symmetry_equiv_pos_site_id
 _symmetry_equiv_pos_as_xyz
  1  'x, y, z'
loop_
 _atom_site_type_symbol
 _atom_site_label
 _atom_site_symmetry_multiplicity
 _atom_site_fract_x
 _atom_site_fract_y
 _atom_site_fract_z
 _atom_site_occupancy
 _atom_site_hle17_bader_spin_density
 _atom_site_hle17_ddec_charge
 _atom_site_hle17_ddec_spin_density
 _atom_site_hle17_ddec_sum_bond_order
 _atom_site_hle17_magmom
 _atom_site_hse06_10hf_bader_spin_density
 _atom_site_hse06_10hf_ddec_charge
 _atom_site_hse06_10hf_ddec_spin_density
 _atom_site_hse06_10hf_ddec_sum_bond_order
 _atom_site_hse06_10hf_magmom
 _atom_site_hse06_bader_spin_density
 _atom_site_hse06_ddec_charge
 _atom_site_hse06_ddec_spin_density
 _atom_site_hse06_ddec_sum_bond_order
 _atom_site_hse06_magmom
 _atom_site_pbe_bader_spin_density
 _atom_site_pbe_cm5_charge
 _atom_site_pbe_ddec_charge
 _atom_site_pbe_ddec_spin_density
 _atom_site_pbe_ddec_sum_bond_order
 _atom_site_pbe_magmom
Zn  Zn0  1  0.97126948  0.46107118  0.30489186  1  0  1.069556  0  1.831316  0  0  0.88461  0  2.30881  0  0  0.933067  0  2.250451  0  0  0.698512  0.850901  0  2.348942  0
Zn  Zn1  1  0.02872902  0.53893412  0.69511042  1  0  1.069497  0  1.831371  0  0  0.884592  0  2.308817  0  0  0.933047  0  2.250466  0  0  0.698506  0.85089  0  2.348946  0
H  H2  1  0.87132363  0.13321005  0.13663280  1  0  0.093449  0  0.951982  0  0  0.098765  0  1.017289  0  0  0.102494  0  1.013816  0  0  0.117361  0.095902  0  1.02017  0
H  H3  1  0.12868403  0.86679193  0.86336538  1  0  0.093383  0  0.952076  0  0  0.09879  0  1.017278  0  0  0.102519  0  1.013805  0  0  0.117371  0.095923  0  1.020161  0
H  H4  1  0.69565177  0.99425127  0.92468388  1  0  0.101847  0  0.954079  0  0  0.113043  0  1.011445  0  0  0.115703  0  1.011216  0  0  0.107034  0.110936  0  1.01218  0
H  H5  1  0.30434795  0.00574451  0.07531843  1  0  0.101861  0  0.954124  0  0  0.113061  0  1.011475  0  0  0.115719  0  1.011244  0  0  0.107039  0.110955  0  1.012212  0
H  H6  1  0.58134979  0.12097455  0.78995623  1  0  0.097978  0  0.963764  0  0  0.109924  0  1.023499  0  0  0.111472  0  1.024043  0  0  0.106949  0.108766  0  1.023455  0
H  H7  1  0.41864734  0.87902337  0.21004599  1  0  0.097941  0  0.963796  0  0  0.1099  0  1.023521  0  0  0.111448  0  1.024063  0  0  0.106962  0.108742  0  1.023479  0
H  H8  1  0.56517284  0.35036734  0.75523523  1  0  0.10528  0  0.943721  0  0  0.118684  0  0.999248  0  0  0.120457  0  1.000272  0  0  0.107169  0.117231  0  0.998934  0
H  H9  1  0.43483876  0.64963351  0.24476065  1  0  0.105297  0  0.943736  0  0  0.118688  0  0.999283  0  0  0.12046  0  1.000307  0  0  0.107164  0.117246  0  0.99895  0
H  H10  1  0.62688476  0.60742157  0.84160801  1  0  0.117166  0  0.943652  0  0  0.12824  0  1.000872  0  0  0.131372  0  0.999232  0  0  0.110055  0.125846  0  1.002417  0
H  H11  1  0.37312154  0.39257834  0.15839217  1  0  0.117126  0  0.943645  0  0  0.128195  0  1.000879  0  0  0.131325  0  0.99924  0  0  0.110021  0.125803  0  1.002424  0
H  H12  1  0.74589066  0.82962451  0.02620428  1  0  0.098175  0  0.933907  0  0  0.111928  0  0.990348  0  0  0.114365  0  0.988958  0  0  0.110319  0.110025  0  0.991622  0
H  H13  1  0.25411167  0.17037656  0.97380007  1  0  0.098155  0  0.933885  0  0  0.111902  0  0.99034  0  0  0.114342  0  0.988949  0  0  0.110301  0.110001  0  0.991614  0
H  H14  1  0.89520378  0.94393291  0.25271514  1  0  0.132704  0  0.975065  0  0  0.140471  0  1.035702  0  0  0.144318  0  1.033881  0  0  0.110318  0.13734  0  1.03779  0
H  H15  1  0.10480379  0.05606277  0.74728526  1  0  0.132661  0  0.974996  0  0  0.140443  0  1.035625  0  0  0.144257  0  1.033845  0  0  0.110302  0.13731  0  1.037714  0
H  H16  1  0.98349814  0.78800815  0.36942016  1  0  0.091118  0  0.942964  0  0  0.100148  0  1.004822  0  0  0.102756  0  1.00199  0  0  0.121883  0.098211  0  1.006854  0
H  H17  1  0.01650290  0.21198548  0.63058039  1  0  0.091162  0  0.942951  0  0  0.100168  0  1.004815  0  0  0.102774  0  1.001986  0  0  0.121911  0.098233  0  1.006846  0
H  H18  1  0.45711232  0.37373473  0.36693025  1  0  0.112309  0  0.949855  0  0  0.120138  0  1.014514  0  0  0.124241  0  1.010869  0  0  0.106668  0.117747  0  1.015767  0
H  H19  1  0.54288483  0.62625892  0.63306939  1  0  0.112446  0  0.949633  0  0  0.120186  0  1.01437  0  0  0.124287  0  1.010731  0  0  0.106686  0.117795  0  1.015624  0
H  H20  1  0.22308687  0.02135610  0.41315424  1  0  0.092605  0  0.970746  0  0  0.10276  0  1.035662  0  0  0.106631  0  1.032065  0  0  0.10101  0.099789  0  1.038368  0
H  H21  1  0.77689992  0.97864824  0.58684678  1  0  0.092589  0  0.970757  0  0  0.102722  0  1.035681  0  0  0.106593  0  1.032092  0  0  0.101005  0.099766  0  1.038371  0
H  H22  1  0.75086511  0.14463741  0.54425214  1  0  0.095598  0  0.970702  0  0  0.105567  0  1.036377  0  0  0.109053  0  1.033016  0  0  0.102975  0.103019  0  1.038997  0
H  H23  1  0.24913721  0.85535941  0.45575057  1  0  0.095641  0  0.970772  0  0  0.105642  0  1.036399  0  0  0.109129  0  1.033036  0  0  0.102963  0.103083  0  1.039017  0
C  C24  1  0.81564164  0.18283747  0.07391669  1  0  0.148119  0  3.667696  0  0  0.118505  0  3.919535  0  0  0.125573  0  3.936004  0  0  0.060223  0.113549  0  3.908723  0
C  C25  1  0.18436343  0.81716239  0.92607977  1  0  0.148132  0  3.667856  0  0  0.118455  0  3.919706  0  0  0.125523  0  3.936176  0  0  0.060219  0.113499  0  3.908889  0
C  C26  1  0.71873619  0.10734340  0.95668097  1  0  -0.117223  0  3.7319  0  0  -0.130548  0  3.985348  0  0  -0.137372  0  4.007451  0  0  -0.081829  -0.125819  0  3.970888  0
C  C27  1  0.28126883  0.89265438  0.04331746  1  0  -0.117274  0  3.732094  0  0  -0.130609  0  3.985564  0  0  -0.137429  0  4.007662  0  0  -0.081862  -0.125882  0  3.971107  0
C  C28  1  0.65606763  0.17746424  0.88140595  1  0  -0.045909  0  3.686864  0  0  -0.07124  0  3.935639  0  0  -0.069589  0  3.955504  0  0  -0.062144  -0.072318  0  3.922247  0
C  C29  1  0.34393483  0.82253673  0.11859186  1  0  -0.045775  0  3.686963  0  0  -0.071117  0  3.935724  0  0  -0.069461  0  3.955585  0  0  -0.062129  -0.072199  0  3.922334  0
C  C30  1  0.68977412  0.32348856  0.92291960  1  0  0.020676  0  3.80398  0  0  0.038203  0  4.035354  0  0  0.035624  0  4.060238  0  0  -0.002179  0.040091  0  4.018001  0
C  C31  1  0.31022967  0.67650706  0.07707429  1  0  0.020604  0  3.804066  0  0  0.038143  0  4.03544  0  0  0.03556  0  4.060329  0  0  -0.002189  0.040032  0  4.018085  0
C  C32  1  0.63358471  0.40455832  0.85051433  1  0  -0.08522  0  3.718805  0  0  -0.110345  0  3.976793  0  0  -0.113135  0  3.999579  0  0  -0.079911  -0.108338  0  3.961142  0
C  C33  1  0.36642163  0.59543944  0.14948315  1  0  -0.085241  0  3.718873  0  0  -0.110355  0  3.976848  0  0  -0.113145  0  3.999636  0  0  -0.079939  -0.108353  0  3.961188  0
C  C34  1  0.66616171  0.54674366  0.89859849  1  0  -0.093034  0  3.714317  0  0  -0.11694  0  3.976052  0  0  -0.119319  0  3.996426  0  0  -0.080482  -0.11481  0  3.962245  0
C  C35  1  0.33384459  0.45325094  0.10139964  1  0  -0.092995  0  3.714401  0  0  -0.116889  0  3.976122  0  0  -0.119268  0  3.996498  0  0  -0.080406  -0.114763  0  3.96232  0
C  C36  1  0.75430600  0.61977879  0.02430055  1  0  0.022864  0  3.794826  0  0  0.036635  0  4.033466  0  0  0.034414  0  4.05701  0  0  -0.002222  0.037291  0  4.018216  0
C  C37  1  0.24570032  0.38022217  0.97569910  1  0  0.022855  0  3.794882  0  0  0.036643  0  4.033514  0  0  0.03442  0  4.057061  0  0  -0.002218  0.037299  0  4.018268  0
C  C38  1  0.78576327  0.76747221  0.08173048  1  0  -0.034036  0  3.675166  0  0  -0.05978  0  3.927382  0  0  -0.056923  0  3.945237  0  0  -0.059559  -0.061637  0  3.91533  0
C  C39  1  0.21423911  0.23252670  0.91827025  1  0  -0.034101  0  3.675119  0  0  -0.059844  0  3.927353  0  0  -0.056987  0  3.945202  0  0  -0.059612  -0.061699  0  3.915302  0
C  C40  1  0.86672154  0.83054625  0.20606229  1  0  -0.128065  0  3.700447  0  0  -0.141632  0  3.955188  0  0  -0.149619  0  3.977219  0  0  -0.082701  -0.135807  0  3.940228  0
C  C41  1  0.13328342  0.16945371  0.79393976  1  0  -0.127943  0  3.70037  0  0  -0.141513  0  3.955084  0  0  -0.149477  0  3.977137  0  0  -0.082662  -0.135686  0  3.940124  0
C  C42  1  0.91864019  0.74453333  0.27170774  1  0  0.161629  0  3.65914  0  0  0.127667  0  3.915362  0  0  0.135732  0  3.932513  0  0  0.062243  0.122487  0  3.90304  0
C  C43  1  0.08136223  0.25546448  0.72829071  1  0  0.161526  0  3.659042  0  0  0.127604  0  3.915259  0  0  0.135671  0  3.9324  0  0  0.062237  0.122422  0  3.902944  0
C  C44  1  0.78331498  0.39158823  0.04491616  1  0  0.128401  0  3.773584  0  0  0.121241  0  4.010536  0  0  0.125149  0  4.032903  0  0  0.118043  0.11893  0  3.99517  0
C  C45  1  0.21668877  0.60840954  0.95508042  1  0  0.128435  0  3.77381  0  0  0.121262  0  4.010808  0  0  0.12517  0  4.033176  0  0  0.118032  0.118947  0  3.995439  0
C  C46  1  0.81260044  0.54231081  0.09786399  1  0  0.126806  0  3.765737  0  0  0.119564  0  4.003845  0  0  0.123704  0  4.025811  0  0  0.116165  0.116496  0  3.989354  0
C  C47  1  0.18740455  0.45768807  0.90213672  1  0  0.126863  0  3.765726  0  0  0.119585  0  4.00393  0  0  0.123726  0  4.025895  0  0  0.116229  0.116519  0  3.98944  0
C  C48  1  0.76551602  0.36927374  0.48369722  1  0  0.690996  0  3.858963  0  0  0.634566  0  4.152166  0  0  0.670892  0  4.142389  0  0  0.223739  0.609632  0  4.15829  0
C  C49  1  0.23447734  0.63072837  0.51630014  1  0  0.690947  0  3.85884  0  0  0.634507  0  4.152116  0  0  0.670833  0  4.142341  0  0  0.223721  0.609573  0  4.158234  0
C  C50  1  0.61714629  0.26821727  0.45937130  1  0  -0.065634  0  3.762843  0  0  -0.039044  0  3.997237  0  0  -0.048042  0  4.01934  0  0  -0.018288  -0.033922  0  3.98324  0
C  C51  1  0.38284837  0.73178801  0.54062728  1  0  -0.065472  0  3.762687  0  0  -0.038904  0  3.99711  0  0  -0.0479  0  4.019211  0  0  -0.018328  -0.033785  0  3.983107  0
C  C52  1  0.46614865  0.28688621  0.39838585  1  0  -0.052784  0  3.685483  0  0  -0.091278  0  3.932078  0  0  -0.087504  0  3.949299  0  0  -0.077101  -0.092497  0  3.919318  0
C  C53  1  0.53384726  0.71311698  0.60161470  1  0  -0.053091  0  3.685191  0  0  -0.091498  0  3.931819  0  0  -0.087724  0  3.949037  0  0  -0.077168  -0.092719  0  3.919056  0
C  C54  1  0.32488479  0.19690689  0.38281428  1  0  -0.06426  0  3.758798  0  0  -0.038626  0  3.993485  0  0  -0.047166  0  4.016288  0  0  -0.022343  -0.033931  0  3.978622  0
C  C55  1  0.67511375  0.80310051  0.61718695  1  0  -0.064164  0  3.758776  0  0  -0.038516  0  3.993428  0  0  -0.047055  0  4.016233  0  0  -0.02232  -0.033819  0  3.978556  0
C  C56  1  0.15759194  0.21885357  0.32208685  1  0  0.645878  0  3.924809  0  0  0.595476  0  4.224142  0  0  0.62985  0  4.215865  0  0  0.200078  0.572056  0  4.229451  0
C  C57  1  0.84241182  0.78115377  0.67791342  1  0  0.645881  0  3.92503  0  0  0.59548  0  4.224381  0  0  0.629852  0  4.216105  0  0  0.200113  0.572058  0  4.229689  0
C  C58  1  0.33791885  0.08683023  0.42549880  1  0  -0.116228  0  3.726685  0  0  -0.147647  0  3.974128  0  0  -0.146826  0  3.993129  0  0  -0.084422  -0.146657  0  3.960258  0
C  C59  1  0.66207449  0.91317295  0.57449989  1  0  -0.116199  0  3.726656  0  0  -0.147608  0  3.974095  0  0  -0.14679  0  3.993106  0  0  -0.084369  -0.146632  0  3.960218  0
C  C60  1  0.49185640  0.06099208  0.48088142  1  0  0.030436  0  3.796205  0  0  0.046106  0  4.03613  0  0  0.044035  0  4.060912  0  0  -0.016911  0.046861  0  4.020079  0
C  C61  1  0.50813292  0.93900804  0.51912168  1  0  0.030433  0  3.796176  0  0  0.046147  0  4.036055  0  0  0.044076  0  4.060837  0  0  -0.016929  0.046898  0  4.020005  0
C  C62  1  0.62954262  0.15588806  0.49908289  1  0  -0.10052  0  3.699339  0  0  -0.133418  0  3.947718  0  0  -0.131643  0  3.965483  0  0  -0.082005  -0.135469  0  3.937631  0
C  C63  1  0.37044934  0.84411306  0.50091873  1  0  -0.100621  0  3.699701  0  0  -0.133517  0  3.948013  0  0  -0.131746  0  3.965778  0  0  -0.081983  -0.13555  0  3.937908  0
N  N64  1  0.84520131  0.32131494  0.11645471  1  0  -0.344821  0  3.277213  0  0  -0.27708  0  3.545329  0  0  -0.294279  0  3.561271  0  0  -0.312051  -0.265216  0  3.534373  0
N  N65  1  0.15480243  0.67868391  0.88354321  1  0  -0.344827  0  3.277463  0  0  -0.277083  0  3.545605  0  0  -0.294283  0  3.561551  0  0  -0.312071  -0.265215  0  3.53464  0
N  N66  1  0.89401775  0.60455817  0.21861064  1  0  -0.346312  0  3.259411  0  0  -0.27416  0  3.530657  0  0  -0.291913  0  3.545391  0  0  -0.314502  -0.261538  0  3.520171  0
N  N67  1  0.10598465  0.39544072  0.78138916  1  0  -0.346233  0  3.259225  0  0  -0.274111  0  3.530508  0  0  -0.291865  0  3.545249  0  0  -0.314501  -0.261491  0  3.520027  0
O  O68  1  0.76867017  0.44367158  0.41430952  1  0  -0.646739  0  2.088204  0  0  -0.579733  0  2.37052  0  0  -0.607027  0  2.354271  0  0  -0.324865  -0.560213  0  2.38086  0
O  O69  1  0.23132182  0.55632740  0.58568941  1  0  -0.646666  0  2.088082  0  0  -0.579707  0  2.370473  0  0  -0.606999  0  2.354221  0  0  -0.324867  -0.56019  0  2.380818  0
O  O70  1  0.87429440  0.37460844  0.57286672  1  0  -0.643728  0  2.111399  0  0  -0.575634  0  2.389049  0  0  -0.603823  0  2.375461  0  0  -0.311689  -0.555635  0  2.39764  0
O  O71  1  0.12570017  0.62539797  0.42713693  1  0  -0.64372  0  2.111446  0  0  -0.575635  0  2.389145  0  0  -0.603822  0  2.375557  0  0  -0.311657  -0.555652  0  2.397767  0
O  O72  1  0.16278819  0.32103915  0.28220327  1  0  -0.681575  0  2.095325  0  0  -0.611028  0  2.378296  0  0  -0.63955  0  2.363014  0  0  -0.341139  -0.591508  0  2.388761  0
O  O73  1  0.83720384  0.67895767  0.71779298  1  0  -0.681591  0  2.095064  0  0  -0.61105  0  2.378023  0  0  -0.639575  0  2.362745  0  0  -0.341134  -0.591533  0  2.388489  0
O  O74  1  0.03053267  0.13982552  0.31253657  1  0  -0.617572  0  1.938569  0  0  -0.574174  0  2.167158  0  0  -0.597237  0  2.159199  0  0  -0.324411  -0.557848  0  2.172644  0
O  O75  1  0.96945924  0.86017034  0.68746581  1  0  -0.617455  0  1.939002  0  0  -0.574095  0  2.167613  0  0  -0.597146  0  2.15965  0  0  -0.324429  -0.557772  0  2.173103  0
