# generated using pymatgen
data_AlH12C16N3O5
_symmetry_space_group_name_H-M   'P 1'
_cell_length_a   6.64825139
_cell_length_b   22.41749175
_cell_length_c   26.77025103
_cell_angle_alpha   100.62887172
_cell_angle_beta   89.99974791
_cell_angle_gamma   89.99814362
_symmetry_Int_Tables_number   1
_chemical_formula_structural   AlH12C16N3O5
_chemical_formula_sum   'Al4 H48 C64 N12 O20'
_cell_volume   3921.30692607
_cell_formula_units_Z   4
loop_
 _symmetry_equiv_pos_site_id
 _symmetry_equiv_pos_as_xyz
  1  'x, y, z'
loop_
 _atom_site_type_symbol
 _atom_site_label
 _atom_site_symmetry_multiplicity
 _atom_site_fract_x
 _atom_site_fract_y
 _atom_site_fract_z
 _atom_site_occupancy
 _atom_site_pbe_bader_charge
 _atom_site_pbe_bader_spin_density
 _atom_site_pbe_cm5_charge
 _atom_site_pbe_ddec_charge
 _atom_site_pbe_ddec_spin_density
 _atom_site_pbe_ddec_sum_bond_order
 _atom_site_pbe_magmom
Al  Al0  1  0.77141384  0.75002246  0.24944771  1  2.500196  0  0.399715  1.641363  0  2.588594  0
Al  Al1  1  0.22857288  0.24996675  0.75054883  1  2.500164  0  0.399717  1.64141  0  2.588335  0
Al  Al2  1  0.27141620  0.74996447  0.25054609  1  2.499926  0  0.399726  1.64122  0  2.588716  0
Al  Al3  1  0.72857352  0.25002778  0.74945009  1  2.500047  0  0.399759  1.641454  0  2.588495  0
H  H4  1  0.72877224  0.00894164  0.56379269  1  0.065022  0  0.106578  0.11563  0  1.009767  0
H  H5  1  0.27122199  0.99105090  0.43620690  1  0.065036  0  0.106567  0.115588  0  1.009853  0
H  H6  1  0.22877126  0.49106158  0.93620930  1  0.06502  0  0.106562  0.115592  0  1.009787  0
H  H7  1  0.77127562  0.50894242  0.06377515  1  0.065171  0  0.10665  0.115756  0  1.00984  0
H  H8  1  0.26836061  0.11323608  0.83235589  1  0.08645  0  0.109467  0.113289  0  0.999232  0
H  H9  1  0.73162461  0.88675906  0.16764334  1  0.086363  0  0.109382  0.113248  0  0.999145  0
H  H10  1  0.76836763  0.38676157  0.66764787  1  0.086621  0  0.109403  0.113253  0  0.999113  0
H  H11  1  0.23162360  0.61323520  0.33235895  1  0.085651  0  0.109443  0.113167  0  0.999235  0
H  H12  1  0.28369225  0.04599094  0.89722731  1  0.125143  0  0.106463  0.107252  0  1.016466  0
H  H13  1  0.71630349  0.95400534  0.10277306  1  0.12534  0  0.106488  0.10721  0  1.016486  0
H  H14  1  0.78370420  0.45400640  0.60277527  1  0.125257  0  0.106466  0.107219  0  1.016345  0
H  H15  1  0.21628101  0.54600342  0.39724034  1  0.127883  0  0.106508  0.107208  0  1.016392  0
H  H16  1  0.70017500  0.11081144  0.95142670  1  0.092681  0  0.103702  0.104797  0  1.030246  0
H  H17  1  0.29983428  0.88919247  0.04858015  1  0.092832  0  0.103672  0.104806  0  1.030195  0
H  H18  1  0.20018956  0.38919817  0.54857957  1  0.092884  0  0.103706  0.104766  0  1.030331  0
H  H19  1  0.79978512  0.61081871  0.45143151  1  0.093103  0  0.103722  0.104747  0  1.030357  0
H  H20  1  0.56206135  0.93296354  0.51554086  1  0.422451  0  0.31184  0.253235  0  0.944737  0
H  H21  1  0.55876843  0.92068543  0.41096336  1  0.038898  0  0.092564  0.093562  0  0.996773  0
H  H22  1  0.42375642  0.87512613  0.44738650  1  0.076355  0  0.107715  0.11914  0  0.98584  0
H  H23  1  0.66337492  0.85124776  0.42173091  1  0.073114  0  0.099844  0.113412  0  1.002862  0
H  H24  1  0.43794943  0.06702868  0.48446140  1  0.422427  0  0.311872  0.253315  0  0.944692  0
H  H25  1  0.44122881  0.07930821  0.58903928  1  0.038636  0  0.092583  0.093589  0  0.996888  0
H  H26  1  0.33662985  0.14874665  0.57826907  1  0.073297  0  0.09988  0.113495  0  1.002831  0
H  H27  1  0.57625286  0.12486512  0.55261536  1  0.076563  0  0.107705  0.119038  0  0.985851  0
H  H28  1  0.06205157  0.56703546  0.98447003  1  0.422693  0  0.311877  0.253298  0  0.944864  0
H  H29  1  0.05879339  0.57930332  0.08904546  1  0.038578  0  0.092682  0.093664  0  0.996934  0
H  H30  1  0.92375524  0.62486628  0.05262930  1  0.07675  0  0.107596  0.118857  0  0.985752  0
H  H31  1  0.16336973  0.64874561  0.07828257  1  0.073317  0  0.09979  0.113381  0  1.002714  0
H  H32  1  0.93797426  0.43295698  0.01552083  1  0.423217  0  0.311885  0.253285  0  0.944735  0
H  H33  1  0.94125951  0.42068884  0.91094198  1  0.039013  0  0.092614  0.093637  0  0.996794  0
H  H34  1  0.83665610  0.35125223  0.92170641  1  0.072949  0  0.0998  0.113398  0  1.002788  0
H  H35  1  0.07627360  0.37512499  0.94736231  1  0.076486  0  0.10757  0.118828  0  0.985816  0
H  H36  1  0.67218376  0.23683654  0.89285867  1  0.037206  0  0.093577  0.132207  0  1.001137  0
H  H37  1  0.54370400  0.17826885  0.85325844  1  0.077876  0  0.101045  0.151096  0  1.004239  0
H  H38  1  0.52972985  0.18386024  0.92055029  1  0.020319  0  0.0896  0.125772  0  1.000914  0
H  H39  1  0.32784356  0.76316327  0.10714361  1  0.037429  0  0.093574  0.132198  0  1.001222  0
H  H40  1  0.47027792  0.81614457  0.07945657  1  0.020398  0  0.089556  0.125642  0  1.000923  0
H  H41  1  0.45629474  0.82173332  0.14674651  1  0.07777  0  0.100987  0.151011  0  1.004414  0
H  H42  1  0.17218712  0.26316766  0.60713855  1  0.037344  0  0.093551  0.132164  0  1.001313  0
H  H43  1  0.04370006  0.32173402  0.64674064  1  0.078034  0  0.101035  0.151115  0  1.004242  0
H  H44  1  0.02974507  0.31615044  0.57944962  1  0.020678  0  0.089519  0.125662  0  1.00088  0
H  H45  1  0.82778606  0.73683884  0.39285958  1  0.037426  0  0.093528  0.132138  0  1.001117  0
H  H46  1  0.97024164  0.68386097  0.42055271  1  0.02053  0  0.089576  0.12571  0  1.00083  0
H  H47  1  0.95628214  0.67827054  0.35326090  1  0.077962  0  0.101017  0.151061  0  1.004317  0
H  H48  1  0.52138043  0.82714498  0.27502219  1  0.625345  0  0.356671  0.433955  0  0.846858  0
H  H49  1  0.47860929  0.17284176  0.72497738  1  0.625721  0  0.356708  0.433996  0  0.846821  0
H  H50  1  0.02139631  0.67283775  0.22497456  1  0.625967  0  0.356667  0.433911  0  0.846943  0
H  H51  1  0.97859642  0.32715231  0.77502389  1  0.625875  0  0.356759  0.434113  0  0.846743  0
C  C52  1  0.52246528  0.68486703  0.31319435  1  1.548073  0  0.266689  0.644799  0  4.098079  0
C  C53  1  0.47751693  0.31513127  0.68680716  1  1.548057  0  0.266644  0.644626  0  4.098709  0
C  C54  1  0.02246391  0.81512804  0.18680586  1  1.54806  0  0.26655  0.644763  0  4.098545  0
C  C55  1  0.97752882  0.18486804  0.81319565  1  1.548206  0  0.266595  0.644624  0  4.098688  0
C  C56  1  0.52122115  0.67133340  0.17416789  1  1.681136  0  0.270577  0.714319  0  4.173152  0
C  C57  1  0.47876707  0.32865730  0.82582524  1  1.680396  0  0.270527  0.714077  0  4.173907  0
C  C58  1  0.02120813  0.82865517  0.32582698  1  1.67997  0  0.270536  0.714279  0  4.173766  0
C  C59  1  0.97878912  0.17133745  0.67416882  1  1.680279  0  0.270404  0.714036  0  4.173978  0
C  C60  1  0.84738431  0.00431323  0.53516776  1  -0.011488  0  -0.098829  -0.240495  0  3.978701  0
C  C61  1  0.15262346  0.99567883  0.46483373  1  0.019307  0  -0.098819  -0.240504  0  3.978452  0
C  C62  1  0.34738698  0.49568804  0.96482934  1  0.019772  0  -0.098757  -0.23944  0  3.979581  0
C  C63  1  0.65266742  0.50431734  0.03515322  1  -0.01146  0  -0.099023  -0.240984  0  3.979221  0
C  C64  1  0.01220632  0.04429047  0.54488927  1  0.080104  0  -0.011096  0.043042  0  4.100315  0
C  C65  1  0.98780446  0.95570216  0.45511071  1  0.080242  0  -0.011006  0.043161  0  4.099924  0
C  C66  1  0.51220976  0.45571476  0.95510155  1  0.079316  0  -0.011057  0.04037  0  4.104389  0
C  C67  1  0.48783562  0.54428981  0.04488138  1  0.080391  0  -0.01116  0.043365  0  4.099932  0
C  C68  1  0.17263386  0.04023926  0.50868136  1  0.42991  0  0.093491  0.170564  0  4.091699  0
C  C69  1  0.82737091  0.95975263  0.49131937  1  0.46026  0  0.093398  0.170534  0  4.091814  0
C  C70  1  0.67266208  0.45975997  0.99130520  1  0.459796  0  0.093628  0.171542  0  4.092321  0
C  C71  1  0.32738329  0.54024367  0.00867963  1  0.428859  0  0.093423  0.170379  0  4.091719  0
C  C72  1  0.00436124  0.08866300  0.58970474  1  -0.161365  0  -0.018084  -0.002403  0  4.108587  0
C  C73  1  0.99564051  0.91133148  0.41029144  1  -0.161245  0  -0.018048  -0.002309  0  4.10847  0
C  C74  1  0.50436198  0.41134907  0.91028042  1  -0.159669  0  -0.017926  -0.001433  0  4.109163  0
C  C75  1  0.49568339  0.58865352  0.08970781  1  -0.159781  0  -0.018092  -0.002499  0  4.108467  0
C  C76  1  0.01613666  0.87361030  0.37144894  1  -0.168495  0  -0.045652  -0.226639  0  3.958771  0
C  C77  1  0.98385156  0.12638390  0.62854801  1  -0.168135  0  -0.045658  -0.226576  0  3.959007  0
C  C78  1  0.51617718  0.62637415  0.12854327  1  -0.169638  0  -0.045658  -0.226561  0  3.958884  0
C  C79  1  0.48382909  0.37361825  0.87144113  1  -0.169217  0  -0.045803  -0.226705  0  3.958775  0
C  C80  1  0.14396710  0.11177548  0.85856588  1  -0.013819  0  -0.080781  -0.083159  0  4.000248  0
C  C81  1  0.85602263  0.88822063  0.14143373  1  -0.014477  0  -0.0807  -0.083139  0  3.999995  0
C  C82  1  0.64396940  0.38822345  0.64143747  1  -0.014914  0  -0.08071  -0.083094  0  3.99991  0
C  C83  1  0.35601280  0.61178140  0.35857166  1  -0.013152  0  -0.080755  -0.082978  0  4.000034  0
C  C84  1  0.15319228  0.07457042  0.89454033  1  -0.033954  0  -0.086072  -0.119204  0  3.985366  0
C  C85  1  0.84680496  0.92542728  0.10546042  1  -0.034383  0  -0.08614  -0.119104  0  3.985371  0
C  C86  1  0.65320170  0.42542840  0.60546261  1  -0.034487  0  -0.086116  -0.119174  0  3.985304  0
C  C87  1  0.34677900  0.57458113  0.39454958  1  -0.03716  0  -0.086137  -0.119122  0  3.985297  0
C  C88  1  0.99086219  0.07399411  0.92805059  1  -0.02628  0  -0.004936  0.026644  0  4.016843  0
C  C89  1  0.00913506  0.92600501  0.07195055  1  -0.026076  0  -0.004956  0.026514  0  4.017038  0
C  C90  1  0.49087178  0.42600843  0.57195296  1  -0.026182  0  -0.004916  0.026492  0  4.017238  0
C  C91  1  0.50910892  0.57400669  0.42806039  1  -0.025264  0  -0.00496  0.02661  0  4.017025  0
C  C92  1  0.82371723  0.11135753  0.92473560  1  -0.074932  0  -0.084785  -0.176556  0  3.916353  0
C  C93  1  0.17628302  0.88864179  0.07526857  1  -0.075297  0  -0.08484  -0.17663  0  3.91626  0
C  C94  1  0.32373485  0.38864620  0.57526841  1  -0.074168  0  -0.084816  -0.176467  0  3.916372  0
C  C95  1  0.67624886  0.61136563  0.42473999  1  -0.075304  0  -0.084731  -0.176462  0  3.916383  0
C  C96  1  0.81113024  0.14886141  0.88849338  1  0.042613  0  0.006306  0.173907  0  3.920602  0
C  C97  1  0.18886851  0.85113483  0.11150889  1  0.043063  0  0.006332  0.17403  0  3.920536  0
C  C98  1  0.31113928  0.35114027  0.61150914  1  0.042083  0  0.006325  0.173861  0  3.920663  0
C  C99  1  0.68884442  0.64886795  0.38849697  1  0.042095  0  0.006203  0.173812  0  3.920471  0
C  C100  1  0.97519150  0.14830105  0.85455868  1  -0.037387  0  -0.010923  -0.100155  0  3.904277  0
C  C101  1  0.02479672  0.85169433  0.14544168  1  -0.036703  0  -0.010898  -0.100308  0  3.904326  0
C  C102  1  0.47519287  0.35169888  0.64544490  1  -0.036462  0  -0.010938  -0.100203  0  3.904273  0
C  C103  1  0.52478482  0.64830646  0.35456234  1  -0.037147  0  -0.010865  -0.100267  0  3.90426  0
C  C104  1  0.00429882  0.96526698  0.03362532  1  0.949383  0  0.241564  0.247757  0  3.974045  0
C  C105  1  0.99570143  0.03473178  0.96637620  1  0.949233  0  0.241547  0.247741  0  3.973999  0
C  C106  1  0.50427946  0.53474662  0.46638602  1  0.950304  0  0.241566  0.247712  0  3.97394  0
C  C107  1  0.49569974  0.46527213  0.53362963  1  0.949974  0  0.241532  0.247916  0  3.973643  0
C  C108  1  0.57422320  0.89079383  0.43917386  1  0.257118  0  -0.139025  -0.217359  0  3.98374  0
C  C109  1  0.42578157  0.10919884  0.56082840  1  0.257332  0  -0.139054  -0.217393  0  3.983666  0
C  C110  1  0.07422945  0.60919933  0.06083911  1  0.257271  0  -0.138938  -0.217049  0  3.983229  0
C  C111  1  0.92580389  0.39079624  0.93915176  1  0.256825  0  -0.138908  -0.217079  0  3.983557  0
C  C112  1  0.62902473  0.18883142  0.88883983  1  -0.033098  0  -0.23949  -0.415176  0  3.953062  0
C  C113  1  0.37098154  0.81116940  0.11116511  1  -0.033328  0  -0.239413  -0.414999  0  3.953185  0
C  C114  1  0.12903474  0.31117496  0.61116054  1  -0.033796  0  -0.239378  -0.415034  0  3.953176  0
C  C115  1  0.87094897  0.68883236  0.38884139  1  -0.033407  0  -0.239405  -0.415012  0  3.952791  0
N  N116  1  0.84011734  0.03814132  0.99953791  1  -0.540017  0  -0.15591  -0.147521  0  3.218652  0
N  N117  1  0.15989044  0.96185910  0.00046513  1  -0.540056  0  -0.15597  -0.147518  0  3.218759  0
N  N118  1  0.34011028  0.46186735  0.50047063  1  -0.540778  0  -0.15588  -0.147554  0  3.218644  0
N  N119  1  0.65986891  0.53815323  0.49954730  1  -0.541372  0  -0.155862  -0.147468  0  3.218449  0
N  N120  1  0.84445184  0.00285117  0.03368959  1  -0.55828  0  -0.15278  -0.144589  0  3.215944  0
N  N121  1  0.15555593  0.99714978  0.96631384  1  -0.557952  0  -0.152767  -0.144645  0  3.216009  0
N  N122  1  0.34443619  0.49716422  0.46632339  1  -0.55803  0  -0.152789  -0.144574  0  3.216147  0
N  N123  1  0.65553999  0.50285980  0.53369607  1  -0.557916  0  -0.152959  -0.144823  0  3.215733  0
N  N124  1  0.66191116  0.92189865  0.48672743  1  -1.17735  0  -0.447463  -0.291911  0  3.582004  0
N  N125  1  0.33809361  0.07809199  0.51327368  1  -1.177991  0  -0.447547  -0.291926  0  3.581629  0
N  N126  1  0.16191542  0.57809678  0.01328113  1  -1.177708  0  -0.447544  -0.29199  0  3.581808  0
N  N127  1  0.83812243  0.42190073  0.98670633  1  -1.17775  0  -0.447514  -0.291866  0  3.581742  0
O  O128  1  0.35067995  0.68977224  0.19287947  1  -1.242878  0  -0.230328  -0.591039  0  2.290752  0
O  O129  1  0.64930677  0.31021790  0.80711517  1  -1.242607  0  -0.230397  -0.591016  0  2.290914  0
O  O130  1  0.85068651  0.81022171  0.30710692  1  -1.242479  0  -0.230358  -0.591095  0  2.291081  0
O  O131  1  0.14930923  0.18976831  0.69288925  1  -1.242361  0  -0.230263  -0.590919  0  2.290996  0
O  O132  1  0.69113703  0.69843726  0.29578591  1  -1.254604  0  -0.232913  -0.590028  0  2.380771  0
O  O133  1  0.30884818  0.30155926  0.70421560  1  -1.254862  0  -0.23289  -0.589968  0  2.380964  0
O  O134  1  0.19113499  0.80156791  0.20422488  1  -1.254735  0  -0.232912  -0.590064  0  2.381037  0
O  O135  1  0.80886075  0.19843085  0.79577663  1  -1.25475  0  -0.233  -0.590085  0  2.380861  0
O  O136  1  0.69308885  0.68900625  0.19223134  1  -1.244497  0  -0.23143  -0.587526  0  2.281326  0
O  O137  1  0.30690389  0.31098340  0.80776520  1  -1.244682  0  -0.231424  -0.587396  0  2.28144  0
O  O138  1  0.19308346  0.81097442  0.30777138  1  -1.244182  0  -0.231497  -0.58754  0  2.281425  0
O  O139  1  0.80691529  0.18901771  0.69222631  1  -1.24433  0  -0.231412  -0.587429  0  2.281326  0
O  O140  1  0.85050538  0.80147616  0.20273269  1  -1.254247  0  -0.239263  -0.601771  0  2.348391  0
O  O141  1  0.14948585  0.19851805  0.79726843  1  -1.254524  0  -0.239277  -0.60175  0  2.348577  0
O  O142  1  0.35050460  0.69850314  0.29725403  1  -1.254634  0  -0.239436  -0.601829  0  2.34832  0
O  O143  1  0.64947760  0.30149042  0.70274405  1  -1.254338  0  -0.239425  -0.601835  0  2.348598  0
O  O144  1  0.52133732  0.78710785  0.25382244  1  -1.42698  0  -0.447257  -0.989949  0  2.203032  0
O  O145  1  0.47865391  0.21288192  0.74617258  1  -1.427402  0  -0.447332  -0.990022  0  2.202863  0
O  O146  1  0.02134165  0.71287800  0.24617014  1  -1.427485  0  -0.447308  -0.989822  0  2.202947  0
O  O147  1  0.97864657  0.28711336  0.75382604  1  -1.427388  0  -0.447353  -0.990198  0  2.202935  0
