# generated using pymatgen
data_Zn4H20C44O29
_symmetry_space_group_name_H-M   'P 1'
_cell_length_a   23.66991559
_cell_length_b   23.67191860
_cell_length_c   23.67036468
_cell_angle_alpha   65.67188797
_cell_angle_beta   72.90866428
_cell_angle_gamma   107.10131729
_symmetry_Int_Tables_number   1
_chemical_formula_structural   Zn4H20C44O29
_chemical_formula_sum   'Zn8 H40 C88 O58'
_cell_volume   10154.78159422
_cell_formula_units_Z   2
loop_
 _symmetry_equiv_pos_site_id
 _symmetry_equiv_pos_as_xyz
  1  'x, y, z'
loop_
 _atom_site_type_symbol
 _atom_site_label
 _atom_site_symmetry_multiplicity
 _atom_site_fract_x
 _atom_site_fract_y
 _atom_site_fract_z
 _atom_site_occupancy
 _atom_site_pbe_bader_charge
 _atom_site_pbe_bader_spin_density
 _atom_site_pbe_cm5_charge
 _atom_site_pbe_ddec_charge
 _atom_site_pbe_ddec_spin_density
 _atom_site_pbe_ddec_sum_bond_order
 _atom_site_pbe_magmom
Zn  Zn0  1  0.05809896  0.95795423  0.48559024  1  1.324658  0  0.686897  0.977884  0  2.338428  0
Zn  Zn1  1  0.05810787  0.10013688  0.45632620  1  1.322354  0  0.686777  0.977816  0  2.338491  0
Zn  Zn2  1  0.94188682  0.98557493  0.45795918  1  1.324954  0  0.686904  0.977826  0  2.338489  0
Zn  Zn3  1  0.94189124  0.95632267  0.60013952  1  1.322567  0  0.686789  0.977851  0  2.338486  0
Zn  Zn4  1  0.94353561  0.54367822  0.01442304  1  1.32377  0  0.686783  0.977823  0  2.338645  0
Zn  Zn5  1  0.05646695  0.51442675  0.04368857  1  1.323693  0  0.686898  0.977952  0  2.338269  0
Zn  Zn6  1  0.94353335  0.39986137  0.04203956  1  1.323452  0  0.686773  0.977728  0  2.338662  0
Zn  Zn7  1  0.05645766  0.54203427  0.89986460  1  1.32349  0  0.686777  0.977721  0  2.338623  0
H  H8  1  0.91575813  0.70762524  0.18457998  1  0.088488  0  0.11574  0.145635  0  0.977076  0
H  H9  1  0.08423807  0.68458193  0.20765194  1  0.087632  0  0.115692  0.145573  0  0.977017  0
H  H10  1  0.95542492  0.86078499  0.25115014  1  0.09201  0  0.115001  0.144596  0  0.977663  0
H  H11  1  0.04453631  0.75110231  0.36084836  1  0.094766  0  0.115078  0.144817  0  0.977267  0
H  H12  1  0.08425460  0.39964116  0.70815606  1  0.120059  0  0.115639  0.145391  0  0.977238  0
H  H13  1  0.91576292  0.20814065  0.89964780  1  0.11994  0  0.115722  0.145591  0  0.977315  0
H  H14  1  0.04450350  0.29341335  0.59464882  1  0.121865  0  0.115068  0.144848  0  0.977395  0
H  H15  1  0.95546173  0.09463814  0.79342458  1  0.123329  0  0.115017  0.144683  0  0.977515  0
H  H16  1  0.61193054  0.40536533  0.13914874  1  0.109229  0  0.115029  0.144759  0  0.97732  0
H  H17  1  0.61194497  0.20658974  0.24886477  1  0.097743  0  0.115099  0.144767  0  0.977576  0
H  H18  1  0.39222240  0.29183980  0.29235597  1  0.084561  0  0.115691  0.145608  0  0.977093  0
H  H19  1  0.39220425  0.10033177  0.31535702  1  0.08967  0  0.115724  0.145565  0  0.977097  0
H  H20  1  0.38807546  0.63915441  0.90537761  1  0.108853  0  0.115028  0.144767  0  0.977221  0
H  H21  1  0.38803562  0.74883800  0.70660443  1  0.097858  0  0.115099  0.144708  0  0.977719  0
H  H22  1  0.60777799  0.79233133  0.79185234  1  0.084539  0  0.115692  0.145593  0  0.97699  0
H  H23  1  0.60777420  0.81538575  0.60032109  1  0.089757  0  0.115706  0.145586  0  0.976918  0
H  H24  1  0.83596871  0.73540739  0.81467850  1  0.612575  0  0.354128  0.392348  0  0.836437  0
H  H25  1  0.05008141  0.65069049  0.68527163  1  0.623291  0  0.354003  0.391944  0  0.836607  0
H  H26  1  0.94990927  0.76459966  0.89942761  1  0.610145  0  0.354148  0.392306  0  0.836601  0
H  H27  1  0.16403935  0.84934007  0.60061499  1  0.609274  0  0.354232  0.392249  0  0.836205  0
H  H28  1  0.83598137  0.10060715  0.34930488  1  0.610561  0  0.35405  0.392162  0  0.836521  0
H  H29  1  0.05007140  0.39938239  0.26465051  1  0.609594  0  0.354017  0.391951  0  0.836571  0
H  H30  1  0.94990369  0.18530418  0.15064696  1  0.624069  0  0.354072  0.392241  0  0.836577  0
H  H31  1  0.16405403  0.31471207  0.23538323  1  0.612052  0  0.353959  0.392053  0  0.836672  0
H  H32  1  0.90957570  0.61633882  0.09930800  1  0.642548  0  0.309471  0.357816  0  0.9598  0
H  H33  1  0.09040952  0.59928942  0.11638553  1  0.642644  0  0.309424  0.357741  0  0.960155  0
H  H34  1  0.95494606  0.95427996  0.33367567  1  0.653966  0  0.307777  0.35895  0  0.959595  0
H  H35  1  0.04497946  0.83360003  0.45437669  1  0.653809  0  0.307666  0.35872  0  0.960037  0
H  H36  1  0.09044680  0.49109024  0.79326059  1  0.644342  0  0.30942  0.360512  0  0.955408  0
H  H37  1  0.90959412  0.29323839  0.99110866  1  0.639398  0  0.30945  0.360716  0  0.955259  0
H  H38  1  0.04497015  0.21136989  0.50066680  1  0.654162  0  0.307594  0.362408  0  0.954294  0
H  H39  1  0.95499122  0.00067395  0.71136592  1  0.653933  0  0.307726  0.362507  0  0.954036  0
H  H40  1  0.78795338  0.49933412  0.04566494  1  0.653206  0  0.307789  0.362588  0  0.954165  0
H  H41  1  0.78796906  0.28863956  0.16637545  1  0.653544  0  0.307636  0.358697  0  0.960077  0
H  H42  1  0.21566747  0.20675451  0.38363777  1  0.656131  0  0.309464  0.357744  0  0.960348  0
H  H43  1  0.21564765  0.00888698  0.40065071  1  0.637574  0  0.309447  0.360537  0  0.955434  0
H  H44  1  0.21205336  0.54567625  0.99935725  1  0.653536  0  0.307797  0.362665  0  0.954165  0
H  H45  1  0.21201467  0.66635563  0.78865908  1  0.653207  0  0.307657  0.35879  0  0.960142  0
H  H46  1  0.78433702  0.88362844  0.70676499  1  0.656102  0  0.309411  0.357745  0  0.960265  0
H  H47  1  0.78433429  0.90069759  0.50887236  1  0.629187  0  0.30936  0.360542  0  0.955569  0
C  C48  1  0.18526494  0.09261914  0.40735889  1  1.394193  0  0.218837  0.624069  0  4.136832  0
C  C49  1  0.00000509  0.13732343  0.36264242  1  1.56447  0  0.233866  0.612361  0  4.152917  0
C  C50  1  0.99996568  0.90937127  0.40943733  1  1.401275  0  0.216203  0.620281  0  4.136646  0
C  C51  1  0.81472553  0.90736671  0.59262132  1  1.393765  0  0.218762  0.623997  0  4.137152  0
C  C52  1  0.00001278  0.86267765  0.63734633  1  1.565055  0  0.233774  0.612142  0  4.153369  0
C  C53  1  0.99998862  0.09059944  0.59059775  1  1.406918  0  0.216218  0.620974  0  4.136707  0
C  C54  1  0.99999754  0.59262493  0.09264581  1  1.412996  0  0.21889  0.62483  0  4.136653  0
C  C55  1  0.00002540  0.36267597  0.13732888  1  1.560533  0  0.233816  0.611676  0  4.153057  0
C  C56  1  0.81880090  0.40940781  0.09059874  1  1.412682  0  0.216253  0.620937  0  4.136533  0
C  C57  1  0.00000932  0.40736426  0.90737591  1  1.414588  0  0.218855  0.624467  0  4.136517  0
C  C58  1  0.99998517  0.63732353  0.86266306  1  1.560475  0  0.233804  0.611703  0  4.153025  0
C  C59  1  0.18119246  0.59060102  0.90942752  1  1.411207  0  0.216336  0.621033  0  4.136282  0
C  C60  1  0.00000349  0.80441317  0.69560298  1  0.078246  0  0.004447  -0.037833  0  3.907205  0
C  C61  1  0.99999088  0.69558549  0.80440722  1  0.055779  0  0.004553  -0.035942  0  3.90421  0
C  C62  1  0.95741360  0.77812775  0.76608180  1  -0.057532  0  -9.4e-05  -0.084974  0  3.961214  0
C  C63  1  0.04419744  0.72348809  0.73392805  1  0.033236  0  0.000107  -0.085083  0  3.960934  0
C  C64  1  0.95579001  0.72186592  0.82071687  1  -0.013242  0  9e-06  -0.085379  0  3.96063  0
C  C65  1  0.04258786  0.77651730  0.67929294  1  -0.03232  0  0.000146  -0.085105  0  3.961929  0
C  C66  1  0.00001541  0.19559051  0.30438779  1  0.078172  0  0.004509  -0.037692  0  3.906975  0
C  C67  1  0.00001620  0.30440948  0.19558463  1  0.055257  0  0.004574  -0.035825  0  3.904235  0
C  C68  1  0.95742286  0.17929267  0.27648573  1  -0.031839  0  0.000114  -0.085116  0  3.962067  0
C  C69  1  0.04421666  0.32070758  0.22187846  1  -0.06395  0  2e-05  -0.08518  0  3.96063  0
C  C70  1  0.95581058  0.23393722  0.22346799  1  0.03394  0  -4.6e-05  -0.085337  0  3.961053  0
C  C71  1  0.04259813  0.26606257  0.27812716  1  -0.007951  0  -9.2e-05  -0.085015  0  3.961293  0
C  C72  1  0.99999668  0.62902956  0.12905196  1  -0.009944  0  -0.058522  -0.348115  0  3.970643  0
C  C73  1  0.95170918  0.65352584  0.14177162  1  0.534508  0  0.096718  0.3509  0  4.076738  0
C  C74  1  0.95254821  0.68915955  0.17609587  1  0.070903  0  -0.11057  -0.293615  0  3.917493  0
C  C75  1  0.00000003  0.70010184  0.20011155  1  0.111675  0  0.012693  0.202042  0  4.160925  0
C  C76  1  0.04745198  0.67609450  0.18917527  1  0.070749  0  -0.110561  -0.29365  0  3.91724  0
C  C77  1  0.04828226  0.64175772  0.15355360  1  0.534583  0  0.096842  0.351284  0  4.076297  0
C  C78  1  0.99999991  0.73569376  0.23570190  1  -0.169641  0  -0.030421  -0.09166  0  4.070315  0
C  C79  1  0.99999733  0.76635550  0.26637377  1  -0.207853  0  -0.028116  -0.081305  0  4.062592  0
C  C80  1  0.99997730  0.80194035  0.30200083  1  0.070619  0  0.012391  0.199314  0  4.160983  0
C  C81  1  0.97477538  0.85019545  0.28863561  1  0.061552  0  -0.110764  -0.29327  0  3.916555  0
C  C82  1  0.97502846  0.88587667  0.32295349  1  0.538234  0  0.098972  0.354636  0  4.064912  0
C  C83  1  0.99995900  0.87300746  0.37309511  1  0.017452  0  -0.055879  -0.340454  0  3.957365  0
C  C84  1  0.02489506  0.82287472  0.38597023  1  0.530751  0  0.099177  0.354642  0  4.065272  0
C  C85  1  0.02516943  0.78857193  0.35027109  1  0.06043  0  -0.110767  -0.293435  0  3.916435  0
C  C86  1  0.00001659  0.37095492  0.87097440  1  0.006219  0  -0.0585  -0.347871  0  3.970726  0
C  C87  1  0.04830491  0.40650351  0.79820107  1  0.504291  0  0.096717  0.350853  0  4.077487  0
C  C88  1  0.04746459  0.37134265  0.76340703  1  0.000427  0  -0.110482  -0.293377  0  3.917394  0
C  C89  1  0.00000679  0.29988896  0.79990492  1  0.213338  0  0.012612  0.202186  0  4.161255  0
C  C90  1  0.95255322  0.26338919  0.87135546  1  0.000338  0  -0.110561  -0.293612  0  3.917612  0
C  C91  1  0.95172305  0.29817687  0.90652593  1  0.515413  0  0.096705  0.350864  0  4.076816  0
C  C92  1  0.00000273  0.26430811  0.76431427  1  -0.170459  0  -0.030327  -0.091604  0  4.069882  0
C  C93  1  0.99999105  0.23362999  0.73364139  1  -0.209652  0  -0.02816  -0.081494  0  4.062279  0
C  C94  1  0.99997690  0.19802757  0.69803964  1  0.069694  0  0.012342  0.199054  0  4.16128  0
C  C95  1  0.02515286  0.23658336  0.62458519  1  0.033724  0  -0.11078  -0.293277  0  3.916392  0
C  C96  1  0.02489150  0.20201146  0.58915437  1  0.556401  0  0.099101  0.354763  0  4.065882  0
C  C97  1  0.99997722  0.12695085  0.62695206  1  -0.022369  0  -0.055842  -0.340783  0  3.957589  0
C  C98  1  0.97506008  0.08915177  0.70201381  1  0.556183  0  0.099032  0.354748  0  4.065482  0
C  C99  1  0.97480131  0.12457516  0.73659509  1  0.03218  0  -0.110692  -0.293091  0  3.915915  0
C  C100  1  0.74609693  0.37305404  0.12694288  1  0.054444  0  -0.05596  -0.341186  0  3.957935  0
C  C101  1  0.70883090  0.41085386  0.11405822  1  0.450391  0  0.099176  0.35503  0  4.065564  0
C  C102  1  0.63882576  0.37542810  0.14973796  1  0.112974  0  -0.110743  -0.293253  0  3.916113  0
C  C103  1  0.60393446  0.30197550  0.19801299  1  0.049964  0  0.012423  0.199184  0  4.161095  0
C  C104  1  0.63883557  0.26342050  0.21138600  1  0.049219  0  -0.110835  -0.293361  0  3.916516  0
C  C105  1  0.70883677  0.29799403  0.17708069  1  0.52584  0  0.099007  0.354875  0  4.065019  0
C  C106  1  0.53272747  0.26636719  0.23362143  1  -0.128035  0  -0.028296  -0.081694  0  4.062287  0
C  C107  1  0.47138598  0.23568101  0.26428344  1  -0.243275  0  -0.030303  -0.091467  0  4.070057  0
C  C108  1  0.40020974  0.20008477  0.29986263  1  0.139252  0  0.012739  0.202425  0  4.161126  0
C  C109  1  0.36526177  0.23658892  0.31082397  1  0.101268  0  -0.110583  -0.293863  0  3.917488  0
C  C110  1  0.29530555  0.20180388  0.34644548  1  0.491234  0  0.09678  0.35081  0  4.076143  0
C  C111  1  0.25807621  0.12902781  0.37093146  1  0.030327  0  -0.058531  -0.346966  0  3.96955  0
C  C112  1  0.29529570  0.09347229  0.35818644  1  0.56367  0  0.096654  0.350751  0  4.077543  0
C  C113  1  0.36525387  0.12863330  0.32385280  1  0.027304  0  -0.110537  -0.293738  0  3.917369  0
C  C114  1  0.25389627  0.62694262  0.87307356  1  0.055423  0  -0.055787  -0.340864  0  3.957317  0
C  C115  1  0.29116924  0.61406306  0.91087287  1  0.449998  0  0.09918  0.354914  0  4.065195  0
C  C116  1  0.36117264  0.64973756  0.87544220  1  0.113732  0  -0.110802  -0.293427  0  3.915893  0
C  C117  1  0.39605830  0.69799978  0.80198897  1  0.049106  0  0.012389  0.199243  0  4.161026  0
C  C118  1  0.36115034  0.71136585  0.76343458  1  0.049631  0  -0.110705  -0.293161  0  3.916657  0
C  C119  1  0.29115080  0.67706847  0.79801067  1  0.526566  0  0.098933  0.354803  0  4.064975  0
C  C120  1  0.46726798  0.73360979  0.76637355  1  -0.128392  0  -0.028367  -0.081806  0  4.062655  0
C  C121  1  0.52860465  0.76427511  0.73568127  1  -0.24101  0  -0.030257  -0.091326  0  4.07037  0
C  C122  1  0.59978397  0.79986410  0.70008127  1  0.138376  0  0.012661  0.202273  0  4.161037  0
C  C123  1  0.63473566  0.81081500  0.73659465  1  0.101249  0  -0.110526  -0.293798  0  3.917158  0
C  C124  1  0.70469222  0.84644524  0.70180715  1  0.491005  0  0.096792  0.350842  0  4.076026  0
C  C125  1  0.74191378  0.87094831  0.62902452  1  0.03065  0  -0.058582  -0.346946  0  3.969251  0
C  C126  1  0.70469229  0.85821936  0.59345931  1  0.555499  0  0.096875  0.350922  0  4.077219  0
C  C127  1  0.63473122  0.82387770  0.62862273  1  0.034329  0  -0.110514  -0.293657  0  3.917203  0
C  C128  1  0.91854328  0.81439286  0.78386176  1  1.585137  0  0.228699  0.563574  0  4.192532  0
C  C129  1  0.09823312  0.70238451  0.71615294  1  1.58253  0  0.228731  0.563656  0  4.192841  0
C  C130  1  0.90174947  0.68559990  0.89585073  1  1.589652  0  0.228701  0.563574  0  4.192723  0
C  C131  1  0.08147363  0.79762660  0.60415336  1  1.589027  0  0.228664  0.563488  0  4.192977  0
C  C132  1  0.91854083  0.10416458  0.29757301  1  1.589596  0  0.228603  0.563445  0  4.193417  0
C  C133  1  0.09824973  0.39583572  0.18564267  1  1.590268  0  0.228573  0.563217  0  4.193657  0
C  C134  1  0.90176715  0.21617440  0.20235848  1  1.579455  0  0.228763  0.563604  0  4.192568  0
C  C135  1  0.08147567  0.28382826  0.31440110  1  1.585827  0  0.228842  0.563591  0  4.192545  0
O  O136  1  0.99999565  0.99999737  0.50000307  1  -1.233845  0  -0.577685  -1.034842  0  2.559357  0
O  O137  1  0.15348905  0.02837938  0.42425598  1  -1.183558  0  -0.315489  -0.562806  0  2.366474  0
O  O138  1  0.05284030  0.15257242  0.36936228  1  -1.158573  0  -0.298543  -0.531912  0  2.353571  0
O  O139  1  0.97462812  0.95230607  0.39842196  1  -1.187116  0  -0.317673  -0.565283  0  2.361486  0
O  O140  1  0.15350096  0.12509187  0.42225593  1  -1.179723  0  -0.315553  -0.561642  0  2.366475  0
O  O141  1  0.02532071  0.89837484  0.45236879  1  -1.186811  0  -0.317506  -0.565196  0  2.361616  0
O  O142  1  0.94718229  0.07779698  0.40019582  1  -1.152385  0  -0.29819  -0.531611  0  2.354578  0
O  O143  1  0.84649403  0.92427137  0.52837793  1  -1.183194  0  -0.315421  -0.562758  0  2.36674  0
O  O144  1  0.94718173  0.86939269  0.65260355  1  -1.157769  0  -0.298341  -0.531753  0  2.354142  0
O  O145  1  0.84649556  0.92224376  0.62510266  1  -1.179499  0  -0.315523  -0.561633  0  2.366519  0
O  O146  1  0.05283531  0.90024492  0.57781771  1  -1.153711  0  -0.298351  -0.53158  0  2.35425  0
O  O147  1  0.02533926  0.12694588  0.52232134  1  -1.188262  0  -0.317582  -0.566921  0  2.361334  0
O  O148  1  0.97465078  0.02232825  0.62694152  1  -1.188557  0  -0.317589  -0.566944  0  2.361291  0
O  O149  1  0.00000049  0.50000042  0.00000339  1  -1.235406  0  -0.577665  -1.0348  0  2.55938  0
O  O150  1  0.95264856  0.57775197  0.07574261  1  -1.177314  0  -0.315525  -0.561923  0  2.366673  0
O  O151  1  0.02199278  0.42220256  0.13062724  1  -1.154488  0  -0.298305  -0.531713  0  2.354753  0
O  O152  1  0.85073436  0.37306210  0.10160460  1  -1.188114  0  -0.317602  -0.565387  0  2.361249  0
O  O153  1  0.04735076  0.57573693  0.07777080  1  -1.177615  0  -0.315471  -0.561644  0  2.366482  0
O  O154  1  0.85072484  0.47767862  0.04767072  1  -1.1922  0  -0.317583  -0.566925  0  2.361579  0
O  O155  1  0.97805407  0.34742163  0.09974789  1  -1.154483  0  -0.298436  -0.531832  0  2.353993  0
O  O156  1  0.95264107  0.37489955  0.97160817  1  -1.179305  0  -0.315502  -0.562847  0  2.365849  0
O  O157  1  0.02195269  0.59975101  0.84739976  1  -1.154763  0  -0.298605  -0.53196  0  2.353827  0
O  O158  1  0.04736272  0.47160154  0.87491018  1  -1.180132  0  -0.315434  -0.56276  0  2.366157  0
O  O159  1  0.97802107  0.63060917  0.92219774  1  -1.154509  0  -0.298152  -0.531546  0  2.354851  0
O  O160  1  0.14927438  0.54767778  0.97769877  1  -1.192216  0  -0.317607  -0.567002  0  2.36142  0
O  O161  1  0.14925605  0.60160627  0.87308018  1  -1.18801  0  -0.317694  -0.565496  0  2.361202  0
O  O162  1  0.85098456  0.77962641  0.81275055  1  -1.092515  0  -0.314289  -0.441961  0  2.211432  0
O  O163  1  0.94705195  0.87076053  0.77659464  1  -1.099196  0  -0.267203  -0.431075  0  2.068655  0
O  O164  1  0.09236340  0.66374972  0.68722621  1  -1.098634  0  -0.314154  -0.441601  0  2.211743  0
O  O165  1  0.14732517  0.72358933  0.72345239  1  -1.099202  0  -0.267282  -0.43136  0  2.068669  0
O  O166  1  0.90762510  0.72037471  0.92863669  1  -1.088263  0  -0.314264  -0.44191  0  2.21166  0
O  O167  1  0.85265403  0.62922591  0.92371576  1  -1.099709  0  -0.267243  -0.431112  0  2.068621  0
O  O168  1  0.14903406  0.83627872  0.57139059  1  -1.091617  0  -0.314421  -0.441816  0  2.211272  0
O  O169  1  0.05297803  0.77641184  0.57626645  1  -1.09822  0  -0.267122  -0.431149  0  2.068857  0
O  O170  1  0.85098162  0.07139726  0.33621781  1  -1.092708  0  -0.314345  -0.441853  0  2.211565  0
O  O171  1  0.94703390  0.07629082  0.27634390  1  -1.09944  0  -0.267136  -0.431156  0  2.068926  0
O  O172  1  0.09236758  0.42859449  0.22044328  1  -1.088527  0  -0.314185  -0.441557  0  2.212  0
O  O173  1  0.14735359  0.42371706  0.12927441  1  -1.099296  0  -0.267111  -0.43092  0  2.069007  0
O  O174  1  0.90762466  0.18726207  0.16370843  1  -1.098667  0  -0.314169  -0.441787  0  2.211561  0
O  O175  1  0.85268248  0.22347426  0.22357003  1  -1.09679  0  -0.267222  -0.431282  0  2.068785  0
O  O176  1  0.14903866  0.31274761  0.27962271  1  -1.092344  0  -0.314146  -0.441707  0  2.211748  0
O  O177  1  0.05297098  0.27652629  0.37078711  1  -1.099044  0  -0.267193  -0.430953  0  2.068769  0
O  O178  1  0.90430548  0.64377649  0.12102899  1  -1.147219  0  -0.351094  -0.434065  0  2.241584  0
O  O179  1  0.09567795  0.62100715  0.14382834  1  -1.146884  0  -0.351102  -0.434231  0  2.241842  0
O  O180  1  0.95171170  0.93258737  0.30599000  1  -1.146492  0  -0.346384  -0.429375  0  2.265705  0
O  O181  1  0.04821044  0.80591443  0.43268713  1  -1.145979  0  -0.346428  -0.429191  0  2.266379  0
O  O182  1  0.09571496  0.47463902  0.76055344  1  -1.13774  0  -0.35106  -0.435752  0  2.238864  0
O  O183  1  0.90432440  0.26052654  0.97466201  1  -1.142767  0  -0.351083  -0.435987  0  2.238615  0
O  O184  1  0.04819075  0.24228297  0.51913184  1  -1.149061  0  -0.346295  -0.431895  0  2.261531  0
O  O185  1  0.95175875  0.01913005  0.74228600  1  -1.149094  0  -0.346451  -0.431996  0  2.261208  0
O  O186  1  0.73857690  0.48087514  0.06734579  1  -1.15125  0  -0.346547  -0.432125  0  2.261308  0
O  O187  1  0.73859222  0.25772346  0.19405590  1  -1.149493  0  -0.346271  -0.429146  0  2.265953  0
O  O188  1  0.26482524  0.23945897  0.35619328  1  -1.158836  0  -0.351048  -0.434078  0  2.241967  0
O  O189  1  0.26480654  0.02533677  0.37891643  1  -1.141936  0  -0.351056  -0.435894  0  2.23941  0
O  O190  1  0.26142990  0.56735677  0.98089589  1  -1.15158  0  -0.346603  -0.432164  0  2.261454  0
O  O191  1  0.26139053  0.69403418  0.75774051  1  -1.149503  0  -0.346386  -0.429404  0  2.266283  0
O  O192  1  0.73517843  0.85618005  0.73946846  1  -1.158737  0  -0.351076  -0.434173  0  2.241877  0
O  O193  1  0.73517331  0.87896379  0.52531966  1  -1.133717  0  -0.351001  -0.435996  0  2.239446  0
