# generated using pymatgen
data_CuH10C10(N5O3)2
_symmetry_space_group_name_H-M   'P 1'
_cell_length_a   8.10383820
_cell_length_b   8.10384200
_cell_length_c   12.00713543
_cell_angle_alpha   90.00013743
_cell_angle_beta   90.00020462
_cell_angle_gamma   105.43817734
_symmetry_Int_Tables_number   1
_chemical_formula_structural   CuH10C10(N5O3)2
_chemical_formula_sum   'Cu2 H20 C20 N20 O12'
_cell_volume   760.08355362
_cell_formula_units_Z   2
loop_
 _symmetry_equiv_pos_site_id
 _symmetry_equiv_pos_as_xyz
  1  'x, y, z'
loop_
 _atom_site_type_symbol
 _atom_site_label
 _atom_site_symmetry_multiplicity
 _atom_site_fract_x
 _atom_site_fract_y
 _atom_site_fract_z
 _atom_site_occupancy
 _atom_site_hle17_ddec_charge
 _atom_site_hle17_ddec_spin_density
 _atom_site_hle17_ddec_sum_bond_order
 _atom_site_hle17_magmom
 _atom_site_hse06_10hf_bader_charge
 _atom_site_hse06_10hf_bader_spin_density
 _atom_site_hse06_10hf_ddec_charge
 _atom_site_hse06_10hf_ddec_spin_density
 _atom_site_hse06_10hf_ddec_sum_bond_order
 _atom_site_hse06_10hf_magmom
 _atom_site_hse06_ddec_charge
 _atom_site_hse06_ddec_spin_density
 _atom_site_hse06_ddec_sum_bond_order
 _atom_site_hse06_magmom
 _atom_site_pbe_cm5_charge
 _atom_site_pbe_ddec_charge
 _atom_site_pbe_ddec_spin_density
 _atom_site_pbe_ddec_sum_bond_order
 _atom_site_pbe_magmom
Cu  Cu0  1  0.76021201  0.76021177  0.63683119  1  0.866885  0.693212  1.875472  0.524  1.140812  0.648362  0.857943  0.787243  2.265104  0.645  0.947823  0.850384  2.195044  0.73  0.755322  0.80258  0.741379  2.312555  0.589
Cu  Cu1  1  0.23978566  0.23978607  0.13683495  1  0.866692  0.693216  1.875744  0.524  1.140867  0.648365  0.857998  0.787241  2.265019  0.645  0.947667  0.850377  2.195257  0.73  0.755332  0.802649  0.741366  2.312508  0.589
H  H2  1  0.61452056  0.81136742  0.18722424  1  0.093754  9e-06  0.940937  0.0  0.143169  2e-06  0.095056  3e-06  1.011045  0.0  0.099124  2e-06  1.007567  0.0  0.120598  0.092014  9e-06  1.013809  0.0
H  H3  1  0.38547678  0.18862813  0.68722781  1  0.093939  4e-06  0.940829  0.0  0.143132  2e-06  0.095228  3e-06  1.010935  0.0  0.0993  2e-06  1.007459  0.0  0.120654  0.092174  9e-06  1.013693  0.0
H  H4  1  0.18862814  0.38547754  0.68722940  1  0.093906  5e-06  0.940847  0.0  0.143117  2e-06  0.095197  3e-06  1.010959  0.0  0.099266  3e-06  1.007479  0.0  0.120637  0.092142  9e-06  1.013717  0.0
H  H5  1  0.81136673  0.61451800  0.18722265  1  0.093834  8e-06  0.940844  0.0  0.143185  2e-06  0.095103  2e-06  1.010986  0.0  0.099181  2e-06  1.007509  0.0  0.120591  0.092056  9e-06  1.013757  0.0
H  H6  1  0.73414831  0.37070693  0.93317464  1  0.135172  -0.000499  0.911241  0.0  0.166562  -3.9e-05  0.145681  -9.3e-05  0.972595  0.0  0.147531  -0.000103  0.972016  0.0  0.128538  0.144322  -6.5e-05  0.973162  0.0
H  H7  1  0.26584922  0.62929377  0.43317242  1  0.135179  -0.000504  0.911266  0.0  0.166563  -3.9e-05  0.14566  -9.3e-05  0.972613  0.0  0.147508  -0.000103  0.972035  0.0  0.128541  0.144312  -6.4e-05  0.973177  0.0
H  H8  1  0.62929143  0.26584617  0.43317257  1  0.135246  -0.000497  0.911235  0.0  0.16654  -3.9e-05  0.145726  -9.3e-05  0.972615  0.0  0.147573  -0.000103  0.972042  0.0  0.128566  0.144401  -6.4e-05  0.973153  0.0
H  H9  1  0.37071070  0.73415327  0.93317449  1  0.135207  -0.00049  0.911196  0.0  0.166527  -3.9e-05  0.145698  -9.3e-05  0.972598  0.0  0.147546  -0.000103  0.97202  0.0  0.128534  0.144356  -6.5e-05  0.973137  0.0
H  H10  1  0.76512521  0.20680116  0.02168819  1  0.125431  -0.000761  0.983121  -0.001  0.172665  -0.000197  0.124616  -0.000166  1.064795  0.0  0.127337  -0.000142  1.062962  0.0  0.124996  0.122643  -0.000165  1.066232  0.0
H  H11  1  0.23487573  0.79319736  0.52168822  1  0.125424  -0.000769  0.983188  -0.001  0.172668  -0.000197  0.124638  -0.000166  1.064791  0.0  0.127358  -0.000142  1.062958  0.0  0.125019  0.12267  -0.000165  1.066227  0.0
H  H12  1  0.79319895  0.23487190  0.52168844  1  0.125387  -0.000756  0.983178  -0.001  0.172658  -0.000197  0.124633  -0.000166  1.064775  0.0  0.127354  -0.000142  1.06294  0.0  0.124995  0.122663  -0.000165  1.066215  0.0
H  H13  1  0.20680457  0.76513175  0.02168964  1  0.125354  -0.00076  0.983252  -0.001  0.172602  -0.000197  0.124664  -0.000166  1.0648  0.0  0.127387  -0.000142  1.062964  0.0  0.125001  0.122685  -0.000165  1.06624  0.0
H  H14  1  0.80232363  0.92363473  0.45766958  1  0.397515  -0.000103  0.924777  0.0  0.649514  -7e-06  0.369961  -0.000118  0.985791  0.0  0.381915  -0.000143  0.968608  0.0  0.271259  0.36166  -7e-05  0.997682  0.0
H  H15  1  0.19767619  0.07636483  0.95767085  1  0.397551  -0.000103  0.924735  0.0  0.649662  -7e-06  0.369994  -0.000118  0.985752  0.0  0.381951  -0.000143  0.968563  0.0  0.271291  0.361689  -7.1e-05  0.997647  0.0
H  H16  1  0.07636710  0.19768035  0.95766997  1  0.397512  -0.000103  0.924782  0.0  0.649492  -7e-06  0.369965  -0.000118  0.98578  0.0  0.381922  -0.000143  0.968591  0.0  0.271265  0.361658  -7.1e-05  0.997677  0.0
H  H17  1  0.92363373  0.80232305  0.45766879  1  0.397534  -0.000103  0.924765  0.0  0.649508  -7e-06  0.369981  -0.000118  0.985771  0.0  0.381933  -0.000143  0.968591  0.0  0.271268  0.361678  -7e-05  0.997664  0.0
H  H18  1  0.46307718  0.58363736  0.73992772  1  0.407435  -0.000145  0.876731  0.0  0.618347  6e-06  0.375674  -0.00012  0.957455  0.0  0.385052  -0.000132  0.943264  0.0  0.290825  0.369008  -9e-05  0.967573  0.0
H  H19  1  0.53692275  0.41636232  0.23992915  1  0.407451  -0.000144  0.876729  0.0  0.618363  6e-06  0.37569  -0.00012  0.957439  0.0  0.385069  -0.000132  0.943244  0.0  0.290834  0.369025  -9.1e-05  0.967555  0.0
H  H20  1  0.41636367  0.53692307  0.23992827  1  0.407453  -0.000144  0.876721  0.0  0.61836  6e-06  0.375694  -0.00012  0.95743  0.0  0.385072  -0.000132  0.943236  0.0  0.290832  0.369031  -9.1e-05  0.967544  0.0
H  H21  1  0.58363783  0.46307789  0.73992694  1  0.40746  -0.000145  0.876768  0.0  0.618321  6e-06  0.375696  -0.00012  0.95744  0.0  0.385074  -0.000132  0.943249  0.0  0.290844  0.36903  -9.1e-05  0.967558  0.0
C  C22  1  0.75958466  0.86953681  0.93132617  1  0.123616  -0.000221  3.72079  0.0  0.741707  9.3e-05  0.1204  -0.000118  3.971015  0.0  0.122045  -0.000166  3.986948  0.0  0.148507  0.118832  -4e-06  3.96099  0.0
C  C23  1  0.24041689  0.13046517  0.43132809  1  0.1237  -0.000173  3.7206  0.0  0.607244  7.7e-05  0.120383  -0.000118  3.970917  0.0  0.122023  -0.000166  3.986851  0.0  0.148503  0.118812  -3e-06  3.960902  0.0
C  C24  1  0.13046623  0.24041993  0.43132721  1  0.123769  -0.00021  3.720606  0.0  0.741693  9.3e-05  0.120505  -0.000118  3.970886  0.0  0.122156  -0.000167  3.986816  0.0  0.148562  0.118929  -3e-06  3.960878  0.0
C  C25  1  0.86953756  0.75958590  0.93132538  1  0.123686  -0.000161  3.720704  0.0  0.607192  7.6e-05  0.120421  -0.000119  3.970962  0.0  0.122065  -0.000166  3.986894  0.0  0.148539  0.118851  -4e-06  3.960938  0.0
C  C26  1  0.68704985  0.79529325  0.11320416  1  0.102264  -0.000474  3.64872  0.0  0.460391  -0.000235  0.076474  -0.000261  3.90847  0.0  0.08004  -0.000346  3.921628  0.0  0.067498  0.073698  -0.000137  3.900364  0.0
C  C27  1  0.31294822  0.20470191  0.61320758  1  0.102089  -0.000403  3.648663  0.0  0.460458  -0.000235  0.076301  -0.000261  3.908417  0.0  0.07986  -0.000345  3.921575  0.0  0.067431  0.073536  -0.000137  3.900281  0.0
C  C28  1  0.20470765  0.31295501  0.61320671  1  0.102227  -0.000458  3.64859  0.0  0.600405  -0.000224  0.07644  -0.000261  3.908339  0.0  0.080004  -0.000348  3.921497  0.0  0.067508  0.073675  -0.000137  3.9002  0.0
C  C29  1  0.79529525  0.68704912  0.11320337  1  0.102163  -0.000418  3.648793  0.0  0.600253  -0.000223  0.076411  -0.00026  3.908526  0.0  0.079961  -0.000345  3.921696  0.0  0.06748  0.073637  -0.000137  3.900417  0.0
C  C30  1  0.68955873  0.23376261  0.95202493  1  -0.180013  0.012622  3.618126  0.014  0.25152  0.009595  -0.256515  0.00664  3.868125  0.008  -0.259524  0.004362  3.874206  0.005  -0.050292  -0.254261  0.008584  3.864137  0.009
C  C31  1  0.31043892  0.76623819  0.45202305  1  -0.180144  0.012642  3.618312  0.014  0.251173  0.009596  -0.256468  0.00664  3.868089  0.008  -0.259476  0.004362  3.87417  0.005  -0.050338  -0.254238  0.008583  3.864129  0.009
C  C32  1  0.76623745  0.31043702  0.45202323  1  -0.18015  0.01262  3.618248  0.014  0.251153  0.009596  -0.256663  0.00664  3.868252  0.008  -0.259669  0.004361  3.874327  0.005  -0.05037  -0.254444  0.008584  3.864275  0.009
C  C33  1  0.23376357  0.68956251  0.95202475  1  -0.180112  0.012614  3.618146  0.014  0.251234  0.009596  -0.256745  0.006641  3.868234  0.008  -0.259754  0.004361  3.874315  0.005  -0.050365  -0.254475  0.008584  3.864194  0.009
C  C34  1  0.49850001  0.18671378  0.98117816  1  0.691858  -0.008027  3.844296  -0.008  1.66493  -0.001023  0.648088  -0.001627  4.162048  -0.002  0.68455  -0.002071  4.155935  -0.002  0.216891  0.623363  -0.001048  4.165296  -0.003
C  C35  1  0.50149806  0.81328334  0.48117348  1  0.691983  -0.008055  3.844191  -0.008  1.665444  -0.00102  0.648  -0.001625  4.162199  -0.002  0.684466  -0.002072  4.156091  -0.002  0.216797  0.623283  -0.001048  4.165454  -0.003
C  C36  1  0.81327976  0.50149755  0.48117194  1  0.691907  -0.008049  3.844266  -0.008  1.665454  -0.001022  0.648033  -0.001627  4.162131  -0.002  0.6845  -0.002072  4.15602  -0.002  0.216817  0.623307  -0.001048  4.165387  -0.003
C  C37  1  0.18671561  0.49850339  0.98117803  1  0.691962  -0.008043  3.844323  -0.008  1.665459  -0.001022  0.648139  -0.001627  4.162163  -0.002  0.684603  -0.002072  4.156047  -0.002  0.216881  0.623404  -0.001049  4.165412  -0.003
C  C38  1  0.74251997  0.98435241  0.84004135  1  0.261954  -0.001668  3.646111  0.001  1.019938  0.001088  0.212171  0.000843  3.913668  0.002  0.227543  -0.000762  3.925881  0.001  0.261771  0.201988  0.002092  3.905956  0.003
C  C39  1  0.25747131  0.01564521  0.34004229  1  0.261916  -0.001713  3.646164  0.0  1.019909  0.001086  0.212247  0.000841  3.913617  0.002  0.22762  -0.000759  3.925817  0.001  0.261868  0.202071  0.002093  3.905916  0.003
C  C40  1  0.01564442  0.25747181  0.34004220  1  0.261901  -0.001687  3.646204  0.0  1.019971  0.001086  0.212159  0.000841  3.913716  0.002  0.227525  -0.000758  3.925922  0.001  0.26183  0.201985  0.002093  3.906017  0.003
C  C41  1  0.98435484  0.74252328  0.84004145  1  0.261856  -0.00173  3.646276  0.0  1.019928  0.001086  0.21212  0.000841  3.913774  0.002  0.227493  -0.000758  3.925989  0.001  0.261774  0.201939  0.002092  3.906062  0.003
N  N42  1  0.66925010  0.88457526  0.02255977  1  -0.250996  -0.000497  3.042113  0.0  -1.185472  -0.000296  -0.223561  -0.000333  3.308465  0.0  -0.230056  -0.000361  3.322287  0.0  -0.280093  -0.219219  -0.000307  3.299608  0.0
N  N43  1  0.33075118  0.11542455  0.52256143  1  -0.251101  -0.000549  3.042172  0.0  -1.185542  -0.000295  -0.223635  -0.000333  3.308548  0.0  -0.230128  -0.000363  3.322372  0.0  -0.280141  -0.219296  -0.000306  3.299686  0.0
N  N44  1  0.11542482  0.33075206  0.52256218  1  -0.25119  -0.000511  3.042135  0.0  -1.185685  -0.000295  -0.223726  -0.000332  3.308497  0.0  -0.230224  -0.000361  3.322318  0.0  -0.28018  -0.219385  -0.000307  3.299631  0.0
N  N45  1  0.88457523  0.66924775  0.02255986  1  -0.250981  -0.000552  3.042159  0.0  -1.1855  -0.000294  -0.223547  -0.000331  3.308532  0.0  -0.230042  -0.000363  3.322363  0.0  -0.28008  -0.219203  -0.000307  3.299668  0.0
N  N46  1  0.74587952  0.95977713  0.72982687  1  -0.29053  0.052678  3.23369  0.069  -0.726529  0.067814  -0.269138  0.044207  3.569044  0.062  -0.296492  0.036803  3.584471  0.055  -0.235972  -0.252913  0.048443  3.560596  0.064
N  N47  1  0.25412506  0.04022636  0.22982868  1  -0.290519  0.052703  3.233829  0.069  -0.726552  0.067816  -0.269235  0.044209  3.56918  0.062  -0.296538  0.036804  3.584601  0.055  -0.236031  -0.253014  0.048442  3.560753  0.064
N  N48  1  0.04022629  0.25412581  0.22982859  1  -0.29052  0.052683  3.233755  0.069  -0.726543  0.067815  -0.269199  0.044208  3.569098  0.062  -0.2965  0.036804  3.584519  0.055  -0.236013  -0.252977  0.048441  3.560669  0.064
N  N49  1  0.95977705  0.74587767  0.72982696  1  -0.290507  0.0527  3.233764  0.069  -0.72651  0.067814  -0.269148  0.044207  3.569121  0.062  -0.296502  0.036802  3.584548  0.055  -0.235966  -0.252923  0.048444  3.560672  0.064
N  N50  1  0.72453777  0.10098832  0.67900637  1  0.002614  -0.003146  2.933696  -0.002  -0.054593  -0.000235  0.010964  -0.001029  3.236646  -0.001  0.014126  -0.002248  3.247948  -0.002  -0.047901  0.008907  -6e-05  3.229692  0.0
N  N51  1  0.27546152  0.89901487  0.17900628  1  0.002748  -0.003161  2.933636  -0.002  -0.054482  -0.000235  0.011114  -0.001028  3.2366  -0.001  0.014272  -0.002248  3.247886  -0.002  -0.047812  0.009069  -6e-05  3.229649  0.0
N  N52  1  0.89901422  0.27546370  0.17900653  1  0.002656  -0.003122  2.933685  -0.002  -0.054492  -0.000237  0.011023  -0.00103  3.236643  -0.001  0.014184  -0.002245  3.247929  -0.002  -0.047882  0.008977  -6e-05  3.22969  0.0
N  N53  1  0.10098844  0.72453822  0.67900612  1  0.002615  -0.003149  2.933714  -0.002  -0.05448  -0.000239  0.010983  -0.001032  3.236661  -0.001  0.014147  -0.002243  3.247963  -0.002  -0.047912  0.008925  -6e-05  3.229706  0.0
N  N54  1  0.70778411  0.21168479  0.75317401  1  -0.066549  0.00401  2.841498  0.005  -0.05931  0.00516  -0.076239  0.003195  3.112978  0.004  -0.074603  0.002066  3.120031  0.003  -0.0456  -0.07736  0.004337  3.108571  0.006
N  N55  1  0.29221378  0.78831623  0.25317212  1  -0.06661  0.004  2.841414  0.005  -0.0594  0.005158  -0.076343  0.003194  3.112949  0.004  -0.074707  0.002065  3.120002  0.003  -0.045627  -0.077459  0.004337  3.108546  0.006
N  N56  1  0.78831496  0.29221148  0.25317231  1  -0.066589  0.003988  2.8415  0.005  -0.059415  0.00516  -0.076296  0.003195  3.112982  0.004  -0.074668  0.002065  3.120045  0.003  -0.045595  -0.077411  0.004337  3.10858  0.006
N  N57  1  0.21168720  0.70778700  0.75317381  1  -0.066589  0.004004  2.841461  0.005  -0.059593  0.005159  -0.076284  0.003195  3.112917  0.004  -0.074652  0.002064  3.119974  0.003  -0.045593  -0.077404  0.004337  3.108515  0.006
N  N58  1  0.71907774  0.14261219  0.85383911  1  0.052174  0.002347  3.521812  0.003  -0.795753  0.003166  0.165784  0.001614  3.704826  0.002  0.158394  0.001204  3.721591  0.002  -0.096412  0.170256  0.002004  3.693706  0.002
N  N59  1  0.28092082  0.85738937  0.35383813  1  0.052239  0.002376  3.521702  0.003  -0.795426  0.003168  0.165816  0.001615  3.704643  0.002  0.158423  0.001203  3.721409  0.002  -0.096419  0.170297  0.002004  3.693539  0.002
N  N60  1  0.85738987  0.28092056  0.35383753  1  0.05229  0.002362  3.521708  0.003  -0.795399  0.003169  0.165918  0.001617  3.704678  0.002  0.158528  0.0012  3.721445  0.002  -0.096387  0.170397  0.002004  3.69358  0.002
N  N61  1  0.14261239  0.71908101  0.85383804  1  0.052318  0.002377  3.521687  0.003  -0.795298  0.003171  0.16594  0.001618  3.7047  0.002  0.158551  0.0012  3.721465  0.002  -0.09637  0.170402  0.002004  3.69358  0.002
O  O62  1  0.46949614  0.25607748  0.07249517  1  -0.593939  0.098391  2.066354  0.137  -1.154027  0.092027  -0.57534  0.056023  2.349957  0.086  -0.621307  0.040288  2.344443  0.067  -0.32794  -0.544233  0.066771  2.353318  0.096
O  O63  1  0.53050278  0.74392642  0.57249416  1  -0.594052  0.098397  2.066241  0.137  -1.154493  0.092029  -0.575341  0.056025  2.34997  0.086  -0.621355  0.040289  2.344436  0.067  -0.327949  -0.544227  0.066766  2.353317  0.096
O  O64  1  0.74392426  0.53049914  0.57249424  1  -0.594034  0.098397  2.0663  0.137  -1.154471  0.09203  -0.575312  0.056025  2.349949  0.086  -0.621326  0.04029  2.344416  0.067  -0.32792  -0.544198  0.066771  2.353296  0.096
O  O65  1  0.25607802  0.46950350  0.07249675  1  -0.593994  0.098392  2.066316  0.137  -1.154546  0.092028  -0.575357  0.056024  2.349942  0.086  -0.621324  0.040289  2.344427  0.067  -0.327959  -0.544251  0.066773  2.353307  0.096
O  O66  1  0.39350926  0.09250319  0.91626739  1  -0.601348  0.000743  1.960825  0.003  -1.209554  0.000981  -0.566085  -0.000208  2.190998  0.001  -0.592742  -0.001082  2.183028  0.0  -0.313936  -0.547395  0.000679  2.195819  0.002
O  O67  1  0.60648828  0.90748847  0.41626228  1  -0.601328  0.000751  1.960715  0.003  -1.209429  0.00098  -0.566018  -0.000208  2.190997  0.001  -0.592674  -0.001083  2.183028  0.0  -0.313828  -0.547329  0.000679  2.195822  0.002
O  O68  1  0.90748735  0.60648688  0.41625990  1  -0.601306  0.000748  1.960718  0.003  -1.20943  0.000981  -0.566025  -0.000208  2.190943  0.001  -0.59268  -0.001082  2.182976  0.0  -0.313854  -0.547338  0.000679  2.195766  0.002
O  O69  1  0.09251399  0.39350991  0.91626393  1  -0.601365  0.00075  1.960848  0.003  -1.209355  0.000981  -0.566095  -0.000208  2.19105  0.001  -0.592754  -0.001082  2.18308  0.0  -0.313896  -0.547409  0.000679  2.195874  0.002
O  O70  1  0.91162735  0.91162579  0.49212504  1  -0.868319  -0.002335  1.879781  0.0  -1.317779  -0.002448  -0.828077  -0.002301  2.068628  -0.001  -0.852437  -0.002815  2.035763  -0.001  -0.617376  -0.810251  -0.001603  2.091169  0.0
O  O71  1  0.08837651  0.08837908  0.99213024  1  -0.868323  -0.002334  1.879807  0.0  -1.317841  -0.002448  -0.828099  -0.0023  2.068592  -0.001  -0.852424  -0.002815  2.035727  -0.001  -0.617407  -0.810275  -0.001603  2.091146  0.0
O  O72  1  0.54079960  0.54079900  0.78723132  1  -0.819362  -0.001434  1.756668  0.0  -1.235562  -0.001718  -0.785916  -0.001852  1.927719  -0.001  -0.801242  -0.001903  1.899453  -0.001  -0.6035  -0.775052  -0.001713  1.947724  -0.001
O  O73  1  0.45920065  0.45920093  0.28723346  1  -0.819352  -0.001439  1.756623  0.0  -1.235626  -0.001719  -0.785916  -0.001853  1.927685  -0.001  -0.801224  -0.001902  1.899413  -0.001  -0.60348  -0.775047  -0.001712  1.947688  -0.001
