# generated using pymatgen
data_CdH4C6(SN2)2
_symmetry_space_group_name_H-M   'P 1'
_cell_length_a   9.71679659
_cell_length_b   13.22844517
_cell_length_c   15.42792549
_cell_angle_alpha   89.99972480
_cell_angle_beta   90.00059979
_cell_angle_gamma   102.32674415
_symmetry_Int_Tables_number   1
_chemical_formula_structural   CdH4C6(SN2)2
_chemical_formula_sum   'Cd8 H32 C48 S16 N32'
_cell_volume   1937.35861680
_cell_formula_units_Z   8
loop_
 _symmetry_equiv_pos_site_id
 _symmetry_equiv_pos_as_xyz
  1  'x, y, z'
loop_
 _atom_site_type_symbol
 _atom_site_label
 _atom_site_symmetry_multiplicity
 _atom_site_fract_x
 _atom_site_fract_y
 _atom_site_fract_z
 _atom_site_occupancy
 _atom_site_pbe_bader_spin_density
 _atom_site_pbe_cm5_charge
 _atom_site_pbe_ddec_charge
 _atom_site_pbe_ddec_spin_density
 _atom_site_pbe_ddec_sum_bond_order
 _atom_site_pbe_magmom
Cd  Cd0  1  0.81997373  0.38608396  0.73134716  1  0  0.705498  0.695549  0  2.526266  0
Cd  Cd1  1  0.68002947  0.11391597  0.23134614  1  0  0.705537  0.695677  0  2.526048  0
Cd  Cd2  1  0.18002676  0.61391478  0.26865437  1  0  0.705516  0.695615  0  2.526154  0
Cd  Cd3  1  0.31997085  0.88608586  0.76865280  1  0  0.705494  0.695593  0  2.526205  0
Cd  Cd4  1  0.51110544  0.51621627  0.73343494  1  0  0.779137  0.798749  0  2.45275  0
Cd  Cd5  1  0.98889711  0.98378387  0.23343768  1  0  0.779172  0.798784  0  2.45277  0
Cd  Cd6  1  0.48889483  0.48378169  0.26656400  1  0  0.779135  0.798747  0  2.452797  0
Cd  Cd7  1  0.01110794  0.01621644  0.76655932  1  0  0.779153  0.798759  0  2.4528  0
H  H8  1  0.65314964  0.72971984  0.64065970  1  0  0.118086  0.096007  0  1.012822  0
H  H9  1  0.84685064  0.77028136  0.14066108  1  0  0.118103  0.09602  0  1.012809  0
H  H10  1  0.34684613  0.27028041  0.35934054  1  0  0.118077  0.095972  0  1.012788  0
H  H11  1  0.15314882  0.22971737  0.85933981  1  0  0.118076  0.096009  0  1.012835  0
H  H12  1  0.88498455  0.83646414  0.58562303  1  0  0.110573  0.116526  0  1.018869  0
H  H13  1  0.61501731  0.66353494  0.08562203  1  0  0.110566  0.116514  0  1.018886  0
H  H14  1  0.11501349  0.16353690  0.41437980  1  0  0.110561  0.116497  0  1.018849  0
H  H15  1  0.38498219  0.33646766  0.91437627  1  0  0.110589  0.116548  0  1.018825  0
H  H16  1  0.09295239  0.74878856  0.58190979  1  0  0.109237  0.116149  0  1.025025  0
H  H17  1  0.40704615  0.75120806  0.08190906  1  0  0.109243  0.116154  0  1.025096  0
H  H18  1  0.90704375  0.25120938  0.41809109  1  0  0.10925  0.116168  0  1.025053  0
H  H19  1  0.59295525  0.24879764  0.91808794  1  0  0.109224  0.116156  0  1.025031  0
H  H20  1  0.05329354  0.56528788  0.63833824  1  0  0.11448  0.093829  0  1.022301  0
H  H21  1  0.44670383  0.93470855  0.13833636  1  0  0.114489  0.093842  0  1.022311  0
H  H22  1  0.94670158  0.43471005  0.36166135  1  0  0.114476  0.093799  0  1.022347  0
H  H23  1  0.55330294  0.06529795  0.86166193  1  0  0.114484  0.093859  0  1.022331  0
H  H24  1  0.28959261  0.34784562  0.63059572  1  0  0.112612  0.088861  0  1.045824  0
H  H25  1  0.21040971  0.15215527  0.13059733  1  0  0.112603  0.088855  0  1.045822  0
H  H26  1  0.71040733  0.65215852  0.36940517  1  0  0.112598  0.088834  0  1.045952  0
H  H27  1  0.78959388  0.84784349  0.86940550  1  0  0.112595  0.088834  0  1.045929  0
H  H28  1  0.26126659  0.17959740  0.54586001  1  0  0.110101  0.115684  0  1.017389  0
H  H29  1  0.23872985  0.32040218  0.04585853  1  0  0.110104  0.115701  0  1.017411  0
H  H30  1  0.73872940  0.82040362  0.45414152  1  0  0.110117  0.115694  0  1.017416  0
H  H31  1  0.76127563  0.67959968  0.95414495  1  0  0.110095  0.11568  0  1.017445  0
H  H32  1  0.48216846  0.11191456  0.51813389  1  0  0.099289  0.104715  0  1.053316  0
H  H33  1  0.01782504  0.38808354  0.01813196  1  0  0.099306  0.104705  0  1.053381  0
H  H34  1  0.51782730  0.88808569  0.48186959  1  0  0.099334  0.104727  0  1.05331  0
H  H35  1  0.98217686  0.61191289  0.98186892  1  0  0.099342  0.104751  0  1.053342  0
H  H36  1  0.70759999  0.20865391  0.58804338  1  0  0.110818  0.08627  0  1.037372  0
H  H37  1  0.79239554  0.29134179  0.08804043  1  0  0.110812  0.086238  0  1.037442  0
H  H38  1  0.29239512  0.79134402  0.41196075  1  0  0.110831  0.08625  0  1.037465  0
H  H39  1  0.20760555  0.70865541  0.91195917  1  0  0.110816  0.086226  0  1.037483  0
C  C40  1  0.01833360  0.23870294  0.65287607  1  0  0.151333  0.276751  0  4.277596  0
C  C41  1  0.48166907  0.26129788  0.15287643  1  0  0.151318  0.276709  0  4.277648  0
C  C42  1  0.98167149  0.76130123  0.34712287  1  0  0.151436  0.276799  0  4.277346  0
C  C43  1  0.51833322  0.73869624  0.84711927  1  0  0.151449  0.276783  0  4.277618  0
C  C44  1  0.17661524  0.45228398  0.80664861  1  0  0.14904  0.28329  0  4.278283  0
C  C45  1  0.32338636  0.04771865  0.30664946  1  0  0.14901  0.283226  0  4.278309  0
C  C46  1  0.82338297  0.54771397  0.19335098  1  0  0.149056  0.283282  0  4.278152  0
C  C47  1  0.67661564  0.95228551  0.69334949  1  0  0.149023  0.283258  0  4.278146  0
C  C48  1  0.67077430  0.45337534  0.90104012  1  0  0.144877  0.276146  0  4.319147  0
C  C49  1  0.82922992  0.04662559  0.40103971  1  0  0.144823  0.276013  0  4.319008  0
C  C50  1  0.32922347  0.54662106  0.09895235  1  0  0.144711  0.275844  0  4.31867  0
C  C51  1  0.17077246  0.95337625  0.59894951  1  0  0.144697  0.275796  0  4.318549  0
C  C52  1  0.82662129  0.17133260  0.84502850  1  0  0.144861  0.271082  0  4.29102  0
C  C53  1  0.67338527  0.32866157  0.34503044  1  0  0.144859  0.271114  0  4.290965  0
C  C54  1  0.17338349  0.82866308  0.15496785  1  0  0.14483  0.271046  0  4.291053  0
C  C55  1  0.32660903  0.67133712  0.65496915  1  0  0.144922  0.271227  0  4.290807  0
C  C56  1  0.74822616  0.69859667  0.63728114  1  0  0.058998  0.072208  0  3.911758  0
C  C57  1  0.75177363  0.80140299  0.13728177  1  0  0.058961  0.072159  0  3.911827  0
C  C58  1  0.25176939  0.30140281  0.36271910  1  0  0.058962  0.072192  0  3.911804  0
C  C59  1  0.24822832  0.19859730  0.86271783  1  0  0.05898  0.072148  0  3.911906  0
C  C60  1  0.87624475  0.75672802  0.60672387  1  0  -0.055769  -0.062024  0  3.89624  0
C  C61  1  0.62375517  0.74327020  0.10672389  1  0  -0.055796  -0.061986  0  3.896228  0
C  C62  1  0.12375102  0.24327223  0.39327637  1  0  -0.055746  -0.061978  0  3.896279  0
C  C63  1  0.37624721  0.25673164  0.89327441  1  0  -0.055816  -0.062111  0  3.896349  0
C  C64  1  0.98991010  0.70917224  0.60497167  1  0  -0.055976  -0.049803  0  3.912491  0
C  C65  1  0.51008854  0.79082520  0.10497140  1  0  -0.056032  -0.049943  0  3.912588  0
C  C66  1  0.01008627  0.29082647  0.39502792  1  0  -0.056029  -0.049868  0  3.912706  0
C  C67  1  0.48991573  0.20917974  0.89502560  1  0  -0.056015  -0.049822  0  3.912526  0
C  C68  1  0.96850394  0.60757476  0.63572773  1  0  0.057686  0.072033  0  3.898752  0
C  C69  1  0.53149415  0.89242259  0.13572847  1  0  0.057706  0.072085  0  3.898782  0
C  C70  1  0.03149161  0.39242472  0.36427057  1  0  0.057673  0.072009  0  3.898836  0
C  C71  1  0.46851072  0.10758081  0.86426982  1  0  0.057691  0.071988  0  3.898993  0
C  C72  1  0.37784501  0.31086691  0.61805908  1  0  0.05896  0.075893  0  3.899224  0
C  C73  1  0.12215462  0.18913245  0.11805866  1  0  0.058954  0.075905  0  3.899288  0
C  C74  1  0.62215179  0.68913334  0.38194246  1  0  0.058953  0.075903  0  3.899573  0
C  C75  1  0.87784669  0.81086552  0.88194288  1  0  0.058948  0.07589  0  3.899494  0
C  C76  1  0.36364047  0.21936379  0.57033148  1  0  -0.056974  -0.060947  0  3.891673  0
C  C77  1  0.13635841  0.28063573  0.07033013  1  0  -0.056982  -0.061022  0  3.891721  0
C  C78  1  0.63635655  0.78063724  0.42967071  1  0  -0.057018  -0.061009  0  3.891695  0
C  C79  1  0.86364457  0.71936457  0.92967140  1  0  -0.056983  -0.060954  0  3.891724  0
C  C80  1  0.48366034  0.18122472  0.55654267  1  0  -0.055479  -0.057283  0  3.919428  0
C  C81  1  0.01633561  0.31877251  0.05654038  1  0  -0.055484  -0.057162  0  3.919346  0
C  C82  1  0.51633418  0.81877475  0.44346081  1  0  -0.055526  -0.057286  0  3.919341  0
C  C83  1  0.98366569  0.68122546  0.94345986  1  0  -0.055532  -0.057339  0  3.91936  0
C  C84  1  0.60893931  0.23484051  0.59452410  1  0  0.060802  0.071941  0  3.917976  0
C  C85  1  0.89105757  0.26515595  0.09452256  1  0  0.060789  0.071944  0  3.918185  0
C  C86  1  0.39105624  0.76515896  0.40547873  1  0  0.060799  0.072004  0  3.917951  0
C  C87  1  0.10894352  0.73484125  0.90547703  1  0  0.060834  0.072075  0  3.917953  0
S  S88  1  0.99032889  0.34309061  0.60582154  1  0  -0.134883  -0.290213  0  2.517034  0
S  S89  1  0.50967049  0.15691047  0.10581986  1  0  -0.134866  -0.290217  0  2.516963  0
S  S90  1  0.00967495  0.65691279  0.39418065  1  0  -0.13493  -0.290305  0  2.516834  0
S  S91  1  0.49032789  0.84308439  0.89417649  1  0  -0.134984  -0.290341  0  2.517038  0
S  S92  1  0.02521285  0.46351442  0.84620687  1  0  -0.136439  -0.283622  0  2.572384  0
S  S93  1  0.47479079  0.03648578  0.34620747  1  0  -0.136434  -0.283647  0  2.572361  0
S  S94  1  0.97478536  0.53648353  0.15379337  1  0  -0.136453  -0.283631  0  2.572311  0
S  S95  1  0.52521203  0.96351761  0.65379342  1  0  -0.136416  -0.283619  0  2.572367  0
S  S96  1  0.67831625  0.45753956  0.00433435  1  0  -0.119398  -0.249747  0  2.367393  0
S  S97  1  0.82168572  0.04246573  0.50433356  1  0  -0.119359  -0.249659  0  2.367293  0
S  S98  1  0.32168549  0.54245996  0.99566978  1  0  -0.11928  -0.249425  0  2.367759  0
S  S99  1  0.17831340  0.95753918  0.49566604  1  0  -0.119239  -0.249415  0  2.367726  0
S  S100  1  0.88341693  0.08935849  0.90726211  1  0  -0.154403  -0.304555  0  2.401694  0
S  S101  1  0.61659245  0.41063473  0.40726269  1  0  -0.15436  -0.304498  0  2.401777  0
S  S102  1  0.11659099  0.91064107  0.09273749  1  0  -0.154359  -0.304519  0  2.401777  0
S  S103  1  0.38339914  0.58936163  0.59273561  1  0  -0.154388  -0.304572  0  2.401639  0
N  N104  1  0.04209570  0.16378367  0.68589630  1  0  -0.386034  -0.447863  0  3.149197  0
N  N105  1  0.45791058  0.33621706  0.18589684  1  0  -0.386033  -0.447832  0  3.149284  0
N  N106  1  0.95790999  0.83621896  0.31410265  1  0  -0.386079  -0.44783  0  3.149111  0
N  N107  1  0.54209382  0.66378093  0.81410145  1  0  -0.386035  -0.447743  0  3.149168  0
N  N108  1  0.28920099  0.44401363  0.78218362  1  0  -0.392548  -0.472277  0  3.155382  0
N  N109  1  0.21080109  0.05599217  0.28218564  1  0  -0.392547  -0.472217  0  3.155354  0
N  N110  1  0.71079765  0.55598587  0.21781597  1  0  -0.392563  -0.472278  0  3.155321  0
N  N111  1  0.78920384  0.94401509  0.71781266  1  0  -0.392564  -0.472264  0  3.155289  0
N  N112  1  0.66357264  0.44841561  0.82329213  1  0  -0.454834  -0.525936  0  3.286597  0
N  N113  1  0.83643135  0.05158170  0.32329175  1  0  -0.454837  -0.525904  0  3.286492  0
N  N114  1  0.33642493  0.55158002  0.17671460  1  0  -0.454746  -0.525901  0  3.285726  0
N  N115  1  0.16357120  0.94841705  0.67671238  1  0  -0.454783  -0.52585  0  3.285669  0
N  N116  1  0.78206941  0.22903763  0.79961383  1  0  -0.397662  -0.459801  0  3.159189  0
N  N117  1  0.71793872  0.27095748  0.29961630  1  0  -0.397731  -0.459927  0  3.159133  0
N  N118  1  0.21793391  0.77095650  0.20037993  1  0  -0.397711  -0.459842  0  3.159153  0
N  N119  1  0.28205889  0.72904201  0.70038329  1  0  -0.397762  -0.459982  0  3.15912  0
N  N120  1  0.84352462  0.55590632  0.66422510  1  0  -0.198573  -0.110154  0  3.461055  0
N  N121  1  0.65647392  0.94409093  0.16422580  1  0  -0.198546  -0.110186  0  3.461083  0
N  N122  1  0.15646946  0.44409161  0.33577320  1  0  -0.198571  -0.110137  0  3.460987  0
N  N123  1  0.34353302  0.05591248  0.83577444  1  0  -0.198555  -0.110146  0  3.4611  0
N  N124  1  0.73323988  0.60093669  0.66445085  1  0  -0.19749  -0.116611  0  3.442776  0
N  N125  1  0.76675909  0.89906210  0.16445183  1  0  -0.197466  -0.116559  0  3.442764  0
N  N126  1  0.26675339  0.39906199  0.33554809  1  0  -0.197421  -0.116521  0  3.44275  0
N  N127  1  0.23324514  0.10093898  0.83554906  1  0  -0.197441  -0.116516  0  3.442744  0
N  N128  1  0.61549527  0.32027717  0.64164240  1  0  -0.199542  -0.10707  0  3.450377  0
N  N129  1  0.88450441  0.17971916  0.14164052  1  0  -0.199532  -0.107106  0  3.450589  0
N  N130  1  0.38450234  0.67972232  0.35835978  1  0  -0.199539  -0.107102  0  3.450262  0
N  N131  1  0.11549771  0.82027804  0.85835778  1  0  -0.199588  -0.107186  0  3.450289  0
N  N132  1  0.50062456  0.35909229  0.65211581  1  0  -0.200357  -0.113773  0  3.450514  0
N  N133  1  0.99937696  0.14090634  0.15211614  1  0  -0.200363  -0.113789  0  3.450595  0
N  N134  1  0.49937348  0.64090875  0.34788508  1  0  -0.200344  -0.11376  0  3.450636  0
N  N135  1  0.00062391  0.85909009  0.84788410  1  0  -0.200319  -0.113702  0  3.450415  0
