# generated using pymatgen
data_AgPH21C22SNO3
_symmetry_space_group_name_H-M   'P 1'
_cell_length_a   8.98260622
_cell_length_b   11.17049216
_cell_length_c   11.17051551
_cell_angle_alpha   102.76524923
_cell_angle_beta   94.88910718
_cell_angle_gamma   94.88912384
_symmetry_Int_Tables_number   1
_chemical_formula_structural   AgPH21C22SNO3
_chemical_formula_sum   'Ag2 P2 H42 C44 S2 N2 O6'
_cell_volume   1082.90713467
_cell_formula_units_Z   2
loop_
 _symmetry_equiv_pos_site_id
 _symmetry_equiv_pos_as_xyz
  1  'x, y, z'
loop_
 _atom_site_type_symbol
 _atom_site_label
 _atom_site_symmetry_multiplicity
 _atom_site_fract_x
 _atom_site_fract_y
 _atom_site_fract_z
 _atom_site_occupancy
 _atom_site_hle17_bader_spin_density
 _atom_site_hle17_ddec_charge
 _atom_site_hle17_ddec_spin_density
 _atom_site_hle17_ddec_sum_bond_order
 _atom_site_hle17_magmom
 _atom_site_hse06_10hf_bader_spin_density
 _atom_site_hse06_10hf_ddec_charge
 _atom_site_hse06_10hf_ddec_spin_density
 _atom_site_hse06_10hf_ddec_sum_bond_order
 _atom_site_hse06_10hf_magmom
 _atom_site_hse06_bader_spin_density
 _atom_site_hse06_ddec_charge
 _atom_site_hse06_ddec_spin_density
 _atom_site_hse06_ddec_sum_bond_order
 _atom_site_hse06_magmom
 _atom_site_pbe_bader_spin_density
 _atom_site_pbe_cm5_charge
 _atom_site_pbe_ddec_charge
 _atom_site_pbe_ddec_spin_density
 _atom_site_pbe_ddec_sum_bond_order
 _atom_site_pbe_magmom
Ag  Ag0  1  0.49382773  0.90066056  0.10146032  1  0  0.328412  0  1.847672  0  0  0.213716  0  2.336205  0  0  0.229717  0  2.297002  0  0  0.418906  0.204209  0  2.36336  0
Ag  Ag1  1  0.99383166  0.10146318  0.90065603  1  0  0.328434  0  1.847618  0  0  0.21374  0  2.33611  0  0  0.229743  0  2.296905  0  0  0.418918  0.204229  0  2.363272  0
P  P2  1  0.45516980  0.95877095  0.31351531  1  0  0.337551  0  3.828772  0  0  0.287563  0  4.29957  0  0  0.299879  0  4.293712  0  0  -0.013607  0.279249  0  4.305854  0
P  P3  1  0.95517284  0.31351784  0.95877082  1  0  0.337467  0  3.828864  0  0  0.28753  0  4.299569  0  0  0.299844  0  4.293716  0  0  -0.01364  0.279204  0  4.305841  0
H  H4  1  0.60954168  0.56677393  0.14664845  1  0  0.084254  0  0.946608  0  0  0.101506  0  1.013098  0  0  0.101737  0  1.013352  0  0  0.093859  0.101112  0  1.013207  0
H  H5  1  0.10953618  0.14665072  0.56677683  1  0  0.084172  0  0.946658  0  0  0.101444  0  1.013141  0  0  0.10168  0  1.01339  0  0  0.093805  0.101043  0  1.013257  0
H  H6  1  0.41688217  0.55935199  0.08670054  1  0  0.09746  0  0.94014  0  0  0.115968  0  1.001765  0  0  0.115993  0  1.002718  0  0  0.103098  0.115858  0  1.001277  0
H  H7  1  0.91687956  0.08670024  0.55935472  1  0  0.097421  0  0.940157  0  0  0.115899  0  1.001813  0  0  0.115926  0  1.002761  0  0  0.103081  0.11579  0  1.001324  0
H  H8  1  0.46179467  0.50581784  0.22345294  1  0  0.083292  0  0.952852  0  0  0.09984  0  1.019244  0  0  0.099923  0  1.020179  0  0  0.09698  0.099854  0  1.018528  0
H  H9  1  0.96179121  0.22345265  0.50581736  1  0  0.083374  0  0.952791  0  0  0.099898  0  1.019199  0  0  0.099979  0  1.020136  0  0  0.097021  0.099911  0  1.018482  0
H  H10  1  0.66892523  0.57787181  0.35931459  1  0  0.128458  0  0.972135  0  0  0.13835  0  1.038204  0  0  0.142095  0  1.03702  0  0  0.108507  0.136313  0  1.038043  0
H  H11  1  0.16892473  0.35931623  0.57787304  1  0  0.128478  0  0.972149  0  0  0.138374  0  1.038208  0  0  0.142116  0  1.037029  0  0  0.108518  0.136335  0  1.03805  0
H  H12  1  0.95868642  0.77673995  0.71017757  1  0  0.081125  0  0.956707  0  0  0.0926  0  1.033209  0  0  0.093183  0  1.033046  0  0  0.090952  0.092217  0  1.033213  0
H  H13  1  0.45868525  0.71017657  0.77674075  1  0  0.081123  0  0.95669  0  0  0.092597  0  1.033188  0  0  0.093179  0  1.033027  0  0  0.09096  0.092213  0  1.033191  0
H  H14  1  0.94967708  0.61600669  0.71163325  1  0  0.094669  0  0.958874  0  0  0.111186  0  1.022749  0  0  0.111191  0  1.023972  0  0  0.099359  0.110927  0  1.022542  0
H  H15  1  0.44967820  0.71163475  0.61600724  1  0  0.094682  0  0.958866  0  0  0.111193  0  1.022741  0  0  0.111198  0  1.023966  0  0  0.099359  0.110932  0  1.022533  0
H  H16  1  0.79579629  0.70211898  0.75731691  1  0  0.083977  0  0.955634  0  0  0.100519  0  1.021014  0  0  0.100651  0  1.021388  0  0  0.093649  0.10028  0  1.020943  0
H  H17  1  0.29579405  0.75731398  0.70211793  1  0  0.083904  0  0.955649  0  0  0.100423  0  1.021064  0  0  0.100554  0  1.021439  0  0  0.093642  0.100185  0  1.020989  0
H  H18  1  0.75272874  0.87678807  0.68337583  1  0  0.128154  0  0.994962  0  0  0.13565  0  1.064981  0  0  0.139028  0  1.064185  0  0  0.104978  0.13302  0  1.066024  0
H  H19  1  0.25273666  0.68337498  0.87678628  1  0  0.12815  0  0.994944  0  0  0.135652  0  1.064956  0  0  0.139037  0  1.064153  0  0  0.104981  0.133022  0  1.066001  0
H  H20  1  0.58969283  0.00706089  0.77599553  1  0  0.090314  0  0.939146  0  0  0.108857  0  1.000404  0  0  0.108264  0  1.002003  0  0  0.097396  0.109246  0  0.999407  0
H  H21  1  0.08969449  0.77599397  0.00705974  1  0  0.090339  0  0.939105  0  0  0.108865  0  1.000382  0  0  0.10827  0  1.001984  0  0  0.097395  0.109254  0  0.999385  0
H  H22  1  0.57837336  0.15667014  0.74413720  1  0  0.099797  0  0.952683  0  0  0.115902  0  1.016924  0  0  0.1156  0  1.019486  0  0  0.103007  0.116013  0  1.015664  0
H  H23  1  0.07837635  0.74413663  0.15667045  1  0  0.099791  0  0.952702  0  0  0.115903  0  1.016934  0  0  0.115602  0  1.019494  0  0  0.102999  0.116014  0  1.015673  0
H  H24  1  0.75008955  0.08671282  0.72987330  1  0  0.074155  0  0.973712  0  0  0.086785  0  1.054887  0  0  0.08863  0  1.051206  0  0  0.085713  0.085498  0  1.057604  0
H  H25  1  0.25009522  0.72987710  0.08671388  1  0  0.074229  0  0.973792  0  0  0.086856  0  1.054944  0  0  0.088704  0  1.051259  0  0  0.085769  0.085562  0  1.057666  0
H  H26  1  0.20792923  0.05559819  0.19842816  1  0  0.083575  0  0.953604  0  0  0.094661  0  1.018065  0  0  0.097406  0  1.016609  0  0  0.096693  0.092484  0  1.019582  0
H  H27  1  0.70793383  0.19842789  0.05559796  1  0  0.083563  0  0.953624  0  0  0.094678  0  1.018046  0  0  0.097423  0  1.01659  0  0  0.096694  0.0925  0  1.019563  0
H  H28  1  0.93313160  0.03095769  0.20708780  1  0  0.082799  0  0.961809  0  0  0.096253  0  1.019965  0  0  0.098402  0  1.019502  0  0  0.096848  0.094759  0  1.020445  0
H  H29  1  0.43313470  0.20708236  0.03095714  1  0  0.082806  0  0.961838  0  0  0.09628  0  1.019966  0  0  0.098431  0  1.019499  0  0  0.096853  0.094786  0  1.020447  0
H  H30  1  0.82373129  0.90508244  0.34407088  1  0  0.081302  0  0.985592  0  0  0.086889  0  1.058347  0  0  0.088287  0  1.059705  0  0  0.091813  0.084076  0  1.060698  0
H  H31  1  0.32372647  0.34406245  0.90507879  1  0  0.081293  0  0.985519  0  0  0.086896  0  1.058251  0  0  0.088319  0  1.05955  0  0  0.091799  0.08408  0  1.060614  0
H  H32  1  0.99375765  0.81231721  0.47769308  1  0  0.084355  0  0.978391  0  0  0.093219  0  1.042373  0  0  0.095746  0  1.041703  0  0  0.095695  0.091976  0  1.04178  0
H  H33  1  0.49375634  0.47769138  0.81231890  1  0  0.084376  0  0.978276  0  0  0.093219  0  1.042277  0  0  0.095745  0  1.04161  0  0  0.095694  0.091977  0  1.041683  0
H  H34  1  0.26976194  0.83867887  0.47016845  1  0  0.092327  0  0.957821  0  0  0.101833  0  1.021037  0  0  0.104251  0  1.020617  0  0  0.097612  0.099468  0  1.023004  0
H  H35  1  0.76975700  0.47016867  0.83867924  1  0  0.092288  0  0.957866  0  0  0.101802  0  1.02107  0  0  0.104221  0  1.020656  0  0  0.097626  0.099437  0  1.023037  0
H  H36  1  0.70296407  0.10517101  0.25570727  1  0  0.072624  0  0.977638  0  0  0.083536  0  1.047103  0  0  0.086602  0  1.04428  0  0  0.090976  0.081039  0  1.049961  0
H  H37  1  0.20296495  0.25570697  0.10517329  1  0  0.07264  0  0.977634  0  0  0.083541  0  1.047109  0  0  0.086606  0  1.044289  0  0  0.09096  0.081044  0  1.049969  0
H  H38  1  0.81730126  0.32204024  0.33913629  1  0  0.083033  0  0.97561  0  0  0.093972  0  1.036383  0  0  0.095667  0  1.037762  0  0  0.095338  0.092406  0  1.036026  0
H  H39  1  0.31729958  0.33913580  0.32204218  1  0  0.083022  0  0.975633  0  0  0.093957  0  1.03641  0  0  0.095654  0  1.037788  0  0  0.095335  0.092392  0  1.036052  0
H  H40  1  0.70514944  0.45837222  0.50745412  1  0  0.092347  0  0.99224  0  0  0.098742  0  1.056567  0  0  0.102541  0  1.053835  0  0  0.098542  0.09591  0  1.058599  0
H  H41  1  0.20514694  0.50745411  0.45837319  1  0  0.092335  0  0.992225  0  0  0.09873  0  1.056554  0  0  0.10253  0  1.05382  0  0  0.098529  0.095898  0  1.058587  0
H  H42  1  0.47355438  0.38076490  0.58629083  1  0  0.089993  0  0.971157  0  0  0.097601  0  1.036255  0  0  0.100531  0  1.035232  0  0  0.097921  0.095301  0  1.037297  0
H  H43  1  0.97355198  0.58629146  0.38076470  1  0  0.090022  0  0.971172  0  0  0.097627  0  1.036267  0  0  0.100557  0  1.035246  0  0  0.097928  0.095324  0  1.037314  0
H  H44  1  0.36291161  0.16315358  0.50614443  1  0  0.08767  0  0.956777  0  0  0.096943  0  1.02401  0  0  0.099707  0  1.022421  0  0  0.099614  0.094834  0  1.025231  0
H  H45  1  0.86291180  0.50614483  0.16315226  1  0  0.087697  0  0.956743  0  0  0.096965  0  1.023987  0  0  0.099732  0  1.022393  0  0  0.099624  0.094856  0  1.02521  0
C  C46  1  0.79578201  0.86564348  0.96939284  1  0  0.265458  0  4.052023  0  0  0.254817  0  4.337395  0  0  0.274338  0  4.353873  0  0  0.140463  0.24151  0  4.325291  0
C  C47  1  0.29578326  0.96939585  0.86563816  1  0  0.265487  0  4.052113  0  0  0.254843  0  4.337484  0  0  0.274364  0  4.353966  0  0  0.140461  0.241533  0  4.325383  0
C  C48  1  0.54209575  0.86568575  0.40776612  1  0  -0.346931  0  3.708862  0  0  -0.32593  0  3.971728  0  0  -0.338868  0  3.989819  0  0  -0.065865  -0.319209  0  3.96436  0
C  C49  1  0.04209710  0.40776889  0.86568522  1  0  -0.346871  0  3.708936  0  0  -0.325873  0  3.971846  0  0  -0.338812  0  3.98994  0  0  -0.065857  -0.319114  0  3.964424  0
C  C50  1  0.55973269  0.74196238  0.34962137  1  0  0.314848  0  3.839798  0  0  0.300298  0  4.097774  0  0  0.317732  0  4.110809  0  0  0.089381  0.288478  0  4.089874  0
C  C51  1  0.05973080  0.34962570  0.74196183  1  0  0.31489  0  3.839767  0  0  0.300338  0  4.097789  0  0  0.317775  0  4.110824  0  0  0.089364  0.288508  0  4.089878  0
C  C52  1  0.49408830  0.57461025  0.17104049  1  0  -0.066323  0  3.616816  0  0  -0.161329  0  3.873354  0  0  -0.154453  0  3.877761  0  0  -0.142134  -0.165885  0  3.870262  0
C  C53  1  0.99408424  0.17104191  0.57461033  1  0  -0.066327  0  3.616888  0  0  -0.161266  0  3.873415  0  0  -0.154391  0  3.877818  0  0  -0.142165  -0.165817  0  3.870321  0
C  C54  1  0.65329891  0.67176669  0.40471590  1  0  -0.352666  0  3.74762  0  0  -0.387481  0  4.013053  0  0  -0.399354  0  4.029479  0  0  -0.137895  -0.379915  0  4.001462  0
C  C55  1  0.15330084  0.40471471  0.67176607  1  0  -0.35277  0  3.747663  0  0  -0.387562  0  4.013108  0  0  -0.399441  0  4.02954  0  0  -0.13792  -0.379998  0  4.001517  0
C  C56  1  0.72661709  0.72336639  0.52314583  1  0  0.329957  0  3.852081  0  0  0.317607  0  4.114123  0  0  0.335158  0  4.126076  0  0  0.086578  0.306405  0  4.104256  0
C  C57  1  0.22662018  0.52314641  0.72336650  1  0  0.329999  0  3.851834  0  0  0.317639  0  4.113921  0  0  0.335178  0  4.125877  0  0  0.086585  0.306436  0  4.104051  0
C  C58  1  0.88431972  0.68998448  0.69485155  1  0  -0.069937  0  3.603796  0  0  -0.162955  0  3.856117  0  0  -0.155837  0  3.859601  0  0  -0.143333  -0.16771  0  3.853959  0
C  C59  1  0.38432153  0.69485014  0.68998406  1  0  -0.069879  0  3.603749  0  0  -0.162847  0  3.85607  0  0  -0.155742  0  3.859553  0  0  -0.143334  -0.167596  0  3.853906  0
C  C60  1  0.70164409  0.84040441  0.58915537  1  0  -0.378667  0  3.759043  0  0  -0.404044  0  4.017335  0  0  -0.416689  0  4.034951  0  0  -0.141135  -0.395535  0  4.004034  0
C  C61  1  0.20164603  0.58915667  0.84040490  1  0  -0.378685  0  3.759053  0  0  -0.404044  0  4.017341  0  0  -0.416697  0  4.034954  0  0  -0.141131  -0.395539  0  4.004048  0
C  C62  1  0.60676651  0.90936628  0.53163701  1  0  0.326451  0  3.817632  0  0  0.307732  0  4.078677  0  0  0.326043  0  4.091036  0  0  0.094419  0.296436  0  4.06979  0
C  C63  1  0.10676913  0.53164024  0.90936690  1  0  0.326462  0  3.817776  0  0  0.307727  0  4.078868  0  0  0.326038  0  4.091231  0  0  0.094431  0.29642  0  4.069972  0
C  C64  1  0.62655032  0.06921669  0.71794452  1  0  -0.069385  0  3.605699  0  0  -0.166473  0  3.865438  0  0  -0.159241  0  3.869657  0  0  -0.142677  -0.171241  0  3.862548  0
C  C65  1  0.12655542  0.71794530  0.06921788  1  0  -0.069512  0  3.605833  0  0  -0.166593  0  3.865583  0  0  -0.159362  0  3.869799  0  0  -0.142736  -0.171356  0  3.862699  0
C  C66  1  0.25667884  0.94965611  0.33484909  1  0  -0.098933  0  3.777272  0  0  -0.061524  0  4.014633  0  0  -0.066772  0  4.040256  0  0  -0.028058  -0.058331  0  3.997624  0
C  C67  1  0.75667944  0.33484930  0.94965600  1  0  -0.098928  0  3.777234  0  0  -0.061539  0  4.014629  0  0  -0.066788  0  4.040253  0  0  -0.028064  -0.058347  0  3.99762  0
C  C68  1  0.16086152  0.00456878  0.26177140  1  0  -0.082713  0  3.760837  0  0  -0.097264  0  3.997771  0  0  -0.099321  0  4.021313  0  0  -0.086843  -0.096203  0  3.982864  0
C  C69  1  0.66086526  0.26176978  0.00456488  1  0  -0.082697  0  3.760992  0  0  -0.097257  0  3.997918  0  0  -0.099314  0  4.021463  0  0  -0.086836  -0.096194  0  3.983009  0
C  C70  1  0.00610658  0.99012798  0.26638534  1  0  -0.070606  0  3.774922  0  0  -0.079666  0  4.010575  0  0  -0.082927  0  4.034242  0  0  -0.090574  -0.077986  0  3.995285  0
C  C71  1  0.50610483  0.26637747  0.99012309  1  0  -0.070643  0  3.775113  0  0  -0.079741  0  4.010789  0  0  -0.083004  0  4.034463  0  0  -0.09059  -0.078062  0  3.995499  0
C  C72  1  0.94511598  0.91928740  0.34276095  1  0  -0.070483  0  3.764049  0  0  -0.082062  0  4.00894  0  0  -0.082892  0  4.031099  0  0  -0.091391  -0.080997  0  3.995432  0
C  C73  1  0.44511434  0.34275417  0.91928496  1  0  -0.070475  0  3.764197  0  0  -0.082059  0  4.00907  0  0  -0.082891  0  4.031251  0  0  -0.091343  -0.080995  0  3.995558  0
C  C74  1  0.04033494  0.86592689  0.41659678  1  0  -0.078524  0  3.778298  0  0  -0.090302  0  4.027966  0  0  -0.093049  0  4.049292  0  0  -0.093041  -0.088337  0  4.012589  0
C  C75  1  0.54033270  0.41658750  0.86592479  1  0  -0.078597  0  3.778274  0  0  -0.090346  0  4.027946  0  0  -0.093096  0  4.049277  0  0  -0.093114  -0.088381  0  4.012565  0
C  C76  1  0.19567375  0.88112200  0.41312985  1  0  -0.067174  0  3.740902  0  0  -0.089885  0  3.988281  0  0  -0.089973  0  4.008785  0  0  -0.08681  -0.089506  0  3.975458  0
C  C77  1  0.69567231  0.41312921  0.88112132  1  0  -0.067065  0  3.740751  0  0  -0.089796  0  3.988148  0  0  -0.089887  0  4.008654  0  0  -0.086765  -0.089417  0  3.975324  0
C  C78  1  0.52741095  0.11975817  0.37693893  1  0  -0.09615  0  3.774959  0  0  -0.057986  0  4.012624  0  0  -0.063898  0  4.038798  0  0  -0.027908  -0.054298  0  3.995277  0
C  C79  1  0.02741309  0.37694208  0.11975828  1  0  -0.096123  0  3.774974  0  0  -0.05798  0  4.012682  0  0  -0.063891  0  4.038856  0  0  -0.027896  -0.054291  0  3.995335  0
C  C80  1  0.65415564  0.16572242  0.32944161  1  0  -0.088415  0  3.781148  0  0  -0.105095  0  4.01673  0  0  -0.107068  0  4.040496  0  0  -0.090552  -0.103744  0  4.002038  0
C  C81  1  0.15415784  0.32944260  0.16572334  1  0  -0.088453  0  3.781123  0  0  -0.105116  0  4.016695  0  0  -0.10709  0  4.040463  0  0  -0.090545  -0.103764  0  4.002002  0
C  C82  1  0.71812325  0.28722565  0.37612957  1  0  -0.077187  0  3.78602  0  0  -0.084891  0  4.024311  0  0  -0.088008  0  4.047674  0  0  -0.09641  -0.082575  0  4.008286  0
C  C83  1  0.21812272  0.37612904  0.28722745  1  0  -0.077157  0  3.786006  0  0  -0.084854  0  4.024282  0  0  -0.087971  0  4.047645  0  0  -0.096401  -0.082538  0  4.008257  0
C  C84  1  0.65413294  0.36406759  0.46970432  1  0  -0.060117  0  3.744297  0  0  -0.072029  0  3.98514  0  0  -0.072715  0  4.004888  0  0  -0.090924  -0.071604  0  3.971677  0
C  C85  1  0.15413166  0.46970461  0.36406842  1  0  -0.060104  0  3.744278  0  0  -0.072019  0  3.985119  0  0  -0.072704  0  4.004868  0  0  -0.090931  -0.071593  0  3.971658  0
C  C86  1  0.52472685  0.31994453  0.51471189  1  0  -0.073956  0  3.75173  0  0  -0.082578  0  3.996617  0  0  -0.085671  0  4.01754  0  0  -0.091502  -0.080634  0  3.983163  0
C  C87  1  0.02472578  0.51471428  0.31994256  1  0  -0.074024  0  3.75186  0  0  -0.082644  0  3.996753  0  0  -0.085738  0  4.017679  0  0  -0.091521  -0.080697  0  3.983304  0
C  C88  1  0.46148987  0.19837171  0.46880135  1  0  -0.052044  0  3.745368  0  0  -0.077362  0  3.993806  0  0  -0.076469  0  4.013325  0  0  -0.08124  -0.077556  0  3.980494  0
C  C89  1  0.96149216  0.46880311  0.19837222  1  0  -0.052034  0  3.745407  0  0  -0.077352  0  3.99385  0  0  -0.076459  0  4.013368  0  0  -0.081214  -0.077545  0  3.980539  0
S  S90  1  0.69244718  0.75995673  0.01416404  1  0  -0.317124  0  2.241126  0  0  -0.279278  0  2.587867  0  0  -0.294733  0  2.578931  0  0  -0.162443  -0.266681  0  2.593469  0
S  S91  1  0.19244924  0.01416370  0.75994995  1  0  -0.317115  0  2.24117  0  0  -0.279267  0  2.587916  0  0  -0.294727  0  2.578987  0  0  -0.162464  -0.26667  0  2.593516  0
N  N92  1  0.87396478  0.93965728  0.93575125  1  0  -0.509405  0  3.039195  0  0  -0.448055  0  3.344292  0  0  -0.466503  0  3.347716  0  0  -0.423947  -0.435733  0  3.342187  0
N  N93  1  0.37396704  0.93576025  0.93965634  1  0  -0.509437  0  3.039194  0  0  -0.4481  0  3.344321  0  0  -0.466548  0  3.347747  0  0  -0.423944  -0.435776  0  3.342219  0
O  O94  1  0.47758902  0.69701517  0.23828180  1  0  -0.26643  0  2.413464  0  0  -0.181556  0  2.651545  0  0  -0.200814  0  2.653799  0  0  -0.184072  -0.168102  0  2.649505  0
O  O95  1  0.97758360  0.23828487  0.69701392  1  0  -0.266391  0  2.41343  0  0  -0.181592  0  2.651548  0  0  -0.200855  0  2.653807  0  0  -0.184011  -0.168137  0  2.649504  0
O  O96  1  0.81993328  0.65007695  0.56849510  1  0  -0.260501  0  2.345909  0  0  -0.175539  0  2.574662  0  0  -0.193788  0  2.575025  0  0  -0.182836  -0.162147  0  2.573408  0
O  O97  1  0.31993540  0.56849366  0.65007478  1  0  -0.260521  0  2.345838  0  0  -0.175592  0  2.574613  0  0  -0.193811  0  2.574961  0  0  -0.182856  -0.162201  0  2.573357  0
O  O98  1  0.57036226  0.02044123  0.59091808  1  0  -0.244694  0  2.398966  0  0  -0.159261  0  2.628764  0  0  -0.179256  0  2.634107  0  0  -0.173096  -0.144943  0  2.62415  0
O  O99  1  0.07037073  0.59091725  0.02044373  1  0  -0.244625  0  2.398958  0  0  -0.15918  0  2.628754  0  0  -0.179184  0  2.634105  0  0  -0.173059  -0.144864  0  2.62414  0
