# generated using pymatgen
data_CuH4C18N2(O2F5)2
_symmetry_space_group_name_H-M   'P 1'
_cell_length_a   4.77366618
_cell_length_b   12.85879334
_cell_length_c   15.39235320
_cell_angle_alpha   90.81600738
_cell_angle_beta   90.84225016
_cell_angle_gamma   87.58980863
_symmetry_Int_Tables_number   1
_chemical_formula_structural   CuH4C18N2(O2F5)2
_chemical_formula_sum   'Cu2 H8 C36 N4 O8 F20'
_cell_volume   943.81225087
_cell_formula_units_Z   2
loop_
 _symmetry_equiv_pos_site_id
 _symmetry_equiv_pos_as_xyz
  1  'x, y, z'
loop_
 _atom_site_type_symbol
 _atom_site_label
 _atom_site_symmetry_multiplicity
 _atom_site_fract_x
 _atom_site_fract_y
 _atom_site_fract_z
 _atom_site_occupancy
 _atom_site_hle17_ddec_charge
 _atom_site_hle17_ddec_spin_density
 _atom_site_hle17_ddec_sum_bond_order
 _atom_site_hle17_magmom
 _atom_site_hse06_10hf_ddec_charge
 _atom_site_hse06_10hf_ddec_spin_density
 _atom_site_hse06_10hf_ddec_sum_bond_order
 _atom_site_hse06_10hf_magmom
 _atom_site_hse06_ddec_charge
 _atom_site_hse06_ddec_spin_density
 _atom_site_hse06_ddec_sum_bond_order
 _atom_site_hse06_magmom
 _atom_site_pbe_cm5_charge
 _atom_site_pbe_ddec_charge
 _atom_site_pbe_ddec_spin_density
 _atom_site_pbe_ddec_sum_bond_order
 _atom_site_pbe_magmom
Cu  Cu0  1  0.76391354  0.24957527  0.48042110  1  0.854759  0.725167  1.792131  0.499  0.826964  0.801868  2.181583  0.614  0.91648  0.884918  2.114117  0.703  0.746862  0.774144  0.736526  2.227402  0.552
Cu  Cu1  1  0.23609070  0.75042581  0.51957986  1  0.854774  -0.725204  1.792359  -0.499  0.82693  -0.801868  2.181701  -0.614  0.916364  -0.884908  2.114322  -0.703  0.746844  0.774107  -0.73652  2.227498  -0.552
H  H2  1  0.21581366  0.13985204  0.58204652  1  0.116162  0.000807  0.960175  0.001  0.118875  0.00046  1.028743  0.001  0.121882  0.000313  1.026052  0.001  0.127212  0.116422  0.000571  1.031237  0.001
H  H3  1  0.78418443  0.86014825  0.41795509  1  0.116179  -0.000805  0.960135  -0.001  0.118915  -0.00046  1.028679  -0.001  0.121924  -0.000313  1.025984  -0.001  0.127218  0.11646  -0.000571  1.031177  -0.001
H  H4  1  0.63215433  0.04905359  0.39540872  1  0.117827  0.000822  0.948396  0.002  0.119902  0.000501  1.013948  0.001  0.12215  0.000382  1.012128  0.001  0.126291  0.118054  0.000572  1.015602  0.001
H  H5  1  0.36783747  0.95094668  0.60459287  1  0.117861  -0.000825  0.948399  -0.002  0.119952  -0.000501  1.013956  -0.001  0.1222  -0.000382  1.012133  -0.001  0.126291  0.118104  -0.000572  1.015608  -0.001
H  H6  1  0.87789694  0.45637048  0.40000375  1  0.112838  0.000429  0.956215  0.001  0.116198  0.00025  1.020414  0.001  0.119195  0.000184  1.01845  0.001  0.124402  0.114022  0.0003  1.021835  0.001
H  H7  1  0.12211570  0.54362901  0.59999137  1  0.112826  -0.000427  0.956355  -0.001  0.116228  -0.00025  1.0205  -0.001  0.119225  -0.000183  1.018537  -0.001  0.124411  0.114052  -0.000299  1.021919  -0.001
H  H8  1  0.30309776  0.35914377  0.58029035  1  0.120419  0.000219  0.981074  0.001  0.120575  6.8e-05  1.055495  0.001  0.124519  2.6e-05  1.051587  0.001  0.126425  0.117477  0.000109  1.05892  0.001
H  H9  1  0.69691084  0.64085413  0.41970281  1  0.120342  -0.000216  0.981179  -0.001  0.120487  -6.8e-05  1.055617  -0.001  0.124436  -2.6e-05  1.051694  -0.001  0.126389  0.117391  -0.000109  1.059047  -0.001
C  C10  1  0.20731910  0.25262408  0.35660293  1  0.692026  -0.003969  3.861708  -0.007  0.650689  -0.000106  4.163857  -0.003  0.691468  -0.000514  4.151068  -0.002  0.21037  0.623139  0.000251  4.171587  -0.003
C  C11  1  0.79268646  0.74738326  0.64340001  1  0.692225  0.003973  3.861575  0.007  0.65097  0.000102  4.16351  0.003  0.691751  0.000517  4.150718  0.002  0.210489  0.623416  -0.00025  4.171246  0.003
C  C12  1  0.75567342  0.25334461  0.66140993  1  0.673733  -0.004507  3.906331  -0.007  0.627213  -0.000364  4.221513  -0.003  0.664949  -0.000755  4.211873  -0.003  0.207718  0.601642  -0.0  4.227542  -0.003
C  C13  1  0.24429977  0.74665405  0.33859229  1  0.673721  0.004509  3.906529  0.007  0.627164  0.00036  4.221663  0.003  0.664892  0.000756  4.212014  0.003  0.207648  0.601596  0.0  4.227698  0.003
C  C14  1  0.32105309  0.27865335  0.26889094  1  -0.229775  0.009524  3.729813  0.01  -0.238828  0.005321  3.998173  0.006  -0.248827  0.003834  4.014042  0.004  -0.036454  -0.232298  0.006486  3.987642  0.007
C  C15  1  0.67894462  0.72134925  0.73110873  1  -0.229857  -0.009521  3.730005  -0.01  -0.238971  -0.005311  3.998397  -0.006  -0.248978  -0.003841  4.014284  -0.004  -0.036479  -0.232441  -0.006484  3.987867  -0.007
C  C16  1  0.51708305  0.21125936  0.22741607  1  0.242612  -0.00028  3.766265  0.0  0.206614  0.000503  4.068134  0.001  0.219108  0.000205  4.075406  0.0  0.098393  0.197842  0.000753  4.063763  0.001
C  C17  1  0.48293878  0.78875112  0.77258496  1  0.242934  0.000281  3.765134  0.0  0.206675  -0.000509  4.067963  -0.001  0.219165  -0.000195  4.075237  0.0  0.098438  0.1979  -0.000753  4.063595  -0.001
C  C18  1  0.64004302  0.23582532  0.14935215  1  0.099357  0.001157  3.830611  0.001  0.061255  0.000403  4.145324  0.0  0.066258  0.000333  4.154067  0.0  0.077992  0.057349  0.000496  4.140051  0.0
C  C19  1  0.35996876  0.76418282  0.85065211  1  0.10075  -0.001157  3.829754  -0.001  0.061355  -0.000402  4.145069  0.0  0.066362  -0.000341  4.153816  0.0  0.078058  0.05745  -0.000496  4.139793  0.0
C  C20  1  0.56627470  0.33007978  0.10964058  1  0.155311  -0.000887  3.815062  -0.001  0.11581  -0.000203  4.128801  0.0  0.126038  -0.000269  4.13557  0.0  0.092417  0.108624  -0.000127  4.124827  0.0
C  C21  1  0.43371576  0.66993061  0.89036171  1  0.15542  0.000889  3.814442  0.001  0.115847  0.0002  4.128512  0.0  0.126061  0.000272  4.135299  0.0  0.092516  0.10866  0.000127  4.124533  0.0
C  C22  1  0.36822720  0.39838523  0.14792005  1  0.114632  0.00082  3.818495  0.001  0.070915  0.000124  4.137528  0.0  0.077182  0.000144  4.144093  0.0  0.080356  0.066084  0.00014  4.133857  0.0
C  C23  1  0.63174762  0.60161491  0.85207437  1  0.114409  -0.000819  3.818535  -0.001  0.07072  -0.00012  4.137439  0.0  0.076992  -0.000152  4.144006  0.0  0.080344  0.065886  -0.00014  4.133767  0.0
C  C24  1  0.24998275  0.37229707  0.22663988  1  0.219358  -0.001313  3.774165  -0.001  0.184922  -0.000222  4.078828  0.0  0.196317  -0.0003  4.087947  0.0  0.093108  0.177027  -0.000138  4.073037  0.0
C  C25  1  0.74998561  0.62770463  0.77335584  1  0.219633  0.001316  3.774335  0.001  0.185117  0.000212  4.079037  0.0  0.196509  0.00031  4.088162  0.0  0.093177  0.17722  0.000137  4.073244  0.0
C  C26  1  0.63089363  0.22937773  0.74829153  1  -0.212285  0.007855  3.761478  0.008  -0.221549  0.004867  4.035141  0.005  -0.227842  0.00289  4.049733  0.003  -0.033271  -0.217201  0.006495  4.025307  0.007
C  C27  1  0.36909878  0.77061787  0.25170939  1  -0.212584  -0.007857  3.761689  -0.008  -0.221635  -0.004861  4.035212  -0.005  -0.22791  -0.002898  4.049778  -0.003  -0.033238  -0.217291  -0.006496  4.025383  -0.007
C  C28  1  0.67361833  0.13187628  0.78559458  1  0.209441  0.004817  3.797079  0.004  0.171885  0.002127  4.102543  0.002  0.181243  0.00158  4.112167  0.002  0.085965  0.165375  0.002723  4.096272  0.002
C  C29  1  0.32638479  0.86811779  0.21440700  1  0.209596  -0.00481  3.797033  -0.004  0.171935  -0.002132  4.102551  -0.002  0.181295  -0.001571  4.112164  -0.002  0.086024  0.165429  -0.002723  4.096278  -0.002
C  C30  1  0.55285465  0.10772533  0.86429811  1  0.115176  -0.002907  3.820575  -0.003  0.076089  -0.000602  4.13523  -0.001  0.083014  -0.000757  4.142747  -0.001  0.079876  0.07093  -0.000458  4.130772  -0.001
C  C31  1  0.44713996  0.89226949  0.13570282  1  0.114564  0.002905  3.822503  0.003  0.07611  0.000606  4.135352  0.001  0.083038  0.000751  4.142866  0.001  0.079898  0.070953  0.000458  4.13089  0.001
C  C32  1  0.38117412  0.18310739  0.90587967  1  0.136752  0.007375  3.815361  0.007  0.098067  0.002619  4.128867  0.003  0.105421  0.001782  4.138618  0.002  0.084384  0.092902  0.003707  4.122668  0.003
C  C33  1  0.61883136  0.81688515  0.09412386  1  0.134094  -0.00738  3.817412  -0.007  0.097994  -0.002619  4.128752  -0.003  0.105345  -0.001777  4.138505  -0.002  0.084324  0.092831  -0.003707  4.122548  -0.003
C  C34  1  0.33496994  0.28148295  0.86967770  1  0.112433  -0.002936  3.819288  -0.003  0.068803  -0.000562  4.143742  -0.001  0.07491  -0.000723  4.15288  -0.001  0.079361  0.064222  -0.00042  4.138145  -0.001
C  C35  1  0.66505010  0.71851123  0.13032910  1  0.111941  0.002938  3.820868  0.003  0.068764  0.000562  4.143751  0.001  0.074873  0.000721  4.152891  0.001  0.079391  0.064187  0.00042  4.13815  0.001
C  C36  1  0.46201077  0.30365305  0.79161588  1  0.239392  0.005179  3.780224  0.005  0.19618  0.002274  4.091166  0.002  0.206979  0.001673  4.098794  0.002  0.095137  0.188546  0.00293  4.086374  0.003
C  C37  1  0.53798807  0.69634180  0.20838635  1  0.239489  -0.005177  3.78017  -0.005  0.196322  -0.002276  4.091093  -0.002  0.207115  -0.001669  4.098718  -0.002  0.09516  0.188691  -0.00293  4.0863  -0.003
C  C38  1  0.11750994  0.07728219  0.54601434  1  0.099382  -0.023302  3.61547  -0.024  0.070758  -0.006023  3.870029  -0.008  0.075806  -0.006991  3.88519  -0.009  0.064349  0.067197  -0.005056  3.860819  -0.006
C  C39  1  0.88248610  0.92271729  0.45398531  1  0.099418  0.023298  3.615577  0.024  0.070741  0.00602  3.870089  0.008  0.07579  0.006993  3.885238  0.009  0.064379  0.06718  0.005055  3.860879  0.006
C  C40  1  0.79686603  0.02626792  0.44177886  1  0.088126  -0.021152  3.606541  -0.022  0.060364  -0.004942  3.858202  -0.007  0.06433  -0.006056  3.876304  -0.008  0.063216  0.057406  -0.003907  3.847294  -0.005
C  C41  1  0.20313440  0.97373083  0.55822404  1  0.088152  0.021163  3.606221  0.022  0.060296  0.004942  3.857947  0.007  0.064259  0.006057  3.876053  0.008  0.063198  0.057328  0.003908  3.847058  0.005
C  C42  1  0.71127561  0.47621460  0.44553553  1  0.085818  -0.016664  3.625079  -0.017  0.060629  -0.004574  3.873539  -0.006  0.064257  -0.005383  3.891137  -0.007  0.060559  0.058038  -0.003863  3.862848  -0.005
C  C43  1  0.28873722  0.52378333  0.55445893  1  0.085966  0.016662  3.625098  0.017  0.06071  0.004575  3.87354  0.006  0.064339  0.005382  3.891136  0.007  0.060559  0.058123  0.003864  3.862843  0.005
C  C44  1  0.39357802  0.42170098  0.54447948  1  0.086937  -0.01721  3.612703  -0.017  0.059154  -0.004683  3.863397  -0.006  0.063621  -0.005474  3.879186  -0.007  0.059829  0.055376  -0.003954  3.854779  -0.005
C  C45  1  0.60643642  0.57830005  0.45551305  1  0.087153  0.017211  3.612511  0.017  0.059348  0.004684  3.863154  0.006  0.06382  0.005474  3.878939  0.007  0.059894  0.055587  0.003955  3.854497  0.005
N  N46  1  0.91528812  0.10252308  0.48771757  1  -0.220055  0.095364  3.329998  0.116  -0.171197  0.061833  3.612612  0.081  -0.19653  0.05284  3.63373  0.073  -0.323032  -0.156937  0.065259  3.600712  0.083
N  N47  1  0.08471211  0.89747641  0.51228208  1  -0.220011  -0.095364  3.329844  -0.116  -0.171087  -0.061833  3.612421  -0.081  -0.196407  -0.052846  3.633536  -0.073  -0.322995  -0.156822  -0.065263  3.600512  -0.083
N  N48  1  0.60609425  0.39823441  0.49022522  1  -0.24263  0.073591  3.299587  0.089  -0.192034  0.05062  3.579675  0.066  -0.21568  0.043659  3.599834  0.06  -0.32061  -0.178746  0.053472  3.568739  0.068
N  N49  1  0.39391622  0.60176586  0.50977055  1  -0.242771  -0.073584  3.299319  -0.089  -0.192089  -0.050619  3.579324  -0.066  -0.21573  -0.043656  3.599483  -0.06  -0.320619  -0.178808  -0.053469  3.568396  -0.068
O  O50  1  0.95088565  0.28317616  0.37011699  1  -0.602352  0.084688  2.084745  0.108  -0.580435  0.053751  2.375585  0.076  -0.621157  0.041638  2.365785  0.062  -0.322977  -0.553087  0.061338  2.381657  0.084
O  O51  1  0.04912830  0.71683121  0.62988662  1  -0.602473  -0.08468  2.084658  -0.108  -0.580598  -0.053747  2.375476  -0.076  -0.621301  -0.041632  2.365653  -0.062  -0.323109  -0.553244  -0.061341  2.381545  -0.084
O  O52  1  0.60636661  0.22024111  0.59659652  1  -0.583604  0.110539  2.071562  0.141  -0.560304  0.068998  2.354122  0.098  -0.606241  0.053581  2.349631  0.08  -0.312215  -0.530048  0.077136  2.357145  0.106
O  O53  1  0.39363633  0.77975454  0.40340637  1  -0.583713  -0.11054  2.071387  -0.141  -0.560361  -0.069006  2.353877  -0.098  -0.60631  -0.053592  2.349441  -0.08  -0.312254  -0.530105  -0.077144  2.356901  -0.106
O  O54  1  0.36380965  0.20477449  0.41001897  1  -0.625571  -0.000659  2.065687  0.001  -0.601644  -0.000416  2.338344  0.001  -0.630064  -0.001278  2.325382  0.0  -0.321169  -0.582197  0.000387  2.34709  0.002
O  O55  1  0.63620616  0.79523362  0.58998074  1  -0.625621  0.000656  2.065568  -0.001  -0.601795  0.000421  2.338265  -0.001  -0.630161  0.001268  2.32521  0.0  -0.32118  -0.582346  -0.000386  2.347002  -0.002
O  O56  1  0.97629575  0.30030358  0.65710247  1  -0.570001  -0.001386  1.934339  -0.001  -0.547354  -0.00086  2.175981  0.0  -0.572397  -0.001429  2.166433  -0.001  -0.30255  -0.529825  -0.000413  2.182118  0.0
O  O57  1  0.02369299  0.69970287  0.34289525  1  -0.569786  0.001387  1.934888  0.001  -0.547163  0.000862  2.176525  0.0  -0.572194  0.001428  2.166975  0.001  -0.302405  -0.529641  0.000414  2.182671  0.0
F  F58  1  0.59235020  0.11765428  0.26128042  1  -0.151909  -4.7e-05  1.25181  0.0  -0.108207  3.5e-05  1.425121  0.0  -0.116557  -1e-06  1.414167  0.0  -0.077032  -0.10203  8.5e-05  1.432628  0.0
F  F59  1  0.40768021  0.88235548  0.73872387  1  -0.151753  4.7e-05  1.251557  0.0  -0.108317  -3.5e-05  1.42524  0.0  -0.116671  1e-06  1.414285  0.0  -0.077131  -0.10214  -8.5e-05  1.432748  0.0
F  F60  1  0.82848003  0.16925681  0.11181060  1  -0.128714  0.000241  1.249528  0.0  -0.090713  0.00017  1.416748  0.0  -0.097837  0.000111  1.407288  0.0  -0.08253  -0.085544  0.000234  1.423352  0.0
F  F61  1  0.17155626  0.83075609  0.88819436  1  -0.132877  -0.000244  1.252672  0.0  -0.090775  -0.000169  1.416666  0.0  -0.097898  -0.000112  1.407205  0.0  -0.082602  -0.085608  -0.000234  1.42327  0.0
F  F62  1  0.68547101  0.35454373  0.03456701  1  -0.129829  -4.7e-05  1.265942  0.0  -0.082089  -2.3e-05  1.430669  0.0  -0.090097  -3.3e-05  1.420432  0.0  -0.071611  -0.076284  -1e-06  1.437719  0.0
F  F63  1  0.31454122  0.64546050  0.96543528  1  -0.129626  4.7e-05  1.265945  0.0  -0.08203  2.3e-05  1.4307  0.0  -0.090033  3.5e-05  1.420469  0.0  -0.071598  -0.07623  0.0  1.437749  0.0
F  F64  1  0.06848047  0.44365544  0.26255845  1  -0.146714  0.000168  1.247428  0.0  -0.103455  0.00015  1.421591  0.0  -0.111588  7.4e-05  1.411704  0.0  -0.079529  -0.097412  0.000226  1.42823  0.0
F  F65  1  0.93147787  0.55634230  0.73743465  1  -0.146722  -0.00017  1.24735  0.0  -0.103471  -0.000149  1.421543  0.0  -0.111604  -7.3e-05  1.411658  0.0  -0.079527  -0.097429  -0.000226  1.428182  0.0
F  F66  1  0.83726558  0.05787570  0.74461897  1  -0.169218  0.000341  1.204741  0.001  -0.12034  0.000249  1.360841  0.0  -0.128631  0.000147  1.35178  0.0  -0.095062  -0.114328  0.000372  1.367027  0.001
F  F67  1  0.16272668  0.94212065  0.25538066  1  -0.169316  -0.000342  1.204488  -0.001  -0.120423  -0.00025  1.360588  0.0  -0.128726  -0.000147  1.351538  0.0  -0.095144  -0.114415  -0.000372  1.366782  -0.001
F  F68  1  0.60065805  0.01372624  0.90027599  1  -0.126477  -0.000173  1.250473  0.0  -0.09114  -6.4e-05  1.418788  0.0  -0.097657  -7.4e-05  1.407368  0.0  -0.083799  -0.086386  -4.3e-05  1.426773  0.0
F  F69  1  0.39933506  0.98626308  0.09972036  1  -0.126425  0.000172  1.25124  0.0  -0.091077  6.4e-05  1.418989  0.0  -0.097593  7.4e-05  1.407568  0.0  -0.083761  -0.086322  4.3e-05  1.426974  0.0
F  F70  1  0.26199208  0.16150260  0.98193594  1  -0.135148  0.00081  1.263538  0.001  -0.089739  0.000433  1.428234  0.001  -0.098218  0.000232  1.418905  0.0  -0.079382  -0.083488  0.000715  1.434604  0.001
F  F71  1  0.73800103  0.83848834  0.01806691  1  -0.128669  -0.000805  1.258719  -0.001  -0.089632  -0.000433  1.42827  -0.001  -0.098113  -0.000233  1.418942  0.0  -0.079292  -0.083386  -0.000715  1.434639  -0.001
F  F72  1  0.16997082  0.35340663  0.91073911  1  -0.130231  -0.00015  1.256594  0.0  -0.089994  -3.4e-05  1.424965  0.0  -0.097221  -5.5e-05  1.414981  0.0  -0.082606  -0.084724  -6e-06  1.431905  0.0
F  F73  1  0.83005740  0.64658995  0.08927161  1  -0.130558  0.000149  1.257212  0.0  -0.090026  3.4e-05  1.425072  0.0  -0.097251  5.4e-05  1.415086  0.0  -0.082675  -0.084758  6e-06  1.432012  0.0
F  F74  1  0.41784703  0.39912084  0.75716070  1  -0.161969  0.000522  1.254651  0.001  -0.107843  0.000386  1.419994  0.001  -0.116965  0.000236  1.410182  0.0  -0.08236  -0.10107  0.00056  1.426653  0.001
F  F75  1  0.58213121  0.60087162  0.24284214  1  -0.162025  -0.000522  1.254617  -0.001  -0.107962  -0.000385  1.419988  -0.001  -0.117085  -0.000236  1.410178  0.0  -0.082447  -0.101188  -0.00056  1.426649  -0.001
F  F76  1  0.29390381  0.48843212  0.10895386  1  -0.126359  8.7e-05  1.270655  0.0  -0.085116  3e-05  1.44097  0.0  -0.091737  2.4e-05  1.429885  0.0  -0.078077  -0.080328  4.2e-05  1.44874  0.0
F  F77  1  0.70604011  0.51156322  0.89103660  1  -0.126314  -8.7e-05  1.270695  0.0  -0.085051  -2.8e-05  1.440968  0.0  -0.091672  -2.4e-05  1.429882  0.0  -0.078145  -0.080261  -4.2e-05  1.448736  0.0
