# generated using pymatgen
data_ZnH16C26(NO2)6
_symmetry_space_group_name_H-M   'P 1'
_cell_length_a   5.90250590
_cell_length_b   11.72799343
_cell_length_c   19.90569455
_cell_angle_alpha   98.44290236
_cell_angle_beta   90.00411053
_cell_angle_gamma   104.58897307
_symmetry_Int_Tables_number   1
_chemical_formula_structural   ZnH16C26(NO2)6
_chemical_formula_sum   'Zn2 H32 C52 N12 O24'
_cell_volume   1318.09349516
_cell_formula_units_Z   2
loop_
 _symmetry_equiv_pos_site_id
 _symmetry_equiv_pos_as_xyz
  1  'x, y, z'
loop_
 _atom_site_type_symbol
 _atom_site_label
 _atom_site_symmetry_multiplicity
 _atom_site_fract_x
 _atom_site_fract_y
 _atom_site_fract_z
 _atom_site_occupancy
 _atom_site_hle17_bader_spin_density
 _atom_site_hle17_ddec_charge
 _atom_site_hle17_ddec_spin_density
 _atom_site_hle17_ddec_sum_bond_order
 _atom_site_hle17_magmom
 _atom_site_hse06_10hf_bader_spin_density
 _atom_site_hse06_10hf_ddec_charge
 _atom_site_hse06_10hf_ddec_spin_density
 _atom_site_hse06_10hf_ddec_sum_bond_order
 _atom_site_hse06_10hf_magmom
 _atom_site_hse06_bader_spin_density
 _atom_site_hse06_ddec_charge
 _atom_site_hse06_ddec_spin_density
 _atom_site_hse06_ddec_sum_bond_order
 _atom_site_hse06_magmom
 _atom_site_pbe_bader_spin_density
 _atom_site_pbe_cm5_charge
 _atom_site_pbe_ddec_charge
 _atom_site_pbe_ddec_spin_density
 _atom_site_pbe_ddec_sum_bond_order
 _atom_site_pbe_magmom
Zn  Zn0  1  0.76367712  0.99970584  0.75005789  1  0  1.001348  0  1.834413  0  0  0.804757  0  2.308022  0  0  0.851266  0  2.2552  0  0  0.709341  0.772438  0  2.34416  0
Zn  Zn1  1  0.23633315  0.00029218  0.24994398  1  0  1.001473  0  1.834176  0  0  0.804903  0  2.307802  0  0  0.85143  0  2.254965  0  0  0.709412  0.772601  0  2.343936  0
H  H2  1  0.74135115  0.50399546  0.79041567  1  0  0.109941  0  0.970809  0  0  0.11482  0  1.041489  0  0  0.117672  0  1.039994  0  0  0.110705  0.112717  0  1.042682  0
H  H3  1  0.23672583  0.49533841  0.70951318  1  0  0.110394  0  0.970677  0  0  0.114906  0  1.041601  0  0  0.117839  0  1.040073  0  0  0.11086  0.11275  0  1.042819  0
H  H4  1  0.25863048  0.49600963  0.20957826  1  0  0.109962  0  0.970706  0  0  0.114862  0  1.041375  0  0  0.117716  0  1.039882  0  0  0.110704  0.11276  0  1.042566  0
H  H5  1  0.76325922  0.50466676  0.29049331  1  0  0.110496  0  0.970514  0  0  0.115005  0  1.041442  0  0  0.117942  0  1.039874  0  0  0.110884  0.112853  0  1.042646  0
H  H6  1  0.66188246  0.85454744  0.86301978  1  0  0.077702  0  0.951397  0  0  0.084878  0  1.017408  0  0  0.08685  0  1.016009  0  0  0.113263  0.083387  0  1.018491  0
H  H7  1  0.80719323  0.14473978  0.63725068  1  0  0.079597  0  0.951942  0  0  0.086391  0  1.018159  0  0  0.088419  0  1.016703  0  0  0.114302  0.084888  0  1.01925  0
H  H8  1  0.33813977  0.14545416  0.13698540  1  0  0.07771  0  0.951347  0  0  0.084923  0  1.017275  0  0  0.086842  0  1.015932  0  0  0.113276  0.083434  0  1.018358  0
H  H9  1  0.19282871  0.85525109  0.36274858  1  0  0.079489  0  0.951969  0  0  0.086304  0  1.018185  0  0  0.088329  0  1.016732  0  0  0.114268  0.084801  0  1.019275  0
H  H10  1  0.38200218  0.83274277  0.95707602  1  0  0.116408  0  0.943465  0  0  0.124766  0  1.005737  0  0  0.12792  0  1.004986  0  0  0.108607  0.122569  0  1.006356  0
H  H11  1  0.54984349  0.16707155  0.54322217  1  0  0.11731  0  0.944447  0  0  0.125214  0  1.00695  0  0  0.1284  0  1.006215  0  0  0.108642  0.123009  0  1.007561  0
H  H12  1  0.61801219  0.16724990  0.04292589  1  0  0.116337  0  0.943539  0  0  0.124686  0  1.005823  0  0  0.127833  0  1.00508  0  0  0.108565  0.122505  0  1.006429  0
H  H13  1  0.45020385  0.83291929  0.45677256  1  0  0.117345  0  0.944642  0  0  0.125312  0  1.006983  0  0  0.128521  0  1.00622  0  0  0.108694  0.123106  0  1.007597  0
H  H14  1  0.28591847  0.55563277  0.95530994  1  0  0.145642  0  0.966795  0  0  0.141731  0  1.045288  0  0  0.147663  0  1.038989  0  0  0.120038  0.137455  0  1.049837  0
H  H15  1  0.72958499  0.44432413  0.54470977  1  0  0.14615  0  0.967401  0  0  0.142511  0  1.045323  0  0  0.148463  0  1.039071  0  0  0.120739  0.13828  0  1.049831  0
H  H16  1  0.71407984  0.44436166  0.04468912  1  0  0.145636  0  0.966754  0  0  0.141709  0  1.045255  0  0  0.147636  0  1.03896  0  0  0.120015  0.137427  0  1.049808  0
H  H17  1  0.27042171  0.55568369  0.45529292  1  0  0.146217  0  0.967364  0  0  0.142565  0  1.045286  0  0  0.148515  0  1.039041  0  0  0.120789  0.138335  0  1.049795  0
H  H18  1  0.43826399  0.13743309  0.80881851  1  0  0.086573  0  0.957119  0  0  0.09281  0  1.026241  0  0  0.095392  0  1.023744  0  0  0.115877  0.09082  0  1.0282  0
H  H19  1  0.29968964  0.86178922  0.69107229  1  0  0.087518  0  0.956919  0  0  0.093628  0  1.026116  0  0  0.096244  0  1.023616  0  0  0.116587  0.091597  0  1.028094  0
H  H20  1  0.56170676  0.86254349  0.19117451  1  0  0.08658  0  0.957025  0  0  0.092808  0  1.026185  0  0  0.095392  0  1.023683  0  0  0.115869  0.09082  0  1.028143  0
H  H21  1  0.70030147  0.13822129  0.30893265  1  0  0.087504  0  0.956912  0  0  0.093644  0  1.026057  0  0  0.09626  0  1.023555  0  0  0.116582  0.091586  0  1.02807  0
H  H22  1  0.15058120  0.12835070  0.89917412  1  0  0.108977  0  0.970485  0  0  0.114532  0  1.038226  0  0  0.117639  0  1.037434  0  0  0.104741  0.112357  0  1.038882  0
H  H23  1  0.02176883  0.87124461  0.60063948  1  0  0.11051  0  0.970871  0  0  0.115891  0  1.038739  0  0  0.119088  0  1.037868  0  0  0.105759  0.113636  0  1.03953  0
H  H24  1  0.84939936  0.87162857  0.10082063  1  0  0.109036  0  0.970418  0  0  0.114551  0  1.03817  0  0  0.117657  0  1.037376  0  0  0.104691  0.112376  0  1.038827  0
H  H25  1  0.97824260  0.12876587  0.39936043  1  0  0.110521  0  0.970871  0  0  0.11593  0  1.038737  0  0  0.119101  0  1.037891  0  0  0.105829  0.113684  0  1.039507  0
H  H26  1  0.43890133  0.32584780  0.73614800  1  0  0.133557  0  0.918871  0  0  0.142962  0  0.972497  0  0  0.147259  0  0.969907  0  0  0.119126  0.139852  0  0.974567  0
H  H27  1  0.11324894  0.67368752  0.76386917  1  0  0.134324  0  0.918029  0  0  0.143352  0  0.971851  0  0  0.147648  0  0.969268  0  0  0.119672  0.140237  0  0.973941  0
H  H28  1  0.56107994  0.67415998  0.26384716  1  0  0.133555  0  0.918881  0  0  0.142921  0  0.97253  0  0  0.14722  0  0.969943  0  0  0.11909  0.139811  0  0.974597  0
H  H29  1  0.88673575  0.32632031  0.23613553  1  0  0.134192  0  0.918163  0  0  0.143401  0  0.971777  0  0  0.147698  0  0.969195  0  0  0.119627  0.140283  0  0.973871  0
H  H30  1  0.06756848  0.88818730  0.01687979  1  0  0.099349  0  0.966135  0  0  0.10742  0  1.033814  0  0  0.110676  0  1.031348  0  0  0.102667  0.105159  0  1.035563  0
H  H31  1  0.17947582  0.11201850  0.48337567  1  0  0.09906  0  0.966886  0  0  0.107488  0  1.034075  0  0  0.110657  0  1.031724  0  0  0.102736  0.105266  0  1.035782  0
H  H32  1  0.93241904  0.11179911  0.98311758  1  0  0.09934  0  0.966212  0  0  0.107482  0  1.033782  0  0  0.11074  0  1.031317  0  0  0.102641  0.105219  0  1.035531  0
H  H33  1  0.82055655  0.88798305  0.51662097  1  0  0.099051  0  0.96686  0  0  0.107456  0  1.034063  0  0  0.110624  0  1.031719  0  0  0.102752  0.105233  0  1.035769  0
C  C34  1  0.15341242  0.40588952  0.87580491  1  0  0.072927  0  3.676202  0  0  0.051155  0  3.926185  0  0  0.047812  0  3.94753  0  0  0.085966  0.053094  0  3.912048  0
C  C35  1  0.74731468  0.59392236  0.62428818  1  0  0.074564  0  3.673657  0  0  0.051527  0  3.923967  0  0  0.054259  0  3.948831  0  0  0.086372  0.053452  0  3.909842  0
C  C36  1  0.84658339  0.59410669  0.12419329  1  0  0.073104  0  3.676557  0  0  0.051308  0  3.926406  0  0  0.047964  0  3.947757  0  0  0.086024  0.053245  0  3.912265  0
C  C37  1  0.25269550  0.40608902  0.37571331  1  0  0.074472  0  3.673899  0  0  0.051562  0  3.924104  0  0  0.054187  0  3.948919  0  0  0.086351  0.053485  0  3.909984  0
C  C38  1  0.18895815  0.34010911  0.81361528  1  0  -0.038016  0  3.65798  0  0  -0.029999  0  3.901883  0  0  -0.030655  0  3.919118  0  0  0.015649  -0.029766  0  3.89061  0
C  C39  1  0.84897561  0.65966996  0.68646266  1  0  -0.039013  0  3.659641  0  0  -0.030883  0  3.903523  0  0  -0.031281  0  3.919594  0  0  0.014925  -0.030646  0  3.892252  0
C  C40  1  0.81103649  0.65989154  0.18637927  1  0  -0.038191  0  3.65831  0  0  -0.030178  0  3.902081  0  0  -0.030839  0  3.919334  0  0  0.015609  -0.029946  0  3.890807  0
C  C41  1  0.15102218  0.34033695  0.31353744  1  0  -0.038859  0  3.659457  0  0  -0.030808  0  3.903373  0  0  -0.031191  0  3.919464  0  0  0.014995  -0.030569  0  3.8921  0
C  C42  1  0.07194888  0.96417144  0.99070728  1  0  -0.093702  0  3.694947  0  0  -0.117376  0  3.954226  0  0  -0.120694  0  3.974307  0  0  -0.076677  -0.114963  0  3.940247  0
C  C43  1  0.10780487  0.03581672  0.50935409  1  0  -0.093568  0  3.698115  0  0  -0.117906  0  3.957363  0  0  -0.121117  0  3.977405  0  0  -0.07637  -0.115539  0  3.943396  0
C  C44  1  0.92803908  0.03581585  0.00928966  1  0  -0.093857  0  3.695194  0  0  -0.11753  0  3.954467  0  0  -0.120853  0  3.974553  0  0  -0.076606  -0.115112  0  3.940485  0
C  C45  1  0.89222402  0.96418127  0.49064175  1  0  -0.093369  0  3.697913  0  0  -0.117709  0  3.957192  0  0  -0.120925  0  3.97724  0  0  -0.076383  -0.11534  0  3.943223  0
C  C46  1  0.57294372  0.47719341  0.81324572  1  0  -0.043416  0  3.665397  0  0  -0.079245  0  3.932282  0  0  -0.075208  0  3.947309  0  0  -0.062397  -0.081822  0  3.922388  0
C  C47  1  0.09520380  0.52230281  0.68674126  1  0  -0.042864  0  3.665132  0  0  -0.078578  0  3.931945  0  0  -0.07466  0  3.947092  0  0  -0.062178  -0.081074  0  3.922058  0
C  C48  1  0.42704290  0.52280814  0.18674991  1  0  -0.04325  0  3.665536  0  0  -0.079085  0  3.932338  0  0  -0.075052  0  3.947374  0  0  -0.062311  -0.081662  0  3.922441  0
C  C49  1  0.90479614  0.47770502  0.31326294  1  0  -0.043124  0  3.66509  0  0  -0.078833  0  3.931964  0  0  -0.074893  0  3.947134  0  0  -0.062254  -0.081322  0  3.922077  0
C  C50  1  0.99469020  0.24015488  0.77764683  1  0  0.635987  0  3.971507  0  0  0.579294  0  4.284839  0  0  0.613493  0  4.276366  0  0  0.199849  0.555929  0  4.289459  0
C  C51  1  0.75486790  0.75960276  0.72249908  1  0  0.637963  0  3.971373  0  0  0.581468  0  4.284161  0  0  0.615744  0  4.275615  0  0  0.201577  0.558093  0  4.288798  0
C  C52  1  0.00529812  0.75984666  0.22234931  1  0  0.636003  0  3.971352  0  0  0.57943  0  4.284497  0  0  0.613624  0  4.27603  0  0  0.199812  0.556064  0  4.289125  0
C  C53  1  0.24513238  0.24040238  0.27750238  1  0  0.638419  0  3.971152  0  0  0.582017  0  4.283779  0  0  0.616274  0  4.275252  0  0  0.201879  0.558641  0  4.288425  0
C  C54  1  0.31652565  0.50738891  0.90652170  1  0  -0.108363  0  3.661883  0  0  -0.148039  0  3.929304  0  0  -0.145583  0  3.944007  0  0  -0.063371  -0.149287  0  3.919364  0
C  C55  1  0.80847315  0.49237390  0.59352102  1  0  -0.110096  0  3.661062  0  0  -0.149519  0  3.928439  0  0  -0.146638  0  3.94168  0  0  -0.063882  -0.150793  0  3.918449  0
C  C56  1  0.68346081  0.49260552  0.09347735  1  0  -0.108351  0  3.661878  0  0  -0.147991  0  3.929234  0  0  -0.145531  0  3.943943  0  0  -0.063361  -0.149237  0  3.919292  0
C  C57  1  0.19153061  0.50763480  0.40648024  1  0  -0.110284  0  3.661221  0  0  -0.149677  0  3.928519  0  0  -0.146806  0  3.941797  0  0  -0.063956  -0.150947  0  3.918525  0
C  C58  1  0.40378433  0.37692358  0.78335950  1  0  -0.05247  0  3.660177  0  0  -0.072086  0  3.912663  0  0  -0.074865  0  3.927959  0  0  -0.067411  -0.070598  0  3.902967  0
C  C59  1  0.02685236  0.62269145  0.71666067  1  0  -0.054922  0  3.661771  0  0  -0.073946  0  3.91398  0  0  -0.076669  0  3.929358  0  0  -0.06913  -0.072478  0  3.904302  0
C  C60  1  0.59620096  0.62307529  0.21663691  1  0  -0.052606  0  3.660557  0  0  -0.072165  0  3.912976  0  0  -0.074953  0  3.928287  0  0  -0.067448  -0.070677  0  3.90328  0
C  C61  1  0.97314507  0.37731815  0.28334117  1  0  -0.05477  0  3.661716  0  0  -0.073953  0  3.913944  0  0  -0.076696  0  3.929332  0  0  -0.069083  -0.072489  0  3.90426  0
C  C62  1  0.38796200  0.90139647  0.92519819  1  0  -0.157072  0  3.679539  0  0  -0.174453  0  3.925516  0  0  -0.183934  0  3.947868  0  0  -0.079143  -0.168229  0  3.910302  0
C  C63  1  0.48664085  0.09823301  0.57496541  1  0  -0.159357  0  3.684037  0  0  -0.176786  0  3.929862  0  0  -0.186355  0  3.952304  0  0  -0.079763  -0.170512  0  3.914607  0
C  C64  1  0.61204684  0.09859531  0.07480264  1  0  -0.157004  0  3.679658  0  0  -0.174391  0  3.925718  0  0  -0.183861  0  3.948042  0  0  -0.079091  -0.168182  0  3.91051  0
C  C65  1  0.51338591  0.90176410  0.42503236  1  0  -0.159589  0  3.684348  0  0  -0.177009  0  3.930127  0  0  -0.186597  0  3.952557  0  0  -0.079807  -0.170737  0  3.914877  0
C  C66  1  0.23836912  0.97840409  0.93660717  1  0  0.144873  0  3.776068  0  0  0.157661  0  4.0075  0  0  0.164213  0  4.02984  0  0  0.013273  0.153565  0  3.992078  0
C  C67  1  0.25986843  0.02130727  0.56341699  1  0  0.145347  0  3.780699  0  0  0.159503  0  4.010199  0  0  0.166092  0  4.03251  0  0  0.013975  0.155369  0  3.994816  0
C  C68  1  0.76163420  0.02158679  0.06339208  1  0  0.145058  0  3.776011  0  0  0.157777  0  4.007473  0  0  0.164324  0  4.029826  0  0  0.013289  0.153677  0  3.992057  0
C  C69  1  0.74015333  0.97869340  0.43658158  1  0  0.145374  0  3.780519  0  0  0.159542  0  4.009985  0  0  0.166132  0  4.032297  0  0  0.013968  0.155406  0  3.994605  0
C  C70  1  0.54494791  0.91294738  0.87332609  1  0  0.140099  0  3.707526  0  0  0.109106  0  3.955071  0  0  0.117138  0  3.974103  0  0  0.046893  0.103959  0  3.942086  0
C  C71  1  0.63179111  0.08643167  0.62685433  1  0  0.138841  0  3.708587  0  0  0.108521  0  3.956206  0  0  0.11654  0  3.975251  0  0  0.046088  0.103354  0  3.943224  0
C  C72  1  0.45507040  0.08704975  0.12667671  1  0  0.140081  0  3.707519  0  0  0.10904  0  3.955073  0  0  0.117131  0  3.974127  0  0  0.046845  0.103901  0  3.942099  0
C  C73  1  0.36822728  0.91356901  0.37314626  1  0  0.13902  0  3.708696  0  0  0.10867  0  3.956338  0  0  0.116689  0  3.975394  0  0  0.046094  0.103506  0  3.943358  0
C  C74  1  0.42073952  0.07177811  0.84307083  1  0  0.148481  0  3.689998  0  0  0.113593  0  3.940771  0  0  0.122524  0  3.957425  0  0  0.046768  0.107765  0  3.929587  0
C  C75  1  0.34831216  0.92754116  0.65688387  1  0  0.148281  0  3.685102  0  0  0.113718  0  3.936225  0  0  0.122621  0  3.953007  0  0  0.046606  0.107926  0  3.925019  0
C  C76  1  0.57925309  0.92820829  0.15692654  1  0  0.14852  0  3.689949  0  0  0.113582  0  3.940617  0  0  0.122526  0  3.957286  0  0  0.046808  0.107761  0  3.929435  0
C  C77  1  0.65168313  0.07246756  0.34311991  1  0  0.148281  0  3.685017  0  0  0.113747  0  3.936124  0  0  0.122654  0  3.952896  0  0  0.046604  0.10797  0  3.924924  0
C  C78  1  0.25995530  0.06575747  0.89393080  1  0  -0.14228  0  3.653591  0  0  -0.155668  0  3.893241  0  0  -0.164589  0  3.914268  0  0  -0.075895  -0.149975  0  3.879202  0
C  C79  1  0.19385865  0.93377767  0.60597656  1  0  -0.144402  0  3.654652  0  0  -0.158043  0  3.894092  0  0  -0.167052  0  3.915163  0  0  -0.078066  -0.15229  0  3.88004  0
C  C80  1  0.74003731  0.93422893  0.10606607  1  0  -0.142415  0  3.653524  0  0  -0.155681  0  3.893056  0  0  -0.1646  0  3.914087  0  0  -0.075843  -0.149982  0  3.879004  0
C  C81  1  0.80614841  0.06622747  0.39402440  1  0  -0.144539  0  3.654566  0  0  -0.158233  0  3.893997  0  0  -0.167221  0  3.915083  0  0  -0.078198  -0.15248  0  3.879945  0
C  C82  1  0.52600030  0.54156769  0.87392773  1  0  0.085611  0  3.701195  0  0  0.069787  0  3.954117  0  0  0.06614  0  3.975674  0  0  0.080358  0.071841  0  3.939759  0
C  C83  1  0.98363661  0.45804570  0.62607185  1  0  0.087241  0  3.697881  0  0  0.071063  0  3.950161  0  0  0.067474  0  3.971867  0  0  0.080585  0.073097  0  3.935814  0
C  C84  1  0.47399124  0.45842675  0.12607182  1  0  0.085478  0  3.701261  0  0  0.069686  0  3.954215  0  0  0.06604  0  3.975775  0  0  0.080342  0.071739  0  3.939857  0
C  C85  1  0.01636850  0.54196569  0.37393215  1  0  0.087379  0  3.697858  0  0  0.071145  0  3.950126  0  0  0.067554  0  3.971826  0  0  0.080602  0.073175  0  3.935789  0
N  N86  1  0.56077488  0.99630563  0.83220099  1  0  -0.349821  0  3.313105  0  0  -0.259378  0  3.590818  0  0  -0.279717  0  3.603859  0  0  -0.337995  -0.245807  0  3.581941  0
N  N87  1  0.56394581  0.00296563  0.66788601  1  0  -0.349637  0  3.309183  0  0  -0.259943  0  3.587403  0  0  -0.280298  0  3.600536  0  0  -0.338216  -0.246374  0  3.578511  0
N  N88  1  0.43922594  0.00368704  0.16780042  1  0  -0.34988  0  3.313061  0  0  -0.259321  0  3.590687  0  0  -0.279708  0  3.603758  0  0  -0.337974  -0.245764  0  3.581814  0
N  N89  1  0.43605448  0.99703952  0.33211697  1  0  -0.349555  0  3.309056  0  0  -0.25994  0  3.587381  0  0  -0.280296  0  3.600513  0  0  -0.338181  -0.246375  0  3.578488  0
N  N90  1  0.70599612  0.64533790  0.90681715  1  0  0.470929  0  3.945463  0  0  0.532451  0  4.199984  0  0  0.554052  0  4.206365  0  0  0.058266  0.517869  0  4.196006  0
N  N91  1  0.06021816  0.35446298  0.59308942  1  0  0.467673  0  3.945177  0  0  0.530809  0  4.197582  0  0  0.552422  0  4.204012  0  0  0.05873  0.516232  0  4.193607  0
N  N92  1  0.29399499  0.35465566  0.09318484  1  0  0.471072  0  3.945211  0  0  0.532297  0  4.200114  0  0  0.553901  0  4.206494  0  0  0.058151  0.517717  0  4.196133  0
N  N93  1  0.93977028  0.64554219  0.40691606  1  0  0.467652  0  3.945317  0  0  0.53085  0  4.197649  0  0  0.552464  0  4.204079  0  0  0.058692  0.516271  0  4.193677  0
N  N94  1  0.94170248  0.36335197  0.91294311  1  0  0.479272  0  3.938548  0  0  0.541686  0  4.188487  0  0  0.563713  0  4.194816  0  0  0.066251  0.526813  0  4.184304  0
N  N95  1  0.57824778  0.63651352  0.58713156  1  0  0.476122  0  3.939896  0  0  0.540681  0  4.188697  0  0  0.540765  0  4.230602  0  0  0.065283  0.525792  0  4.184518  0
N  N96  1  0.05828415  0.63664959  0.08705554  1  0  0.47904  0  3.938539  0  0  0.541634  0  4.188216  0  0  0.563659  0  4.194552  0  0  0.066303  0.526766  0  4.184032  0
N  N97  1  0.42175483  0.36349964  0.41287059  1  0  0.476187  0  3.940309  0  0  0.540552  0  4.189273  0  0  0.540988  0  4.230621  0  0  0.065273  0.525664  0  4.185089  0
O  O98  1  0.04198857  0.13782642  0.76480526  1  0  -0.623313  0  2.04282  0  0  -0.547893  0  2.314024  0  0  -0.577099  0  2.299761  0  0  -0.318729  -0.526855  0  2.322826  0
O  O99  1  0.90462970  0.86190844  0.73551280  1  0  -0.623639  0  2.04267  0  0  -0.548126  0  2.313497  0  0  -0.577315  0  2.299273  0  0  -0.318925  -0.52708  0  2.322246  0
O  O100  1  0.95800528  0.86217602  0.23519146  1  0  -0.623242  0  2.042761  0  0  -0.547975  0  2.31405  0  0  -0.577181  0  2.299791  0  0  -0.318703  -0.526936  0  2.322852  0
O  O101  1  0.09537855  0.13809231  0.26449985  1  0  -0.623845  0  2.042521  0  0  -0.548406  0  2.313391  0  0  -0.577586  0  2.299159  0  0  -0.319068  -0.527372  0  2.322172  0
O  O102  1  0.80931649  0.26487512  0.76293942  1  0  -0.59523  0  1.919438  0  0  -0.558249  0  2.153827  0  0  -0.585214  0  2.149959  0  0  -0.308274  -0.538006  0  2.155125  0
O  O103  1  0.54465026  0.73485879  0.73711945  1  0  -0.595948  0  1.918929  0  0  -0.559063  0  2.153252  0  0  -0.585998  0  2.149281  0  0  -0.309096  -0.538861  0  2.154617  0
O  O104  1  0.19068402  0.73512371  0.23704946  1  0  -0.595274  0  1.919328  0  0  -0.558322  0  2.153683  0  0  -0.585287  0  2.149812  0  0  -0.308246  -0.538087  0  2.155004  0
O  O105  1  0.45533616  0.26515252  0.26287048  1  0  -0.596183  0  1.918971  0  0  -0.559351  0  2.153292  0  0  -0.586286  0  2.149322  0  0  -0.309296  -0.539151  0  2.154666  0
O  O106  1  0.88636275  0.68005767  0.87554609  1  0  -0.345905  0  1.754483  0  0  -0.343141  0  1.948395  0  0  -0.354723  0  1.945131  0  0  -0.12525  -0.33575  0  1.950901  0
O  O107  1  0.20608605  0.31984183  0.62432894  1  0  -0.34563  0  1.752723  0  0  -0.343428  0  1.945869  0  0  -0.355005  0  1.94261  0  0  -0.125952  -0.336075  0  1.948461  0
O  O108  1  0.11364067  0.31993679  0.12445799  1  0  -0.345864  0  1.75455  0  0  -0.343004  0  1.948593  0  0  -0.354579  0  1.945312  0  0  -0.125155  -0.335619  0  1.9511  0
O  O109  1  0.79390489  0.68016156  0.37567841  1  0  -0.345498  0  1.752892  0  0  -0.34332  0  1.945995  0  0  -0.354898  0  1.942734  0  0  -0.125847  -0.335962  0  1.948576  0
O  O110  1  0.87177718  0.25443799  0.91324860  1  0  -0.328328  0  1.791228  0  0  -0.32486  0  1.98724  0  0  -0.336687  0  1.983317  0  0  -0.106397  -0.317149  0  1.990253  0
O  O111  1  0.61726802  0.74541825  0.58683189  1  0  -0.328255  0  1.792178  0  0  -0.325665  0  1.987933  0  0  -0.329824  0  1.994893  0  0  -0.107214  -0.317916  0  1.990906  0
O  O112  1  0.12820543  0.74555553  0.08674686  1  0  -0.328194  0  1.791496  0  0  -0.324778  0  1.987441  0  0  -0.336593  0  1.98351  0  0  -0.10636  -0.317073  0  1.990453  0
O  O113  1  0.38275614  0.25459397  0.41316164  1  0  -0.328247  0  1.79245  0  0  -0.325564  0  1.988252  0  0  -0.329843  0  1.995033  0  0  -0.107141  -0.317816  0  1.991221  0
O  O114  1  0.66806879  0.69290083  0.96427694  1  0  -0.339053  0  1.740479  0  0  -0.335157  0  1.930784  0  0  -0.346642  0  1.927262  0  0  -0.125119  -0.327754  0  1.933452  0
O  O115  1  0.97494939  0.30702544  0.53558056  1  0  -0.337137  0  1.741843  0  0  -0.333901  0  1.931623  0  0  -0.34556  0  1.928309  0  0  -0.124809  -0.326445  0  1.934246  0
O  O116  1  0.33192633  0.30708383  0.03572480  1  0  -0.339128  0  1.740189  0  0  -0.33514  0  1.93065  0  0  -0.346631  0  1.927128  0  0  -0.125081  -0.327734  0  1.933317  0
O  O117  1  0.02505421  0.69297617  0.46442664  1  0  -0.337247  0  1.741709  0  0  -0.334007  0  1.931409  0  0  -0.345669  0  1.928097  0  0  -0.124867  -0.326544  0  1.934028  0
O  O118  1  0.84819430  0.43878531  0.94298925  1  0  -0.340108  0  1.828195  0  0  -0.335387  0  2.029883  0  0  -0.350114  0  2.027528  0  0  -0.116229  -0.325263  0  2.031492  0
O  O119  1  0.40930853  0.56105057  0.55704731  1  0  -0.337026  0  1.827955  0  0  -0.333392  0  2.02944  0  0  -0.340624  0  2.038074  0  0  -0.114615  -0.32329  0  2.031109  0
O  O120  1  0.15178617  0.56120732  0.05700563  1  0  -0.34007  0  1.827825  0  0  -0.335443  0  2.029449  0  0  -0.350157  0  2.027062  0  0  -0.116343  -0.325318  0  2.031059  0
O  O121  1  0.59067342  0.43896532  0.44296511  1  0  -0.337149  0  1.82806  0  0  -0.333458  0  2.029644  0  0  -0.340809  0  2.038106  0  0  -0.114694  -0.323358  0  2.031314  0
