# generated using pymatgen
data_CuH18C28(N2O)4
_symmetry_space_group_name_H-M   'P 1'
_cell_length_a   7.09629378
_cell_length_b   8.03293724
_cell_length_c   10.86426440
_cell_angle_alpha   97.50028232
_cell_angle_beta   96.03382877
_cell_angle_gamma   97.83275789
_symmetry_Int_Tables_number   1
_chemical_formula_structural   CuH18C28(N2O)4
_chemical_formula_sum   'Cu1 H18 C28 N8 O4'
_cell_volume   603.49903808
_cell_formula_units_Z   1
loop_
 _symmetry_equiv_pos_site_id
 _symmetry_equiv_pos_as_xyz
  1  'x, y, z'
loop_
 _atom_site_type_symbol
 _atom_site_label
 _atom_site_symmetry_multiplicity
 _atom_site_fract_x
 _atom_site_fract_y
 _atom_site_fract_z
 _atom_site_occupancy
 _atom_site_hle17_ddec_charge
 _atom_site_hle17_ddec_spin_density
 _atom_site_hle17_ddec_sum_bond_order
 _atom_site_hle17_magmom
 _atom_site_hse06_10hf_ddec_charge
 _atom_site_hse06_10hf_ddec_spin_density
 _atom_site_hse06_10hf_ddec_sum_bond_order
 _atom_site_hse06_10hf_magmom
 _atom_site_hse06_ddec_charge
 _atom_site_hse06_ddec_spin_density
 _atom_site_hse06_ddec_sum_bond_order
 _atom_site_hse06_magmom
 _atom_site_pbe_cm5_charge
 _atom_site_pbe_ddec_charge
 _atom_site_pbe_ddec_spin_density
 _atom_site_pbe_ddec_sum_bond_order
 _atom_site_pbe_magmom
Cu  Cu0  1  0.50001328  0.99999638  0.00000169  1  0.833394  -0.663883  1.678637  -0.482  0.796657  -0.754055  2.060126  -0.597  0.893265  -0.821756  1.989507  -0.682  0.721265  0.736062  -0.709445  2.111698  -0.546
H  H1  1  0.64130491  0.42250154  0.76525936  1  0.301442  4.8e-05  0.898256  0.0  0.284536  2.2e-05  0.958096  0.0  0.292959  1e-05  0.951133  0.0  0.326161  0.278709  2e-06  0.962795  0.0
H  H2  1  0.35868041  0.57750165  0.23474582  1  0.301603  4.8e-05  0.898031  0.0  0.284679  2.2e-05  0.957912  0.0  0.293101  1e-05  0.950947  0.0  0.326193  0.278854  2e-06  0.962609  0.0
H  H3  1  0.44446642  0.13612160  0.25850460  1  0.096579  -0.00058  0.968621  -0.002  0.102276  -0.000571  1.037516  -0.001  0.105609  -0.000359  1.033836  -0.001  0.118379  0.099831  -0.000754  1.040066  -0.002
H  H4  1  0.55553771  0.86388447  0.74149657  1  0.096546  -0.000578  0.968668  -0.002  0.102238  -0.00057  1.037559  -0.001  0.105573  -0.000359  1.033877  -0.001  0.118343  0.099791  -0.000754  1.040105  -0.002
H  H5  1  0.99897324  0.37348084  0.45030065  1  0.107394  -0.000267  0.958121  -0.001  0.112528  -2.8e-05  1.029373  0.0  0.115809  2.3e-05  1.02594  0.0  0.112524  0.110242  -9.5e-05  1.031619  0.0
H  H6  1  0.00102668  0.62653435  0.54969680  1  0.107385  -0.000265  0.958034  -0.001  0.112529  -2.8e-05  1.029271  0.0  0.115809  2.4e-05  1.02584  0.0  0.112503  0.110242  -9.5e-05  1.031519  0.0
H  H7  1  0.13830186  0.28225952  0.25630271  1  0.111586  -0.000597  0.934767  -0.001  0.121781  -0.000545  0.99167  -0.001  0.125107  -0.000387  0.990206  0.0  0.112451  0.11929  -0.000679  0.993028  -0.001
H  H8  1  0.86170221  0.71776314  0.74369870  1  0.111553  -0.000599  0.934793  -0.001  0.121708  -0.000545  0.991741  -0.001  0.125037  -0.000387  0.990273  0.0  0.112429  0.119219  -0.000679  0.993106  -0.001
H  H9  1  0.92458059  0.11118457  0.07346605  1  0.086101  -0.000536  0.954905  -0.001  0.095376  -0.000584  1.015972  -0.001  0.097678  -0.000395  1.01387  -0.001  0.118708  0.093689  -0.000731  1.017154  -0.001
H  H10  1  0.07543056  0.88881249  0.92653718  1  0.086109  -0.000535  0.95492  -0.001  0.095384  -0.000584  1.015983  -0.001  0.09768  -0.000396  1.013891  -0.001  0.11871  0.093701  -0.000731  1.017144  -0.001
H  H11  1  0.11962923  0.06546979  0.55031987  1  0.094038  1.3e-05  0.975632  0.0  0.10457  2.2e-05  1.039652  0.0  0.106975  2.3e-05  1.03904  0.0  0.102847  0.102836  2.2e-05  1.040125  0.0
H  H12  1  0.88038033  0.93453518  0.44967873  1  0.094015  1.3e-05  0.97567  0.0  0.104507  2.2e-05  1.039751  0.0  0.106908  2.4e-05  1.039136  0.0  0.102821  0.102771  2.2e-05  1.040224  0.0
H  H13  1  0.82981122  0.01426092  0.66032486  1  0.097707  2.1e-05  0.958487  0.0  0.103723  -5.3e-05  1.029634  0.0  0.107437  -3.8e-05  1.026516  0.0  0.101473  0.100997  -6.9e-05  1.031994  0.0
H  H14  1  0.17017996  0.98573692  0.33966159  1  0.097781  2.1e-05  0.958521  0.0  0.103762  -5.4e-05  1.029685  0.0  0.107478  -3.8e-05  1.026567  0.0  0.101502  0.10104  -6.9e-05  1.032042  0.0
H  H15  1  0.07793038  0.43467938  0.94660657  1  0.095953  8.1e-05  0.979255  0.0  0.104704  -1.6e-05  1.044067  0.0  0.107872  -1.7e-05  1.042489  0.0  0.098986  0.102521  -1.8e-05  1.045081  0.0
H  H16  1  0.92206132  0.56529479  0.05339259  1  0.095927  8.3e-05  0.979335  0.0  0.104673  -1.6e-05  1.044161  0.0  0.107841  -1.7e-05  1.042582  0.0  0.098988  0.102484  -1.8e-05  1.045176  0.0
H  H17  1  0.36087803  0.48230870  0.83934153  1  0.104653  -6.8e-05  0.939511  0.0  0.116269  -6.3e-05  0.997106  0.0  0.119032  -3.3e-05  0.996143  0.0  0.106441  0.114145  -9.9e-05  0.998181  0.0
H  H18  1  0.63912201  0.51768950  0.16066301  1  0.104602  -6.8e-05  0.939558  0.0  0.11621  -6.3e-05  0.997164  0.0  0.118972  -3.3e-05  0.996199  0.0  0.106422  0.114083  -9.9e-05  0.998239  0.0
C  C19  1  0.59873848  0.17045441  0.26180066  1  0.095297  0.009658  3.639813  0.006  0.055626  0.002438  3.892687  0.001  0.06558  0.004156  3.909422  0.003  0.047523  0.049809  0.001071  3.880927  0.0
C  C20  1  0.40126745  0.82954502  0.73820531  1  0.095294  0.009641  3.639958  0.006  0.055653  0.002438  3.892831  0.001  0.065607  0.004156  3.909562  0.003  0.047533  0.04984  0.001073  3.881059  0.0
C  C21  1  0.70960219  0.25959662  0.37059021  1  -0.03318  -0.008077  3.773685  -0.009  -0.009763  -0.003744  4.003918  -0.005  -0.016444  -0.003352  4.026012  -0.004  0.004613  -0.005533  -0.003965  3.988652  -0.005
C  C22  1  0.29040414  0.74040555  0.62941245  1  -0.033333  -0.008065  3.773743  -0.009  -0.00996  -0.003742  4.004057  -0.005  -0.016639  -0.003352  4.026153  -0.004  0.004552  -0.005723  -0.003965  3.988775  -0.005
C  C23  1  0.90721801  0.30345594  0.36829586  1  -0.018768  0.011653  3.6659  0.007  -0.050663  0.004709  3.918639  0.003  -0.044943  0.005297  3.933835  0.003  -0.054978  -0.054286  0.004215  3.908209  0.002
C  C24  1  0.09278513  0.69655261  0.63170648  1  -0.01879  0.01163  3.665727  0.007  -0.050695  0.004706  3.918541  0.003  -0.044973  0.005299  3.933728  0.003  -0.054997  -0.054323  0.004215  3.908113  0.002
C  C25  1  0.98492072  0.25300049  0.26010523  1  -0.100323  -0.008464  3.731524  -0.009  -0.11039  -0.003812  3.984799  -0.004  -0.117858  -0.003466  4.004211  -0.004  -0.07361  -0.105765  -0.004012  3.971651  -0.005
C  C26  1  0.01507969  0.74701684  0.73989989  1  -0.100071  -0.00845  3.731356  -0.009  -0.110102  -0.003813  3.984634  -0.004  -0.11757  -0.003466  4.00404  -0.004  -0.073463  -0.105486  -0.004013  3.971491  -0.005
C  C27  1  0.86648522  0.15917390  0.15732268  1  0.128914  0.008838  3.681035  0.006  0.098193  0.002015  3.932873  0.001  0.107606  0.003787  3.9534  0.002  0.046126  0.092663  0.000727  3.917944  0.0
C  C28  1  0.13352256  0.84082808  0.84268373  1  0.128767  0.008811  3.681225  0.006  0.098049  0.002015  3.933044  0.001  0.107463  0.003781  3.953572  0.002  0.046039  0.092527  0.000725  3.918116  0.0
C  C29  1  0.62140182  0.30038496  0.48416865  1  0.282995  0.000624  3.810966  0.001  0.26184  -0.000245  4.086889  0.0  0.272759  -1.3e-05  4.103962  0.0  0.207933  0.254957  -0.000473  4.074877  0.0
C  C30  1  0.37860985  0.69962352  0.51583605  1  0.283106  0.000612  3.811113  0.001  0.261962  -0.000243  4.087054  0.0  0.272879  -1.8e-05  4.10413  0.0  0.207978  0.25508  -0.000473  4.075036  0.0
C  C31  1  0.42285255  0.30275431  0.61764370  1  0.323538  0.000961  3.768264  0.001  0.291397  0.000181  4.038282  0.0  0.306306  0.000214  4.052061  0.0  0.225186  0.281624  9.6e-05  4.028683  0.0
C  C32  1  0.57714246  0.69725716  0.38235114  1  0.323471  0.000961  3.768342  0.001  0.291419  0.000181  4.03832  0.0  0.306332  0.000212  4.052097  0.0  0.225134  0.281636  9.6e-05  4.028741  0.0
C  C33  1  0.25692321  0.27737179  0.68502869  1  -0.004316  -0.002653  3.804208  -0.002  0.012963  -0.00064  4.0417  -0.001  0.010663  -0.000309  4.063997  0.0  -0.007283  0.014221  -0.000833  4.026799  -0.001
C  C34  1  0.74307261  0.72263567  0.31496938  1  -0.004206  -0.002661  3.804203  -0.003  0.0129  -0.000636  4.041886  -0.001  0.010594  -0.000309  4.064194  0.0  -0.007311  0.014161  -0.000832  4.026987  -0.001
C  C35  1  0.10589947  0.14603357  0.63644129  1  -0.085017  0.001926  3.724964  0.001  -0.108548  0.000337  3.974818  0.0  -0.110689  0.000318  3.996087  0.0  -0.085123  -0.106964  0.000206  3.960169  0.0
C  C36  1  0.89408957  0.85396773  0.36355191  1  -0.085019  0.001944  3.724811  0.001  -0.108501  0.000332  3.974752  0.0  -0.110634  0.000317  3.996014  0.0  -0.085064  -0.106916  0.000206  3.960107  0.0
C  C37  1  0.94610351  0.11722959  0.69884967  1  -0.074378  -0.001546  3.743193  -0.001  -0.097483  -0.000362  3.994221  0.0  -0.097599  -0.000122  4.013367  0.0  -0.087407  -0.097232  -0.000648  3.981257  0.0
C  C38  1  0.05389291  0.88276572  0.30113678  1  -0.07438  -0.001558  3.742995  -0.001  -0.097433  -0.00036  3.993974  0.0  -0.097545  -0.00012  4.013107  0.0  -0.087412  -0.097192  -0.000647  3.981029  0.0
C  C39  1  0.93359083  0.22198276  0.81058949  1  -0.052291  -0.009715  3.748952  -0.01  -0.032176  -0.005043  3.982938  -0.006  -0.037918  -0.003445  4.003203  -0.004  -0.018123  -0.028415  -0.006402  3.969231  -0.007
C  C40  1  0.06640402  0.77801094  0.18940310  1  -0.052363  -0.009705  3.749225  -0.01  -0.03224  -0.005043  3.98324  -0.006  -0.03798  -0.003449  4.003486  -0.004  -0.018129  -0.028483  -0.006404  3.969528  -0.007
C  C41  1  0.08443621  0.35304609  0.85943455  1  -0.080027  -0.001302  3.736537  -0.001  -0.102425  -0.001045  3.985955  -0.001  -0.104639  -0.000616  4.007691  -0.001  -0.087697  -0.101277  -0.001295  3.971841  -0.001
C  C42  1  0.91556554  0.64694616  0.14056198  1  -0.080046  -0.001313  3.736741  -0.001  -0.102434  -0.001045  3.986126  -0.001  -0.104646  -0.000614  4.007856  -0.001  -0.087725  -0.101281  -0.001294  3.972008  -0.001
C  C43  1  0.24583968  0.37990755  0.79832677  1  -0.075586  -0.000601  3.720407  -0.001  -0.10296  -0.000163  3.977016  0.0  -0.104898  2.5e-05  3.999012  0.0  -0.082786  -0.1019  -0.000396  3.962973  -0.001
C  C44  1  0.75415485  0.62009225  0.20167118  1  -0.075532  -0.000589  3.720244  -0.001  -0.102834  -0.000164  3.976878  0.0  -0.104771  2.3e-05  3.998876  0.0  -0.082725  -0.101773  -0.000397  3.96283  -0.001
C  C45  1  0.76112199  0.19807824  0.87880528  1  0.63078  0.0067  3.903472  0.007  0.583869  0.001656  4.212166  0.003  0.621466  0.002203  4.203843  0.003  0.204312  0.559064  0.001052  4.21522  0.003
C  C46  1  0.23887423  0.80190634  0.12119086  1  0.630866  0.006696  3.903281  0.007  0.583841  0.001654  4.21214  0.003  0.621441  0.002199  4.20381  0.003  0.204233  0.559048  0.001048  4.215192  0.003
N  N47  1  0.67535475  0.12081841  0.15726849  1  -0.300404  -0.075493  3.316397  -0.096  -0.248154  -0.055367  3.613195  -0.075  -0.280412  -0.045819  3.636237  -0.067  -0.337929  -0.22834  -0.060537  3.59871  -0.078
N  N48  1  0.32464651  0.87917847  0.84273688  1  -0.300353  -0.075485  3.316578  -0.096  -0.248098  -0.055368  3.613349  -0.075  -0.280355  -0.045819  3.636395  -0.067  -0.337891  -0.22829  -0.060541  3.598858  -0.078
N  N49  1  0.43499749  0.24350492  0.49807823  1  -0.458495  -0.000926  2.890396  -0.001  -0.432118  -0.000242  3.161614  0.0  -0.44715  -0.0002  3.172468  0.0  -0.332949  -0.422529  -0.00028  3.15434  0.0
N  N50  1  0.56499671  0.75650112  0.50192233  1  -0.458554  -0.000923  2.890615  -0.001  -0.432181  -0.000242  3.161805  0.0  -0.447212  -0.000199  3.172656  0.0  -0.332997  -0.422598  -0.00028  3.154553  0.0
N  N51  1  0.59521181  0.39343407  0.67054695  1  -0.229592  -0.000994  3.446958  -0.001  -0.170589  -0.000261  3.687373  0.0  -0.185973  -0.000226  3.704635  0.0  -0.267953  -0.160482  -0.000304  3.675369  0.0
N  N52  1  0.40478140  0.60657451  0.32945386  1  -0.229823  -0.000997  3.446906  -0.001  -0.170831  -0.000259  3.687307  0.0  -0.186214  -0.000225  3.704565  0.0  -0.268025  -0.160726  -0.000304  3.675306  0.0
N  N53  1  0.72396063  0.39159977  0.58769762  1  -0.252056  -0.002755  2.88264  -0.003  -0.238999  -0.00056  3.157166  -0.001  -0.248336  -0.000527  3.17544  -0.001  -0.214078  -0.232434  -0.000605  3.14446  -0.001
N  N54  1  0.27604050  0.60840472  0.41230870  1  -0.251929  -0.002746  2.882537  -0.003  -0.238855  -0.000562  3.157047  -0.001  -0.248194  -0.000524  3.175322  -0.001  -0.213969  -0.232291  -0.000605  3.14434  -0.001
O  O55  1  0.70877201  0.04299665  0.89769411  1  -0.603739  -0.095175  2.083816  -0.128  -0.571597  -0.061853  2.371343  -0.092  -0.615982  -0.047673  2.361185  -0.076  -0.328526  -0.542253  -0.07044  2.378072  -0.099
O  O56  1  0.29125634  0.95697624  0.10230898  1  -0.603761  -0.095157  2.083934  -0.128  -0.57151  -0.061844  2.37145  -0.092  -0.615905  -0.047664  2.361313  -0.076  -0.328496  -0.542146  -0.070432  2.378114  -0.099
O  O57  1  0.68157301  0.32269722  0.91497196  1  -0.605496  0.001172  1.913284  -0.001  -0.572117  0.000841  2.144049  -0.001  -0.596655  0.001821  2.13471  0.0  -0.315861  -0.555224  -3.1e-05  2.14884  -0.002
O  O58  1  0.31841420  0.67727586  0.08502310  1  -0.605568  0.001171  1.913021  -0.001  -0.572167  0.00084  2.143857  -0.001  -0.596704  0.001819  2.134513  0.0  -0.315804  -0.555274  -3.3e-05  2.148636  -0.002
