# generated using pymatgen
data_NiP2H20C20(NO2)4
_symmetry_space_group_name_H-M   'P 1'
_cell_length_a   11.15602796
_cell_length_b   11.15447082
_cell_length_c   21.95936624
_cell_angle_alpha   95.48664588
_cell_angle_beta   95.49442246
_cell_angle_gamma   94.06864470
_symmetry_Int_Tables_number   1
_chemical_formula_structural   NiP2H20C20(NO2)4
_chemical_formula_sum   'Ni4 P8 H80 C80 N16 O32'
_cell_volume   2698.73446012
_cell_formula_units_Z   4
loop_
 _symmetry_equiv_pos_site_id
 _symmetry_equiv_pos_as_xyz
  1  'x, y, z'
loop_
 _atom_site_type_symbol
 _atom_site_label
 _atom_site_symmetry_multiplicity
 _atom_site_fract_x
 _atom_site_fract_y
 _atom_site_fract_z
 _atom_site_occupancy
 _atom_site_pbe_bader_charge
 _atom_site_pbe_bader_spin_density
 _atom_site_pbe_cm5_charge
 _atom_site_pbe_ddec_charge
 _atom_site_pbe_ddec_spin_density
 _atom_site_pbe_ddec_sum_bond_order
 _atom_site_pbe_magmom
Ni  Ni0  1  0.59677548  0.40319692  0.24996947  1  1.179281  1.587799  0.712063  0.741537  1.792295  2.440656  1.57
Ni  Ni1  1  0.40322947  0.59679198  0.75002039  1  1.179273  1.587777  0.712062  0.741587  1.79231  2.44059  1.57
Ni  Ni2  1  0.99998120  0.00000829  0.00000442  1  1.172113  1.566436  0.724432  0.754956  1.780196  2.590338  1.551
Ni  Ni3  1  0.00002411  0.99998852  0.50000577  1  1.172164  1.566561  0.724006  0.75461  1.780337  2.590339  1.551
P  P4  1  0.56656284  0.37556250  0.07508772  1  3.627392  0.003411  0.425378  1.509765  0.004081  5.424129  0.008
P  P5  1  0.37549391  0.56658140  0.57514637  1  3.629259  0.003404  0.425545  1.510538  0.004085  5.42421  0.008
P  P6  1  0.43343630  0.62445651  0.92490690  1  3.627986  0.003408  0.425331  1.50987  0.004079  5.423759  0.007
P  P7  1  0.62452648  0.43340903  0.42485018  1  3.629051  0.003402  0.425478  1.5105  0.004083  5.423988  0.008
P  P8  1  0.32929537  0.02216097  0.01637073  1  3.632868  0.004477  0.424749  1.521185  0.005387  5.406284  0.009
P  P9  1  0.02219548  0.32928101  0.51633578  1  3.634394  0.004478  0.424676  1.520971  0.005389  5.407094  0.009
P  P10  1  0.67067610  0.97784020  0.98363091  1  3.632957  0.004474  0.424851  1.521094  0.005387  5.406109  0.009
P  P11  1  0.97783674  0.67070789  0.48366489  1  3.6341  0.00448  0.424697  1.521202  0.00539  5.406287  0.009
H  H12  1  0.59035052  0.61296136  0.34487021  1  0.169963  0.002035  0.121587  0.100326  0.000713  1.038602  0.002
H  H13  1  0.61311623  0.59037129  0.84495088  1  0.16894  0.002034  0.121523  0.100225  0.000711  1.038367  0.002
H  H14  1  0.40966794  0.38702423  0.65511146  1  0.169505  0.002034  0.121526  0.100215  0.000712  1.038536  0.002
H  H15  1  0.38688229  0.40962238  0.15503663  1  0.169185  0.002035  0.121476  0.100207  0.000712  1.038276  0.002
H  H16  1  0.59080799  0.83746581  0.34888844  1  0.091187  0.001063  0.110902  0.120264  0.000492  0.998035  0.0
H  H17  1  0.83755226  0.59079081  0.84893300  1  0.090976  0.001064  0.111032  0.120407  0.000492  0.99825  0.0
H  H18  1  0.40921235  0.16251911  0.65109785  1  0.090957  0.001064  0.110986  0.120376  0.000492  0.998203  0.0
H  H19  1  0.16244297  0.40918459  0.15105808  1  0.092264  0.001063  0.111043  0.120413  0.000492  0.99824  0.0
H  H20  1  0.62210234  0.80116595  0.15293800  1  0.111763  0.000984  0.117317  0.136724  0.000461  0.98465  0.0
H  H21  1  0.80119123  0.62215787  0.65300859  1  0.112521  0.000984  0.117136  0.136106  0.000462  0.985075  0.0
H  H22  1  0.37783919  0.19882313  0.84704078  1  0.11149  0.000984  0.117311  0.136641  0.000462  0.984636  0.0
H  H23  1  0.19879750  0.37782586  0.34697848  1  0.112593  0.000983  0.1172  0.136197  0.000461  0.985232  0.0
H  H24  1  0.62575389  0.57935172  0.15832417  1  0.174828  0.001933  0.120232  0.102215  0.000651  1.054362  0.001
H  H25  1  0.57940771  0.62586609  0.65842000  1  0.177263  0.001933  0.120204  0.101977  0.000652  1.055025  0.001
H  H26  1  0.37420296  0.42064152  0.84165549  1  0.175916  0.001934  0.120253  0.102126  0.000652  1.054514  0.001
H  H27  1  0.42059408  0.37415768  0.34157541  1  0.177335  0.001932  0.120133  0.101899  0.000652  1.054899  0.001
H  H28  1  0.49317695  0.18599781  0.16558144  1  0.161696  0.002148  0.121298  0.10269  0.000764  1.029453  0.002
H  H29  1  0.18585175  0.49310509  0.66558663  1  0.160558  0.002145  0.12127  0.102625  0.000762  1.029113  0.002
H  H30  1  0.50682591  0.81401891  0.83441825  1  0.162123  0.002148  0.121266  0.102675  0.000764  1.029504  0.002
H  H31  1  0.81415358  0.50687322  0.33441962  1  0.160965  0.002144  0.121228  0.102549  0.000762  1.029367  0.002
H  H32  1  0.49491258  0.96328276  0.16148786  1  0.137434  0.001036  0.116354  0.133771  0.000492  0.992715  0.0
H  H33  1  0.96321781  0.49489972  0.66152228  1  0.137554  0.001039  0.116476  0.133704  0.000494  0.992295  0.001
H  H34  1  0.50507202  0.03673936  0.83850441  1  0.13773  0.001035  0.116356  0.133707  0.000493  0.99258  0.0
H  H35  1  0.03678997  0.50509593  0.33848395  1  0.137694  0.001039  0.116508  0.13367  0.000494  0.99226  0.001
H  H36  1  0.71095261  0.01632649  0.33842275  1  0.091379  0.001048  0.10501  0.109403  0.000441  1.029434  0.001
H  H37  1  0.01635002  0.71097309  0.83848152  1  0.090587  0.001047  0.105144  0.10958  0.000441  1.02909  0.001
H  H38  1  0.28904348  0.98365077  0.66156709  1  0.091624  0.001048  0.104959  0.109348  0.000441  1.029569  0.001
H  H39  1  0.98368455  0.28904217  0.16152183  1  0.091643  0.001046  0.105262  0.109731  0.00044  1.029042  0.001
H  H40  1  0.69950691  0.23845549  0.33486828  1  0.151976  0.002148  0.123733  0.105998  0.000765  1.012487  0.001
H  H41  1  0.23840313  0.69948667  0.83489401  1  0.153082  0.002143  0.123759  0.105943  0.000763  1.012268  0.001
H  H42  1  0.30051003  0.76152199  0.66512616  1  0.151791  0.002148  0.123698  0.106044  0.000765  1.012443  0.001
H  H43  1  0.76162763  0.30053352  0.16509983  1  0.153202  0.002143  0.123645  0.105851  0.000763  1.012321  0.001
H  H44  1  0.62354332  0.20972836  0.01872534  1  0.673356  1.8e-05  0.308518  0.404217  1.5e-05  0.924264  0.0
H  H45  1  0.20968765  0.62355513  0.51875379  1  0.672341  1.9e-05  0.30852  0.404337  1.5e-05  0.923992  0.0
H  H46  1  0.37644240  0.79027946  0.98126770  1  0.673462  1.8e-05  0.308568  0.404271  1.5e-05  0.924121  0.0
H  H47  1  0.79033013  0.37642421  0.48123804  1  0.672002  1.9e-05  0.308574  0.404349  1.5e-05  0.923999  0.0
H  H48  1  0.59757010  0.53801411  0.02123599  1  0.662075  8e-05  0.310464  0.398545  7.3e-05  0.92253  0.0
H  H49  1  0.53787350  0.59755471  0.52129351  1  0.661543  8.1e-05  0.310317  0.397942  7.3e-05  0.923094  0.0
H  H50  1  0.40239558  0.46200534  0.97875894  1  0.66135  8e-05  0.310473  0.398579  7.3e-05  0.92249  0.0
H  H51  1  0.46215308  0.40243893  0.47869619  1  0.661497  8e-05  0.31028  0.397923  7.3e-05  0.92307  0.0
H  H52  1  0.82398195  0.92783909  0.08416104  1  0.170662  0.001962  0.121608  0.096865  0.000653  1.065096  0.002
H  H53  1  0.92773099  0.82393615  0.58417137  1  0.170641  0.001957  0.121593  0.096953  0.000651  1.064827  0.002
H  H54  1  0.17596788  0.07221854  0.91583992  1  0.169981  0.00196  0.121554  0.096776  0.000652  1.065136  0.002
H  H55  1  0.07228600  0.17604595  0.41583285  1  0.171126  0.001955  0.121595  0.096946  0.000651  1.064727  0.002
H  H56  1  0.82336805  0.91269799  0.19649405  1  0.076681  0.001051  0.104104  0.105481  0.000474  1.047404  0.0
H  H57  1  0.91260450  0.82333138  0.69651022  1  0.077127  0.001051  0.104047  0.105511  0.000474  1.047296  0.0
H  H58  1  0.17658911  0.08735769  0.80351262  1  0.07692  0.00105  0.104191  0.105674  0.000474  1.047289  0.0
H  H59  1  0.08737407  0.17667948  0.30349265  1  0.077089  0.001051  0.103976  0.105349  0.000474  1.047252  0.0
H  H60  1  0.18785875  0.08195694  0.22070163  1  0.080138  0.001225  0.111515  0.120193  0.000561  0.992028  0.001
H  H61  1  0.08197383  0.18793853  0.72072576  1  0.080854  0.001225  0.111503  0.120207  0.000561  0.991359  0.001
H  H62  1  0.81212243  0.91805590  0.77929507  1  0.079884  0.001224  0.111463  0.120078  0.000561  0.991883  0.001
H  H63  1  0.91800200  0.81207295  0.27927564  1  0.079229  0.001224  0.111462  0.120076  0.000561  0.991541  0.001
H  H64  1  0.17552322  0.08437223  0.10626084  1  0.155811  0.002057  0.121108  0.097489  0.000717  1.040986  0.001
H  H65  1  0.08439516  0.17556240  0.60627546  1  0.155188  0.002055  0.121092  0.097629  0.000716  1.040855  0.001
H  H66  1  0.82445478  0.91561150  0.89373621  1  0.155331  0.002058  0.121109  0.097497  0.000717  1.040884  0.001
H  H67  1  0.91562637  0.82441376  0.39372323  1  0.155086  0.002055  0.121076  0.097559  0.000716  1.040717  0.001
H  H68  1  0.19009076  0.20814742  0.98521650  1  0.109304  0.002121  0.120909  0.087423  0.000763  1.040441  0.002
H  H69  1  0.20826024  0.19016691  0.48524257  1  0.108917  0.002123  0.120828  0.087144  0.000764  1.040436  0.002
H  H70  1  0.80987538  0.79186153  0.01480165  1  0.110063  0.002123  0.121004  0.087546  0.000764  1.040236  0.002
H  H71  1  0.79178193  0.80980015  0.51473342  1  0.10656  0.002126  0.12083  0.08758  0.000764  1.039768  0.002
H  H72  1  0.18730937  0.42555779  0.97577159  1  0.118984  0.001058  0.109049  0.128444  0.000493  1.035696  0.001
H  H73  1  0.42559925  0.18734917  0.47573058  1  0.118771  0.001059  0.108959  0.128324  0.000493  1.035599  0.001
H  H74  1  0.81271878  0.57447307  0.02431278  1  0.118599  0.001059  0.109001  0.128433  0.000493  1.035939  0.001
H  H75  1  0.57442546  0.81260958  0.52421326  1  0.118311  0.001058  0.109018  0.128378  0.000493  1.035826  0.001
H  H76  1  0.82739617  0.40259443  0.03656870  1  0.125956  0.000915  0.109283  0.122578  0.00043  1.043934  0.0
H  H77  1  0.40270740  0.82738649  0.53657282  1  0.125405  0.000917  0.10928  0.12257  0.000431  1.044116  0.0
H  H78  1  0.17258154  0.59742823  0.96345060  1  0.126676  0.000914  0.109305  0.122607  0.00043  1.043659  0.0
H  H79  1  0.59735196  0.17261962  0.46344945  1  0.126318  0.000915  0.109341  0.122643  0.000431  1.044043  0.0
H  H80  1  0.84593886  0.18557201  0.04082019  1  0.147912  0.002023  0.121418  0.104257  0.000697  1.026482  0.001
H  H81  1  0.18573378  0.84591183  0.54089495  1  0.150367  0.002019  0.121231  0.104513  0.000698  1.025999  0.001
H  H82  1  0.15399533  0.81443543  0.95917184  1  0.148658  0.002024  0.121467  0.104453  0.000698  1.026133  0.001
H  H83  1  0.81433212  0.15409418  0.45914356  1  0.14943  0.002022  0.121307  0.104346  0.000698  1.026169  0.001
H  H84  1  0.46479445  0.07510342  0.95631511  1  0.665543  0.000183  0.299678  0.393731  0.00017  0.951289  0.0
H  H85  1  0.07515501  0.46483199  0.45633161  1  0.665259  0.000183  0.299728  0.393733  0.000169  0.951292  0.0
H  H86  1  0.53516621  0.92489219  0.04368305  1  0.665354  0.000183  0.299822  0.393998  0.00017  0.950902  0.0
H  H87  1  0.92487827  0.53514529  0.54366721  1  0.665394  0.000183  0.299732  0.393872  0.000169  0.95113  0.0
H  H88  1  0.38728030  0.21361395  0.05388742  1  0.669592  -3e-06  0.303229  0.391406  1e-05  0.947627  0.0
H  H89  1  0.21355567  0.38724580  0.55392613  1  0.668539  -3e-06  0.303365  0.391323  1.1e-05  0.947708  0.0
H  H90  1  0.61270383  0.78638661  0.94611341  1  0.669633  -3e-06  0.303199  0.39128  1e-05  0.947811  0.0
H  H91  1  0.78647647  0.61274576  0.44607147  1  0.669144  -3e-06  0.303461  0.391478  1.1e-05  0.947492  0.0
C  C92  1  0.59771964  0.65942289  0.30381468  1  0.437158  -0.003403  0.049643  0.099784  -0.003845  3.919738  -0.002
C  C93  1  0.65951103  0.59773312  0.80388325  1  0.437506  -0.003393  0.049868  0.100318  -0.003833  3.918704  -0.002
C  C94  1  0.40229797  0.34055901  0.69616678  1  0.436056  -0.003402  0.049551  0.099798  -0.003843  3.919246  -0.002
C  C95  1  0.34049124  0.40225737  0.19611067  1  0.437924  -0.003394  0.049887  0.100069  -0.003835  3.918971  -0.002
C  C96  1  0.59875541  0.78416176  0.30541488  1  -0.028956  0.005069  -0.081275  -0.170938  0.002803  3.937847  0.004
C  C97  1  0.78423711  0.59875346  0.80547048  1  -0.030317  0.005072  -0.081221  -0.171231  0.002805  3.938835  0.004
C  C98  1  0.40125851  0.21582702  0.69456855  1  -0.028759  0.005066  -0.081408  -0.171132  0.002801  3.938416  0.004
C  C99  1  0.21575806  0.40122369  0.19451795  1  -0.032155  0.005073  -0.081278  -0.171105  0.002805  3.938581  0.004
C  C100  1  0.60547480  0.83894712  0.25083369  1  -0.021331  -0.005611  0.009727  0.096518  -0.006065  4.018582  -0.003
C  C101  1  0.83898338  0.60553857  0.75090397  1  -0.017112  -0.005593  0.009334  0.09624  -0.006046  4.02026  -0.003
C  C102  1  0.39451190  0.16104718  0.74914876  1  -0.021369  -0.00561  0.009679  0.096591  -0.006064  4.018737  -0.003
C  C103  1  0.16101440  0.39444696  0.24908632  1  -0.016747  -0.005594  0.009411  0.096166  -0.006047  4.019922  -0.003
C  C104  1  0.61497649  0.76404887  0.19676259  1  -0.007136  0.004824  -0.080249  -0.178447  0.002697  3.933688  0.004
C  C105  1  0.76410878  0.61502269  0.69683565  1  -0.01069  0.004822  -0.079867  -0.177239  0.002697  3.934201  0.004
C  C106  1  0.38500303  0.23594022  0.80321747  1  -0.005767  0.004824  -0.080206  -0.178216  0.002698  3.933707  0.004
C  C107  1  0.23589442  0.38496701  0.30315964  1  -0.010942  0.00482  -0.080012  -0.177504  0.002696  3.934339  0.004
C  C108  1  0.61684409  0.64024798  0.19910305  1  0.42152  -0.003658  0.047059  0.097835  -0.004239  3.916213  -0.003
C  C109  1  0.64032829  0.61688861  0.69917956  1  0.416316  -0.003644  0.046914  0.097497  -0.004224  3.917408  -0.003
C  C110  1  0.38313721  0.35974126  0.80087573  1  0.42028  -0.003657  0.04713  0.097828  -0.00424  3.916904  -0.003
C  C111  1  0.35966210  0.38310702  0.30081040  1  0.415284  -0.003638  0.046915  0.097642  -0.004219  3.917313  -0.003
C  C112  1  0.53948592  0.14467063  0.20313000  1  0.455491  -0.003847  0.052222  0.101176  -0.004366  3.912704  -0.003
C  C113  1  0.14457568  0.53948018  0.70313398  1  0.45796  -0.003831  0.052164  0.101277  -0.004347  3.911984  -0.003
C  C114  1  0.46050799  0.85533893  0.79686850  1  0.455332  -0.003846  0.052148  0.101047  -0.004365  3.912497  -0.003
C  C115  1  0.85543187  0.46052529  0.29686587  1  0.457561  -0.003828  0.052157  0.101291  -0.004346  3.912154  -0.003
C  C116  1  0.54173303  0.01999215  0.20105307  1  0.002075  0.005226  -0.073826  -0.157287  0.002898  3.900396  0.004
C  C117  1  0.01992422  0.54176570  0.70108906  1  0.001965  0.00523  -0.073883  -0.157077  0.0029  3.900219  0.004
C  C118  1  0.45824807  0.98002243  0.79893915  1  0.001463  0.005228  -0.073637  -0.15696  0.002899  3.900074  0.004
C  C119  1  0.98008798  0.45823303  0.29891342  1  0.001768  0.00523  -0.073893  -0.156987  0.0029  3.900132  0.004
C  C120  1  0.60250739  0.97041074  0.25038140  1  -0.083652  -0.005701  0.007955  0.091829  -0.00613  4.012216  -0.004
C  C121  1  0.97041762  0.60257114  0.75042850  1  -0.083611  -0.005693  0.007723  0.091113  -0.006123  4.012609  -0.004
C  C122  1  0.39746772  0.02958258  0.74961277  1  -0.083291  -0.005699  0.007862  0.091562  -0.006129  4.012447  -0.004
C  C123  1  0.02958271  0.39743455  0.24957239  1  -0.083252  -0.005689  0.007766  0.091322  -0.006119  4.013009  -0.004
C  C124  1  0.66038315  0.04991020  0.29951998  1  -0.037682  0.005082  -0.083507  -0.174684  0.002827  3.95276  0.004
C  C125  1  0.04992917  0.66044888  0.79955717  1  -0.037693  0.005076  -0.083503  -0.174533  0.002825  3.952483  0.004
C  C126  1  0.33960204  0.95007418  0.70047424  1  -0.037928  0.005082  -0.08349  -0.174671  0.002828  3.952726  0.004
C  C127  1  0.95009078  0.33957123  0.20043981  1  -0.039586  0.005076  -0.083705  -0.174873  0.002825  3.953026  0.004
C  C128  1  0.65540635  0.17346151  0.29786502  1  0.456395  -0.003567  0.04786  0.09715  -0.004043  3.919651  -0.002
C  C129  1  0.17343925  0.65542287  0.79787267  1  0.453925  -0.003557  0.04777  0.097161  -0.004038  3.919544  -0.002
C  C130  1  0.34458799  0.82652020  0.70213496  1  0.455749  -0.003563  0.047849  0.097078  -0.004043  3.919648  -0.002
C  C131  1  0.82657904  0.34458717  0.20212377  1  0.454454  -0.003558  0.047923  0.097288  -0.004039  3.919497  -0.002
C  C132  1  0.90400189  0.95615863  0.11569592  1  0.46086  -0.004681  0.047405  0.095149  -0.005214  3.93883  -0.003
C  C133  1  0.95606693  0.90399253  0.61568568  1  0.461142  -0.004697  0.047619  0.095305  -0.005225  3.937713  -0.003
C  C134  1  0.09595849  0.04386225  0.88431021  1  0.461818  -0.004677  0.047755  0.09554  -0.005211  3.938612  -0.003
C  C135  1  0.04393096  0.09599220  0.38431277  1  0.460882  -0.004694  0.04765  0.095278  -0.005223  3.93757  -0.003
C  C136  1  0.90382973  0.94915549  0.17808730  1  -0.056704  0.004928  -0.083601  -0.169067  0.00269  3.956105  0.004
C  C137  1  0.94906132  0.90382859  0.67808607  1  -0.057656  0.004932  -0.083589  -0.169073  0.002692  3.955026  0.004
C  C138  1  0.09613847  0.05088682  0.82191835  1  -0.057455  0.004925  -0.083683  -0.169309  0.002689  3.956422  0.004
C  C139  1  0.05091555  0.09617307  0.32191357  1  -0.057643  0.004925  -0.083534  -0.169024  0.002688  3.955435  0.004
C  C140  1  0.00662782  0.99436017  0.21693644  1  0.027581  -0.006773  0.007671  0.100699  -0.007329  4.038632  -0.004
C  C141  1  0.99431839  0.00663775  0.71693958  1  -0.027387  -0.006846  0.007513  0.100075  -0.00734  4.038082  -0.004
C  C142  1  0.99335425  0.00566277  0.78307078  1  0.028206  -0.006765  0.007703  0.100827  -0.00732  4.038753  -0.004
C  C143  1  0.00566546  0.99338169  0.28306165  1  -0.027635  -0.00684  0.00747  0.100207  -0.007333  4.03836  -0.004
C  C144  1  0.10621412  0.04554976  0.19166376  1  0.027015  0.004592  -0.082165  -0.175222  0.002533  3.95326  0.004
C  C145  1  0.04552654  0.10626094  0.69167438  1  0.025066  0.004596  -0.082051  -0.17497  0.002534  3.952384  0.004
C  C146  1  0.89377085  0.95445081  0.80833165  1  0.027531  0.004588  -0.082086  -0.175006  0.002531  3.953097  0.004
C  C147  1  0.95445016  0.89374785  0.30832056  1  0.027257  0.004594  -0.081904  -0.174719  0.002533  3.95203  0.004
C  C148  1  0.10026911  0.04723870  0.12852817  1  0.435283  -0.004563  0.050737  0.099462  -0.005178  3.933764  -0.003
C  C149  1  0.04720930  0.10029371  0.62853194  1  0.436182  -0.004574  0.050717  0.099201  -0.005187  3.933473  -0.003
C  C150  1  0.89970218  0.95276958  0.87146696  1  0.435226  -0.004557  0.050825  0.099377  -0.005171  3.933543  -0.003
C  C151  1  0.95279294  0.89970314  0.37146682  1  0.435711  -0.004568  0.050832  0.099225  -0.005181  3.93319  -0.003
C  C152  1  0.11075701  0.25478432  0.99508439  1  0.451424  -0.001811  0.044535  0.091375  -0.002422  3.952997  -0.001
C  C153  1  0.25484027  0.11076580  0.49508624  1  0.452231  -0.0018  0.044773  0.092276  -0.002412  3.95261  -0.001
C  C154  1  0.88924801  0.74525572  0.00496974  1  0.448845  -0.001808  0.044801  0.091871  -0.002425  3.953208  -0.001
C  C155  1  0.74519475  0.88919791  0.50489200  1  0.453632  -0.001803  0.044604  0.09135  -0.002414  3.952397  -0.001
C  C156  1  0.10841922  0.37764727  0.99044724  1  -0.031509  0.005133  -0.082559  -0.16793  0.002903  3.916149  0.004
C  C157  1  0.37767821  0.10843896  0.49040578  1  -0.032114  0.00513  -0.083026  -0.168578  0.002902  3.916268  0.004
C  C158  1  0.89160703  0.62239703  0.00964677  1  -0.030016  0.00513  -0.082806  -0.168499  0.002903  3.916899  0.004
C  C159  1  0.62234775  0.89151019  0.50955408  1  -0.031491  0.005131  -0.082839  -0.16831  0.002903  3.916366  0.004
C  C160  1  0.00474271  0.43552597  0.00366579  1  0.023696  -0.004456  0.007823  0.095615  -0.004846  3.999044  -0.003
C  C161  1  0.43554451  0.00471906  0.50360293  1  -0.019084  -0.004462  0.007961  0.09608  -0.004831  3.998947  -0.003
C  C162  1  0.99528662  0.56450343  0.99643861  1  -0.019462  -0.004471  0.007789  0.095846  -0.004842  3.998966  -0.003
C  C163  1  0.56449392  0.99525027  0.49636570  1  0.024532  -0.004445  0.007936  0.095844  -0.004834  3.999027  -0.003
C  C164  1  0.91024141  0.36536434  0.02412840  1  -0.045337  0.004406  -0.082915  -0.168306  0.002498  3.925946  0.004
C  C165  1  0.36543264  0.91022419  0.52410898  1  -0.044981  0.004406  -0.082516  -0.168131  0.002499  3.926181  0.004
C  C166  1  0.08975228  0.63465128  0.97593093  1  -0.044437  0.004404  -0.082759  -0.168268  0.002498  3.926082  0.004
C  C167  1  0.63460931  0.08977276  0.47588476  1  -0.046448  0.004408  -0.082942  -0.168467  0.0025  3.925845  0.004
C  C168  1  0.91949780  0.24285932  0.02719555  1  0.448244  -0.002761  0.044943  0.096642  -0.00357  3.930854  -0.002
C  C169  1  0.24295033  0.91948095  0.52720992  1  0.447971  -0.002747  0.044691  0.096236  -0.003559  3.930949  -0.002
C  C170  1  0.08046855  0.75714436  0.97283239  1  0.445872  -0.002757  0.044949  0.096467  -0.003568  3.930981  -0.002
C  C171  1  0.75710285  0.08050828  0.47280402  1  0.447281  -0.002745  0.044921  0.096502  -0.003559  3.930781  -0.002
N  N172  1  0.59509246  0.21990217  0.25061262  1  -1.220811  0.078264  -0.326304  -0.227628  0.045256  3.60689  0.07
N  N173  1  0.21985866  0.59507792  0.75061554  1  -1.219756  0.078321  -0.325736  -0.227454  0.045292  3.605008  0.07
N  N174  1  0.40490807  0.78009095  0.74938908  1  -1.220467  0.078264  -0.326266  -0.22759  0.045259  3.606905  0.07
N  N175  1  0.78015523  0.40492361  0.24938077  1  -1.219809  0.078323  -0.325724  -0.227428  0.045293  3.604965  0.07
N  N176  1  0.60610374  0.58823902  0.25147068  1  -1.207661  0.073155  -0.323962  -0.226001  0.042217  3.583129  0.066
N  N177  1  0.58831680  0.60617763  0.75154578  1  -1.204544  0.073238  -0.323573  -0.225619  0.042263  3.582207  0.066
N  N178  1  0.39388575  0.41175104  0.74851261  1  -1.206773  0.073155  -0.323756  -0.225765  0.042215  3.583028  0.066
N  N179  1  0.41168448  0.39381451  0.24844270  1  -1.203952  0.073232  -0.323443  -0.225365  0.042261  3.582224  0.066
N  N180  1  0.00105267  0.00227257  0.09143289  1  -1.238696  0.073654  -0.332636  -0.215689  0.042797  3.619098  0.066
N  N181  1  0.00220601  0.00106862  0.59142837  1  -1.238538  0.073603  -0.332623  -0.215635  0.042764  3.618172  0.066
N  N182  1  0.99890869  0.99773660  0.90856456  1  -1.238977  0.073624  -0.332919  -0.215837  0.042776  3.618483  0.066
N  N183  1  0.99781282  0.99891003  0.40857350  1  -1.238608  0.07357  -0.332655  -0.215466  0.042743  3.618042  0.066
N  N184  1  0.01668859  0.18701412  0.01135460  1  -1.199248  0.08105  -0.327856  -0.232894  0.046881  3.592521  0.072
N  N185  1  0.18708308  0.01668144  0.51137116  1  -1.1997  0.081066  -0.327341  -0.233032  0.046887  3.591502  0.072
N  N186  1  0.98329280  0.81301625  0.98867889  1  -1.197141  0.081054  -0.328154  -0.233241  0.046883  3.592745  0.072
N  N187  1  0.81295562  0.98330092  0.48863406  1  -1.198777  0.081057  -0.327362  -0.232519  0.046891  3.591345  0.072
O  O188  1  0.57606537  0.38669574  0.14477040  1  -1.457785  0.037139  -0.371099  -0.800567  0.020673  2.254791  0.031
O  O189  1  0.38663500  0.57618347  0.64482756  1  -1.459386  0.037214  -0.371412  -0.801203  0.020679  2.255485  0.031
O  O190  1  0.42395951  0.61329692  0.85522601  1  -1.458207  0.037157  -0.371071  -0.800777  0.020674  2.255018  0.031
O  O191  1  0.61338885  0.42381901  0.35517062  1  -1.459476  0.037215  -0.371509  -0.80138  0.020677  2.255674  0.031
O  O192  1  0.63410382  0.49846031  0.05653297  1  -1.424907  0.001462  -0.397937  -0.700062  0.000728  2.206654  0.001
O  O193  1  0.49837598  0.63415296  0.55657562  1  -1.424895  0.001461  -0.397573  -0.699465  0.000728  2.207292  0.001
O  O194  1  0.36586260  0.50157913  0.94347202  1  -1.424133  0.001462  -0.398021  -0.70015  0.000729  2.206791  0.001
O  O195  1  0.50164335  0.36583907  0.44341140  1  -1.424618  0.001459  -0.397475  -0.699314  0.000727  2.207393  0.001
O  O196  1  0.65004964  0.27125857  0.05518658  1  -1.44  0.001346  -0.394918  -0.707253  0.00066  2.247701  0.001
O  O197  1  0.27123992  0.65009713  0.55522540  1  -1.43921  0.001356  -0.395096  -0.707673  0.000665  2.247887  0.001
O  O198  1  0.34995964  0.72878724  0.94478422  1  -1.440379  0.001344  -0.394919  -0.707224  0.000658  2.247653  0.001
O  O199  1  0.72877246  0.34988809  0.44477465  1  -1.439141  0.001356  -0.39511  -0.707686  0.000665  2.247916  0.001
O  O200  1  0.44080500  0.35514301  0.03998107  1  -1.475192  0.004077  -0.384776  -0.806312  0.002154  2.069763  0.003
O  O201  1  0.35511077  0.44082161  0.54005263  1  -1.474943  0.004057  -0.384868  -0.80642  0.002143  2.069348  0.003
O  O202  1  0.55919089  0.64485686  0.96001935  1  -1.475351  0.004081  -0.384713  -0.80613  0.002156  2.069669  0.003
O  O203  1  0.64490686  0.55917491  0.45994772  1  -1.474874  0.004059  -0.384749  -0.806339  0.002144  2.069076  0.003
O  O204  1  0.19360326  0.99836369  0.00755569  1  -1.451961  0.043518  -0.371266  -0.807243  0.024461  2.356974  0.037
O  O205  1  0.99839437  0.19358679  0.50754198  1  -1.452223  0.043511  -0.371096  -0.807189  0.024456  2.35781  0.037
O  O206  1  0.80636631  0.00164177  0.99244333  1  -1.452018  0.043524  -0.371188  -0.807196  0.024464  2.356921  0.037
O  O207  1  0.00162430  0.80640173  0.49245942  1  -1.452221  0.043518  -0.371184  -0.80735  0.024458  2.357778  0.037
O  O208  1  0.37155410  0.06842258  0.95469776  1  -1.456863  0.00218  -0.40682  -0.724436  0.001106  2.195568  0.002
O  O209  1  0.06854588  0.37157008  0.45468852  1  -1.457404  0.002178  -0.40698  -0.72437  0.001106  2.195571  0.002
O  O210  1  0.62839726  0.93159015  0.04529985  1  -1.456728  0.002178  -0.407119  -0.724695  0.001105  2.195151  0.002
O  O211  1  0.93149090  0.62841565  0.54531221  1  -1.457348  0.002179  -0.406949  -0.724529  0.001106  2.195263  0.002
O  O212  1  0.36798321  0.13210942  0.06899045  1  -1.442356  0.000754  -0.400199  -0.711856  0.000323  2.212391  0.001
O  O213  1  0.13203023  0.36800720  0.56899436  1  -1.440796  0.000755  -0.400338  -0.711695  0.000323  2.213092  0.001
O  O214  1  0.63198280  0.86789210  0.93100869  1  -1.442425  0.000755  -0.400163  -0.711734  0.000324  2.212266  0.001
O  O215  1  0.86800203  0.63197809  0.43100569  1  -1.442231  0.000757  -0.400428  -0.711836  0.000325  2.212806  0.001
O  O216  1  0.39681411  0.91361023  0.03412122  1  -1.451794  0.004787  -0.375847  -0.782828  0.002482  2.123911  0.004
O  O217  1  0.91364194  0.39681076  0.53405828  1  -1.452873  0.004785  -0.375673  -0.782651  0.002481  2.123974  0.004
O  O218  1  0.60315201  0.08638685  0.96588136  1  -1.451677  0.004789  -0.375862  -0.782733  0.002483  2.124077  0.004
O  O219  1  0.08638933  0.60318074  0.46594155  1  -1.452077  0.004782  -0.375783  -0.782736  0.002479  2.12399  0.004
