# generated using pymatgen
data_UH5C6NO5
_symmetry_space_group_name_H-M   'P 1'
_cell_length_a   6.32838352
_cell_length_b   7.86980244
_cell_length_c   8.35804891
_cell_angle_alpha   79.42165791
_cell_angle_beta   86.82505127
_cell_angle_gamma   78.77931553
_symmetry_Int_Tables_number   1
_chemical_formula_structural   UH5C6NO5
_chemical_formula_sum   'U2 H10 C12 N2 O10'
_cell_volume   401.27761726
_cell_formula_units_Z   2
loop_
 _symmetry_equiv_pos_site_id
 _symmetry_equiv_pos_as_xyz
  1  'x, y, z'
loop_
 _atom_site_type_symbol
 _atom_site_label
 _atom_site_symmetry_multiplicity
 _atom_site_fract_x
 _atom_site_fract_y
 _atom_site_fract_z
 _atom_site_occupancy
 _atom_site_hle17_bader_spin_density
 _atom_site_hle17_ddec_charge
 _atom_site_hle17_ddec_spin_density
 _atom_site_hle17_ddec_sum_bond_order
 _atom_site_hle17_magmom
 _atom_site_hse06_10hf_bader_spin_density
 _atom_site_hse06_10hf_ddec_charge
 _atom_site_hse06_10hf_ddec_spin_density
 _atom_site_hse06_10hf_ddec_sum_bond_order
 _atom_site_hse06_10hf_magmom
 _atom_site_hse06_bader_spin_density
 _atom_site_hse06_ddec_charge
 _atom_site_hse06_ddec_spin_density
 _atom_site_hse06_ddec_sum_bond_order
 _atom_site_hse06_magmom
 _atom_site_pbe_bader_spin_density
 _atom_site_pbe_cm5_charge
 _atom_site_pbe_ddec_charge
 _atom_site_pbe_ddec_spin_density
 _atom_site_pbe_ddec_sum_bond_order
 _atom_site_pbe_magmom
U  U0  1  0.09986324  0.36516205  0.20571113  1  0  2.49767  0  4.15851  0  0  2.562159  0  4.816256  0  0  2.672221  0  4.780146  0  0  2.171296  2.483109  0  4.843223  0
U  U1  1  0.90012618  0.63484334  0.79429003  1  0  2.497649  0  4.158231  0  0  2.562172  0  4.815937  0  0  2.672215  0  4.77982  0  0  2.171312  2.483061  0  4.842961  0
H  H2  1  0.32546629  0.55898432  0.91788584  1  0  0.437858  0  0.857476  0  0  0.421691  0  0.900166  0  0  0.435357  0  0.880549  0  0  0.304873  0.41182  0  0.914223  0
H  H3  1  0.67452511  0.44103293  0.08211679  1  0  0.437824  0  0.857535  0  0  0.421685  0  0.90017  0  0  0.435349  0  0.880556  0  0  0.304888  0.411815  0  0.914224  0
H  H4  1  0.01353840  0.10041547  0.58764527  1  0  0.078606  0  0.950955  0  0  0.082835  0  1.022567  0  0  0.085527  0  1.019326  0  0  0.126432  0.080985  0  1.024717  0
H  H5  1  0.98646441  0.89957942  0.41236680  1  0  0.078615  0  0.950866  0  0  0.0828  0  1.022553  0  0  0.085492  0  1.01931  0  0  0.126422  0.080951  0  1.024703  0
H  H6  1  0.71009112  0.25249781  0.67540930  1  0  0.129511  0  0.969519  0  0  0.142433  0  1.023697  0  0  0.146442  0  1.020795  0  0  0.120608  0.139626  0  1.025849  0
H  H7  1  0.28991578  0.74750099  0.32458041  1  0  0.129489  0  0.969545  0  0  0.142342  0  1.023806  0  0  0.146349  0  1.020907  0  0  0.120593  0.139537  0  1.025954  0
H  H8  1  0.14847712  0.04077574  0.86993420  1  0  0.126691  0  0.936338  0  0  0.14044  0  0.986774  0  0  0.144142  0  0.984288  0  0  0.124312  0.137786  0  0.988843  0
H  H9  1  0.85154059  0.95921651  0.13007301  1  0  0.126709  0  0.936468  0  0  0.140492  0  0.986832  0  0  0.144194  0  0.984347  0  0  0.124316  0.137838  0  0.9889  0
H  H10  1  0.49677951  0.13160819  0.91845355  1  0  0.101836  0  0.931754  0  0  0.114088  0  0.987412  0  0  0.116727  0  0.985356  0  0  0.123369  0.112187  0  0.988961  0
H  H11  1  0.50324089  0.86838667  0.08154235  1  0  0.101752  0  0.931849  0  0  0.114004  0  0.987517  0  0  0.116641  0  0.985464  0  0  0.123312  0.112101  0  0.989065  0
C  C12  1  0.47290709  0.23590301  0.50751860  1  0  0.083097  0  3.769734  0  0  0.09115  0  4.015565  0  0  0.090752  0  4.036458  0  0  0.114828  0.091124  0  4.001674  0
C  C13  1  0.52708990  0.76409712  0.49248081  1  0  0.083088  0  3.769762  0  0  0.091135  0  4.015532  0  0  0.090739  0  4.036427  0  0  0.114885  0.091105  0  4.001641  0
C  C14  1  0.59478542  0.29698435  0.35682504  1  0  0.66164  0  3.85925  0  0  0.620854  0  4.153509  0  0  0.659024  0  4.142276  0  0  0.249572  0.594562  0  4.160188  0
C  C15  1  0.40521063  0.70301314  0.64317127  1  0  0.661794  0  3.859072  0  0  0.621073  0  4.153194  0  0  0.659225  0  4.141986  0  0  0.24956  0.59478  0  4.159877  0
C  C16  1  0.16889087  0.12943465  0.61134989  1  0  0.165563  0  3.67852  0  0  0.138925  0  3.94652  0  0  0.147974  0  3.960171  0  0  0.071071  0.132904  0  3.937034  0
C  C17  1  0.83111202  0.87056022  0.38865501  1  0  0.165758  0  3.678393  0  0  0.139077  0  3.946455  0  0  0.148126  0  3.960102  0  0  0.071154  0.133054  0  3.936965  0
C  C18  1  0.55705727  0.21362584  0.66189106  1  0  -0.083353  0  3.63832  0  0  -0.107382  0  3.877887  0  0  -0.110151  0  3.894677  0  0  -0.056001  -0.10564  0  3.866807  0
C  C19  1  0.44294355  0.78637164  0.33810388  1  0  -0.083318  0  3.638401  0  0  -0.107301  0  3.877972  0  0  -0.110068  0  3.894763  0  0  -0.05601  -0.105559  0  3.866892  0
C  C20  1  0.24497367  0.09733826  0.76984617  1  0  -0.07627  0  3.642503  0  0  -0.091423  0  3.887209  0  0  -0.095694  0  3.903104  0  0  -0.051359  -0.088623  0  3.876543  0
C  C21  1  0.75504003  0.90265792  0.23015572  1  0  -0.076478  0  3.642762  0  0  -0.091607  0  3.88741  0  0  -0.095882  0  3.903306  0  0  -0.051442  -0.08881  0  3.876753  0
C  C22  1  0.43812769  0.14609474  0.79585895  1  0  0.021277  0  3.660035  0  0  0.002699  0  3.914114  0  0  0.006998  0  3.928456  0  0  -0.040558  -8.5e-05  0  3.904373  0
C  C23  1  0.56188636  0.85390012  0.20413837  1  0  0.021451  0  3.660243  0  0  0.002868  0  3.914278  0  0  0.007167  0  3.928618  0  0  -0.04047  8.5e-05  0  3.904532  0
N  N24  1  0.27742846  0.20077641  0.48235050  1  0  -0.410551  0  3.258378  0  0  -0.387131  0  3.546118  0  0  -0.408147  0  3.571926  0  0  -0.358743  -0.372192  0  3.528139  0
N  N25  1  0.72256909  0.79922109  0.51765293  1  0  -0.410675  0  3.258367  0  0  -0.38724  0  3.546116  0  0  -0.408251  0  3.571916  0  0  -0.358809  -0.372291  0  3.52813  0
O  O26  1  0.12071415  0.15483658  0.13974535  1  0  -0.735753  0  1.550363  0  0  -0.751596  0  1.847878  0  0  -0.77654  0  1.836209  0  0  -0.759461  -0.735647  0  1.856571  0
O  O27  1  0.87927902  0.84518064  0.86024048  1  0  -0.735678  0  1.550213  0  0  -0.75157  0  1.847765  0  0  -0.776506  0  1.836092  0  0  -0.759433  -0.735602  0  1.856466  0
O  O28  1  0.79134269  0.30521757  0.36851979  1  0  -0.6419  0  2.074295  0  0  -0.618289  0  2.343364  0  0  -0.651757  0  2.33744  0  0  -0.347427  -0.593487  0  2.346002  0
O  O29  1  0.20865361  0.69476543  0.63147304  1  0  -0.642074  0  2.074145  0  0  -0.618467  0  2.343136  0  0  -0.651907  0  2.337172  0  0  -0.347425  -0.593656  0  2.345773  0
O  O30  1  0.49449931  0.33420293  0.22199288  1  0  -0.659982  0  2.055912  0  0  -0.625355  0  2.302137  0  0  -0.656995  0  2.294697  0  0  -0.328812  -0.602218  0  2.306094  0
O  O31  1  0.50548986  0.66580378  0.77800328  1  0  -0.660026  0  2.05601  0  0  -0.6254  0  2.302187  0  0  -0.657036  0  2.294752  0  0  -0.328773  -0.602238  0  2.306104  0
O  O32  1  0.20039634  0.50190415  0.95445752  1  0  -0.995201  0  1.785629  0  0  -1.020255  0  2.046349  0  0  -1.065753  0  2.026857  0  0  -0.716648  -0.985694  0  2.058629  0
O  O33  1  0.79958621  0.49811704  0.04554714  1  0  -0.995202  0  1.785701  0  0  -1.020295  0  2.046481  0  0  -1.065794  0  2.026993  0  0  -0.716692  -0.985732  0  2.058757  0
O  O34  1  0.08916370  0.56191464  0.29121687  1  0  -0.700697  0  1.605305  0  0  -0.715793  0  1.901331  0  0  -0.740084  0  1.8912  0  0  -0.747321  -0.700473  0  1.908944  0
O  O35  1  0.91082323  0.43808025  0.70880055  1  0  -0.70072  0  1.605134  0  0  -0.715817  0  1.901118  0  0  -0.740097  0  1.890982  0  0  -0.74742  -0.700483  0  1.908742  0
