# generated using pymatgen
data_CdH15C20(NO)5
_symmetry_space_group_name_H-M   'P 1'
_cell_length_a   9.52942122
_cell_length_b   9.79258635
_cell_length_c   12.87532279
_cell_angle_alpha   73.88187522
_cell_angle_beta   79.44292893
_cell_angle_gamma   65.73701238
_symmetry_Int_Tables_number   1
_chemical_formula_structural   CdH15C20(NO)5
_chemical_formula_sum   'Cd2 H30 C40 N10 O10'
_cell_volume   1049.02506760
_cell_formula_units_Z   2
loop_
 _symmetry_equiv_pos_site_id
 _symmetry_equiv_pos_as_xyz
  1  'x, y, z'
loop_
 _atom_site_type_symbol
 _atom_site_label
 _atom_site_symmetry_multiplicity
 _atom_site_fract_x
 _atom_site_fract_y
 _atom_site_fract_z
 _atom_site_occupancy
 _atom_site_pbe_bader_spin_density
 _atom_site_pbe_cm5_charge
 _atom_site_pbe_ddec_charge
 _atom_site_pbe_ddec_spin_density
 _atom_site_pbe_ddec_sum_bond_order
 _atom_site_pbe_magmom
Cd  Cd0  1  0.72977676  0.38672339  0.26374848  1  0  0.759989  0.871259  0  2.166597  0
Cd  Cd1  1  0.27023129  0.61326537  0.73624993  1  0  0.759999  0.871231  0  2.166568  0
H  H2  1  0.20815001  0.88996206  0.27805297  1  0  0.101051  0.100472  0  1.033142  0
H  H3  1  0.79184836  0.11003233  0.72194320  1  0  0.101081  0.100492  0  1.033167  0
H  H4  1  0.46385194  0.77199192  0.98280241  1  0  0.100573  0.099313  0  1.038154  0
H  H5  1  0.53615278  0.22800261  0.01719295  1  0  0.10063  0.099453  0  1.038112  0
H  H6  1  0.26829081  0.00308331  0.87504928  1  0  0.094344  0.087986  0  1.030338  0
H  H7  1  0.73171734  0.99691592  0.12494550  1  0  0.094345  0.087994  0  1.030299  0
H  H8  1  0.04380618  0.18043276  0.97447162  1  0  0.101956  0.10222  0  1.036046  0
H  H9  1  0.95620359  0.81956761  0.02552507  1  0  0.101986  0.102236  0  1.036016  0
H  H10  1  0.01976215  0.28573621  0.39620727  1  0  0.117421  0.090217  0  1.023263  0
H  H11  1  0.98022792  0.71427285  0.60379868  1  0  0.117433  0.090226  0  1.023265  0
H  H12  1  0.20180805  0.64083016  0.33062995  1  0  0.110045  0.114136  0  1.03376  0
H  H13  1  0.79820017  0.35917129  0.66936906  1  0  0.11005  0.114167  0  1.033734  0
H  H14  1  0.99980724  0.80005320  0.19930079  1  0  0.109411  0.115775  0  1.019083  0
H  H15  1  0.00019956  0.19994132  0.80069664  1  0  0.109422  0.115838  0  1.018986  0
H  H16  1  0.81292836  0.69139899  0.17415598  1  0  0.1184  0.088825  0  1.001042  0
H  H17  1  0.18708319  0.30859454  0.82583795  1  0  0.118428  0.08886  0  1.001014  0
H  H18  1  0.26168236  0.93644440  0.61086744  1  0  0.120397  0.102256  0  1.007032  0
H  H19  1  0.73831400  0.06356256  0.38913349  1  0  0.120357  0.102204  0  1.00709  0
H  H20  1  0.57310978  0.60658047  0.82748985  1  0  0.124684  0.098799  0  0.9723  0
H  H21  1  0.42687649  0.39342514  0.17251103  1  0  0.124686  0.098799  0  0.972383  0
H  H22  1  0.70508840  0.78521474  0.82091353  1  0  0.11749  0.127862  0  0.975721  0
H  H23  1  0.29489776  0.21479075  0.17909360  1  0  0.11747  0.127894  0  0.975693  0
H  H24  1  0.60977163  0.04799645  0.70165687  1  0  0.111115  0.11015  0  1.032871  0
H  H25  1  0.39021842  0.95201258  0.29835064  1  0  0.111089  0.110102  0  1.032853  0
H  H26  1  0.47007444  0.30020169  0.61695821  1  0  0.317333  0.285418  0  1.013787  0
H  H27  1  0.52992226  0.69980182  0.38304257  1  0  0.317337  0.285425  0  1.013709  0
H  H28  1  0.80152203  0.23623612  0.48663464  1  0  0.321314  0.401313  0  0.871528  0
H  H29  1  0.19847065  0.76376369  0.51337436  1  0  0.321306  0.401264  0  0.871567  0
H  H30  1  0.69736684  0.41077743  0.48760511  1  0  0.284294  0.344729  0  1.015033  0
H  H31  1  0.30263207  0.58922840  0.51239728  1  0  0.284343  0.344787  0  1.014959  0
C  C32  1  0.98184308  0.15450236  0.18817548  1  0  0.178739  0.546542  0  4.259217  0
C  C33  1  0.01815948  0.84548173  0.81181987  1  0  0.178756  0.546646  0  4.259247  0
C  C34  1  0.11483606  0.04606394  0.13104376  1  0  -0.022515  -0.034962  0  3.979792  0
C  C35  1  0.88517501  0.95393891  0.86894607  1  0  -0.022578  -0.035124  0  3.979797  0
C  C36  1  0.22327223  0.91474373  0.18980669  1  0  -0.083241  -0.122776  0  3.978547  0
C  C37  1  0.77672932  0.08525073  0.81018907  1  0  -0.083361  -0.122966  0  3.978824  0
C  C38  1  0.34957746  0.81672560  0.13627610  1  0  -0.025861  -0.049608  0  3.995796  0
C  C39  1  0.65042241  0.18326763  0.86372167  1  0  -0.02578  -0.049395  0  3.995642  0
C  C40  1  0.46924417  0.67871879  0.19914982  1  0  0.196581  0.555832  0  4.242653  0
C  C41  1  0.53075703  0.32127911  0.80084686  1  0  0.196578  0.555853  0  4.242881  0
C  C42  1  0.36503084  0.84986265  0.02270619  1  0  -0.077867  -0.070212  0  3.94285  0
C  C43  1  0.63497617  0.15012610  0.97729158  1  0  -0.077947  -0.070487  0  3.94307  0
C  C44  1  0.25584074  0.97947416  0.96343811  1  0  -0.093115  -0.083284  0  4.00959  0
C  C45  1  0.74417353  0.02052058  0.03655525  1  0  -0.093038  -0.083188  0  4.009748  0
C  C46  1  0.13148286  0.07764004  0.01736673  1  0  -0.078974  -0.085309  0  3.955961  0
C  C47  1  0.86853226  0.92235018  0.98262276  1  0  -0.078973  -0.085211  0  3.955873  0
C  C48  1  0.01615872  0.40063230  0.35584201  1  0  0.052703  0.06024  0  3.911444  0
C  C49  1  0.98383439  0.59937450  0.64416401  1  0  0.052742  0.060229  0  3.911454  0
C  C50  1  0.12228682  0.45287185  0.37695616  1  0  -0.000364  -0.018669  0  4.011252  0
C  C51  1  0.87771237  0.54713863  0.62304528  1  0  -0.00051  -0.018696  0  4.011276  0
C  C52  1  0.11707704  0.59897075  0.31922550  1  0  -0.061582  -0.062099  0  3.898465  0
C  C53  1  0.88292304  0.40103522  0.68077051  1  0  -0.061465  -0.062016  0  3.898241  0
C  C54  1  0.00562557  0.68660951  0.24546126  1  0  -0.07943  -0.112905  0  3.958504  0
C  C55  1  0.99438493  0.31338402  0.75453203  1  0  -0.079503  -0.113085  0  3.958549  0
C  C56  1  0.90230202  0.62701507  0.23106559  1  0  0.0479  0.088324  0  3.935426  0
C  C57  1  0.09770271  0.37297947  0.76892899  1  0  0.047889  0.088341  0  3.93588  0
C  C58  1  0.23228927  0.35643819  0.45833665  1  0  0.212642  0.258241  0  4.087049  0
C  C59  1  0.76770278  0.64356859  0.54166951  1  0  0.212729  0.258232  0  4.087054  0
C  C60  1  0.36301624  0.16495055  0.57440383  1  0  0.224262  0.267232  0  4.058438  0
C  C61  1  0.63697629  0.83505510  0.42560171  1  0  0.22427  0.267327  0  4.058491  0
C  C62  1  0.42786830  0.01341613  0.64563080  1  0  0.000366  -0.026094  0  4.020133  0
C  C63  1  0.57212228  0.98659399  0.35438031  1  0  0.000312  -0.02621  0  4.020248  0
C  C64  1  0.36184626  0.90603134  0.65453640  1  0  0.058178  0.071686  0  3.881449  0
C  C65  1  0.63813899  0.09397647  0.34546961  1  0  0.058249  0.071742  0  3.881745  0
C  C66  1  0.53562671  0.72262657  0.77626905  1  0  0.055835  0.090639  0  3.936608  0
C  C67  1  0.46435953  0.27737901  0.22373339  1  0  0.055812  0.090699  0  3.936546  0
C  C68  1  0.60792529  0.82223119  0.77250768  1  0  -0.073641  -0.111434  0  3.962064  0
C  C69  1  0.39206316  0.17777672  0.22749636  1  0  -0.07363  -0.111539  0  3.962017  0
C  C70  1  0.55386516  0.96915394  0.70621597  1  0  -0.058901  -0.05658  0  3.906296  0
C  C71  1  0.44611902  0.03085383  0.29379096  1  0  -0.058843  -0.056407  0  3.905829  0
N  N72  1  0.90798153  0.48630441  0.28545183  1  0  -0.325787  -0.238508  0  3.529215  0
N  N73  1  0.09201804  0.51369448  0.71455184  1  0  -0.325823  -0.238514  0  3.529356  0
N  N74  1  0.25671499  0.20630761  0.50432575  1  0  -0.332312  -0.426962  0  3.191969  0
N  N75  1  0.74328377  0.79369587  0.49567867  1  0  -0.332358  -0.42705  0  3.191945  0
N  N76  1  0.39968035  0.28652684  0.56974730  1  0  -0.256407  -0.138484  0  3.63933  0
N  N77  1  0.60031949  0.71347669  0.43025543  1  0  -0.256408  -0.138553  0  3.639427  0
N  N78  1  0.31737025  0.40943452  0.49698648  1  0  -0.204162  -0.215938  0  3.191958  0
N  N79  1  0.68263280  0.59056912  0.50301350  1  0  -0.20414  -0.215811  0  3.191953  0
N  N80  1  0.41505014  0.76432257  0.71802152  1  0  -0.322652  -0.223798  0  3.507953  0
N  N81  1  0.58493967  0.23568186  0.28198460  1  0  -0.322612  -0.223804  0  3.507726  0
O  O82  1  0.96707016  0.12423113  0.29145410  1  0  -0.354734  -0.592748  0  2.115969  0
O  O83  1  0.03292837  0.87574709  0.70854213  1  0  -0.354757  -0.592749  0  2.116258  0
O  O84  1  0.89042854  0.27427484  0.12806680  1  0  -0.345548  -0.551314  0  2.174377  0
O  O85  1  0.10959647  0.72572465  0.87193052  1  0  -0.345531  -0.551362  0  2.174258  0
O  O86  1  0.45420361  0.65147736  0.30255150  1  0  -0.33565  -0.590349  0  2.246983  0
O  O87  1  0.54578928  0.34852271  0.69744422  1  0  -0.335621  -0.590336  0  2.247017  0
O  O88  1  0.58114517  0.59354808  0.14528764  1  0  -0.330486  -0.535697  0  2.212695  0
O  O89  1  0.41886712  0.40644291  0.85471836  1  0  -0.33047  -0.535686  0  2.212789  0
O  O90  1  0.70785640  0.32041278  0.45977759  1  0  -0.573847  -0.731802  0  2.117631  0
O  O91  1  0.29214409  0.67959198  0.54022171  1  0  -0.573894  -0.731788  0  2.117625  0
