# generated using pymatgen
data_AlH4C8O6F
_symmetry_space_group_name_H-M   'P 1'
_cell_length_a   6.64634665
_cell_length_b   8.86876336
_cell_length_c   11.04361777
_cell_angle_alpha   83.39673634
_cell_angle_beta   72.80192620
_cell_angle_gamma   75.50307504
_symmetry_Int_Tables_number   1
_chemical_formula_structural   AlH4C8O6F
_chemical_formula_sum   'Al2 H8 C16 O12 F2'
_cell_volume   601.46839388
_cell_formula_units_Z   2
loop_
 _symmetry_equiv_pos_site_id
 _symmetry_equiv_pos_as_xyz
  1  'x, y, z'
loop_
 _atom_site_type_symbol
 _atom_site_label
 _atom_site_symmetry_multiplicity
 _atom_site_fract_x
 _atom_site_fract_y
 _atom_site_fract_z
 _atom_site_occupancy
 _atom_site_pbe_bader_charge
 _atom_site_pbe_bader_spin_density
 _atom_site_pbe_cm5_charge
 _atom_site_pbe_ddec_charge
 _atom_site_pbe_ddec_spin_density
 _atom_site_pbe_ddec_sum_bond_order
 _atom_site_pbe_magmom
Al  Al0  1  0.48982482  0.51841674  0.50154591  1  2.50371  0  0.397087  1.641018  0  2.585644  0
Al  Al1  1  0.99008557  0.51689622  0.50383346  1  2.503055  0  0.399805  1.644349  0  2.574916  0
H  H2  1  0.77699708  0.62754329  0.35700795  1  0.633783  0  0.359555  0.439997  0  0.83712  0
H  H3  1  0.18655026  0.45000081  0.65918034  1  0.607719  0  0.347065  0.421689  0  0.872296  0
H  H4  1  0.17915930  0.26288426  0.23168967  1  0.060692  0  0.105057  0.127323  0  1.036104  0
H  H5  1  0.44358711  0.28210641  0.76117671  1  0.10715  0  0.107464  0.124923  0  1.044849  0
H  H6  1  0.75206619  0.65196611  0.89133191  1  0.10437  0  0.11151  0.11777  0  0.986414  0
H  H7  1  0.63123924  0.63422733  0.12768179  1  0.082501  0  0.109154  0.11211  0  0.994589  0
H  H8  1  0.01778223  0.07409453  0.20621418  1  0.594971  0  0.331663  0.355041  0  0.892803  0
H  H9  1  0.27041805  0.08819764  0.77203115  1  0.594266  0  0.339116  0.370301  0  0.868476  0
C  C10  1  0.35490003  0.48596017  0.27713540  1  1.565031  0  0.274927  0.660586  0  4.060899  0
C  C11  1  0.15334176  0.79779565  0.49904031  1  1.650269  0  0.259827  0.594258  0  4.186608  0
C  C12  1  0.63622722  0.51897823  0.73034317  1  1.552454  0  0.272624  0.656136  0  4.070464  0
C  C13  1  0.82451083  0.23679338  0.50578278  1  1.656863  0  0.251968  0.577092  0  4.213579  0
C  C14  1  0.89170411  0.06339704  0.49907108  1  0.558321  0  0.094608  0.035801  0  3.993639  0
C  C15  1  0.08540564  0.97131117  0.50622272  1  0.55427  0  0.100871  0.052562  0  3.972574  0
C  C16  1  0.43437496  0.47320937  0.13702513  1  -0.024114  0  -0.009256  -0.088368  0  3.927606  0
C  C17  1  0.36611280  0.37702786  0.06849513  1  -0.016136  0  -0.001449  0.081576  0  3.971301  0
C  C18  1  0.57812183  0.56513602  0.07298472  1  -0.066353  0  -0.083928  -0.091611  0  4.009015  0
C  C19  1  0.23747106  0.26911061  0.12850150  1  0.063084  0  -0.116724  -0.290833  0  4.011634  0
C  C20  1  0.18494907  0.17108919  0.06026910  1  0.431854  0  0.078252  0.227507  0  4.08863  0
C  C21  1  0.57409006  0.49063465  0.87018406  1  -0.043108  0  -0.009444  -0.08321  0  3.931968  0
C  C22  1  0.64678368  0.57458873  0.94059560  1  0.04043  0  -0.083291  -0.095953  0  4.011116  0
C  C23  1  0.44027248  0.38456851  0.93166853  1  0.059533  0  -0.002522  0.077605  0  3.968412  0
C  C24  1  0.38494314  0.28130795  0.86423994  1  0.048102  0  -0.121222  -0.301668  0  4.025591  0
C  C25  1  0.26189094  0.17623686  0.92507469  1  0.453832  0  0.079191  0.230724  0  4.092336  0
O  O26  1  0.48232085  0.51914801  0.33163585  1  -1.273397  0  -0.236721  -0.609584  0  2.361735  0
O  O27  1  0.02053981  0.73002399  0.47815888  1  -1.23892  0  -0.232474  -0.580053  0  2.383212  0
O  O28  1  0.82050925  0.55035553  0.67676608  1  -1.266396  0  -0.236854  -0.595459  0  2.31556  0
O  O29  1  0.63945223  0.29855797  0.49028140  1  -1.229974  0  -0.230656  -0.555288  0  2.346934  0
O  O30  1  0.50022080  0.51105599  0.67191327  1  -1.273484  0  -0.232892  -0.597507  0  2.389702  0
O  O31  1  0.95711904  0.30413928  0.52706304  1  -1.240231  0  -0.230405  -0.570474  0  2.396702  0
O  O32  1  0.16369775  0.47020793  0.33444316  1  -1.267998  0  -0.232205  -0.587879  0  2.348608  0
O  O33  1  0.33885228  0.73664982  0.51385657  1  -1.228299  0  -0.226764  -0.555026  0  2.338111  0
O  O34  1  0.74992318  0.57973520  0.44189342  1  -1.434012  0  -0.44586  -0.989794  0  2.198222  0
O  O35  1  0.22946032  0.45610157  0.56699312  1  -1.410283  0  -0.448802  -0.984406  0  2.189687  0
O  O36  1  0.06358350  0.06479023  0.11445697  1  -1.102771  0  -0.34746  -0.414477  0  2.26016  0
O  O37  1  0.20904288  0.07363671  0.86338782  1  -1.095419  0  -0.34534  -0.418032  0  2.248365  0
F  F38  1  0.73827102  0.99840796  0.48421157  1  -0.60442  0  -0.074991  -0.070242  0  1.441908  0
F  F39  1  0.23772819  0.03632717  0.52231647  1  -0.610941  0  -0.070484  -0.068504  0  1.445759  0
