# generated using pymatgen
data_Zn4H3C24S4NO15F4
_symmetry_space_group_name_H-M   'P 1'
_cell_length_a   19.62757770
_cell_length_b   19.69120105
_cell_length_c   33.32747171
_cell_angle_alpha   79.26965794
_cell_angle_beta   79.45125424
_cell_angle_gamma   64.11427451
_symmetry_Int_Tables_number   1
_chemical_formula_structural   Zn4H3C24S4NO15F4
_chemical_formula_sum   'Zn16 H12 C96 S16 N4 O60 F16'
_cell_volume   11310.01371553
_cell_formula_units_Z   4
loop_
 _symmetry_equiv_pos_site_id
 _symmetry_equiv_pos_as_xyz
  1  'x, y, z'
loop_
 _atom_site_type_symbol
 _atom_site_label
 _atom_site_symmetry_multiplicity
 _atom_site_fract_x
 _atom_site_fract_y
 _atom_site_fract_z
 _atom_site_occupancy
 _atom_site_pbe_bader_charge
 _atom_site_pbe_bader_spin_density
 _atom_site_pbe_cm5_charge
 _atom_site_pbe_ddec_charge
 _atom_site_pbe_ddec_spin_density
 _atom_site_pbe_ddec_sum_bond_order
 _atom_site_pbe_magmom
Zn  Zn0  1  0.05655312  0.40162350  0.47789769  1  1.318729  0  0.672183  0.967164  0  2.358051  0
Zn  Zn1  1  0.98266108  0.48394493  0.56014805  1  1.318565  0  0.675914  0.964116  0  2.37389  0
Zn  Zn2  1  0.06137287  0.55922800  0.48230577  1  1.323267  0  0.681591  0.977863  0  2.345463  0
Zn  Zn3  1  0.89942850  0.55498773  0.47974328  1  1.325144  0  0.68132  0.977383  0  2.344485  0
Zn  Zn4  1  0.69447891  0.34937387  0.27123082  1  1.314884  0  0.672014  0.966063  0  2.362854  0
Zn  Zn5  1  0.69238127  0.18748501  0.26711062  1  1.320293  0  0.674813  0.968607  0  2.353906  0
Zn  Zn6  1  0.76683394  0.26855176  0.18985862  1  1.326631  0  0.680744  0.976011  0  2.34324  0
Zn  Zn7  1  0.84897087  0.19467051  0.27271681  1  1.32121  0  0.677087  0.968365  0  2.366985  0
Zn  Zn8  1  0.26543554  0.76765109  0.68940365  1  1.314752  0  0.677174  0.964981  0  2.379831  0
Zn  Zn9  1  0.34801818  0.69537007  0.77155249  1  1.316939  0  0.674194  0.966004  0  2.363279  0
Zn  Zn10  1  0.19331068  0.85029672  0.77045550  1  1.321525  0  0.679306  0.977361  0  2.338715  0
Zn  Zn11  1  0.18999588  0.68892767  0.76644442  1  1.316106  0  0.674542  0.967753  0  2.365044  0
Zn  Zn12  1  0.56014591  0.06100879  0.98297821  1  1.317677  0  0.674634  0.967624  0  2.361909  0
Zn  Zn13  1  0.40065722  0.05499102  0.97824724  1  1.317329  0  0.676742  0.966444  0  2.369321  0
Zn  Zn14  1  0.55555045  0.90176620  0.97802482  1  1.321697  0  0.67233  0.968431  0  2.355338  0
Zn  Zn15  1  0.48217289  0.98505500  0.06029458  1  1.319123  0  0.674593  0.967986  0  2.361127  0
H  H16  1  0.95247937  0.24980985  0.35165020  1  0.129342  0  0.117269  0.125146  0  0.980998  0
H  H17  1  0.74669733  0.45649311  0.35063548  1  0.141019  0  0.124639  0.1431  0  0.970433  0
H  H18  1  0.99981263  0.29801618  0.40048117  1  0.144549  0  0.117434  0.124836  0  0.979785  0
H  H19  1  0.09778447  0.59646332  0.69950215  1  0.137957  0  0.116314  0.123953  0  0.981408  0
H  H20  1  0.20035026  0.70193193  0.59699673  1  0.118517  0  0.126045  0.145552  0  0.968871  0
H  H21  1  0.05095415  0.54834711  0.65034901  1  0.122147  0  0.118287  0.126132  0  0.977686  0
H  H22  1  0.54986683  0.05127621  0.15245476  1  0.105889  0  0.117072  0.125022  0  0.981181  0
H  H23  1  0.65399143  0.15289803  0.04882460  1  0.109947  0  0.125174  0.144598  0  0.968937  0
H  H24  1  0.59853230  0.10034810  0.20014357  1  0.11844  0  0.118305  0.126314  0  0.978676  0
H  H25  1  0.50117672  0.79634274  0.89830287  1  0.112789  0  0.115888  0.122894  0  0.982797  0
H  H26  1  0.29485898  0.00248456  0.89927577  1  0.163037  0  0.125998  0.145605  0  0.967823  0
H  H27  1  0.45150571  0.75028106  0.84959583  1  0.145083  0  0.11817  0.12588  0  0.97948  0
C  C28  1  0.06197151  0.31740453  0.56113302  1  1.541341  0  0.218075  0.63208  0  4.214531  0
C  C29  1  0.07049859  0.56729129  0.56859273  1  1.582381  0  0.232323  0.611559  0  4.169472  0
C  C30  1  0.18423627  0.43900375  0.43762126  1  1.5906  0  0.21847  0.632384  0  4.215656  0
C  C31  1  0.93763586  0.68207684  0.43941669  1  1.57395  0  0.220453  0.633044  0  4.208264  0
C  C32  1  0.93062646  0.42946591  0.43241216  1  1.591864  0  0.23154  0.612246  0  4.166888  0
C  C33  1  0.81598771  0.56164960  0.56260867  1  1.590744  0  0.21741  0.628699  0  4.221275  0
C  C34  1  0.56681665  0.30962146  0.31022053  1  1.584796  0  0.217179  0.631282  0  4.217767  0
C  C35  1  0.68019211  0.18246325  0.18133337  1  1.591536  0  0.231719  0.610086  0  4.170365  0
C  C36  1  0.69116731  0.43495180  0.18861202  1  1.608456  0  0.217827  0.629064  0  4.219809  0
C  C37  1  0.93298569  0.18684953  0.18918583  1  1.591116  0  0.217835  0.629239  0  4.216538  0
C  C38  1  0.81818430  0.32132469  0.31946391  1  1.60172  0  0.232378  0.604797  0  4.165719  0
C  C39  1  0.81348843  0.06539258  0.31261488  1  1.596075  0  0.216698  0.627535  0  4.21788  0
C  C40  1  0.43257673  0.69032797  0.68875592  1  1.570658  0  0.217125  0.629612  0  4.219416  0
C  C41  1  0.31938760  0.82005318  0.81776738  1  1.601414  0  0.231486  0.610125  0  4.16848  0
C  C42  1  0.18575472  0.93412736  0.68746763  1  1.584327  0  0.21752  0.630044  0  4.220799  0
C  C43  1  0.06783542  0.80978839  0.81197667  1  1.596183  0  0.219183  0.631536  0  4.214871  0
C  C44  1  0.18016371  0.68063344  0.68017545  1  1.565709  0  0.232257  0.603712  0  4.166735  0
C  C45  1  0.31236193  0.56536282  0.81029313  1  1.585132  0  0.217262  0.629945  0  4.216433  0
C  C46  1  0.43769257  0.18387921  0.93874549  1  1.582961  0  0.21784  0.630204  0  4.219596  0
C  C47  1  0.43034904  0.93053961  0.93042467  1  1.575189  0  0.232505  0.603102  0  4.166907  0
C  C48  1  0.68376840  0.93975657  0.93828239  1  1.602071  0  0.217023  0.630138  0  4.218669  0
C  C49  1  0.56034343  0.81779165  0.06137866  1  1.606581  0  0.216809  0.629731  0  4.217929  0
C  C50  1  0.56963399  0.07061888  0.06911483  1  1.577347  0  0.231877  0.604292  0  4.165824  0
C  C51  1  0.31517946  0.06238264  0.06119825  1  1.566643  0  0.216789  0.629666  0  4.219986  0
C  C52  1  0.90116262  0.40400765  0.40237357  1  0.007618  0  -0.002087  -0.072331  0  3.925465  0
C  C53  1  0.84700929  0.35006585  0.34828026  1  0.018154  0  -0.004244  -0.008249  0  3.952289  0
C  C54  1  0.83009809  0.44794484  0.38771373  1  0.160145  0  0.090691  0.070676  0  3.915945  0
C  C55  1  0.91848263  0.30541109  0.36212926  1  -0.036787  0  -0.071159  -0.086667  0  3.949309  0
C  C56  1  0.80231305  0.42174292  0.36133022  1  0.021451  0  -0.067381  -0.139798  0  3.918863  0
C  C57  1  0.94476879  0.33220332  0.38901766  1  -0.024956  0  -0.068844  -0.070934  0  3.950963  0
C  C58  1  0.09784592  0.59891675  0.59657857  1  0.053289  0  -0.002068  -0.071006  0  3.927433  0
C  C59  1  0.15172814  0.65185032  0.65122597  1  0.053469  0  -0.00454  -0.009243  0  3.953115  0
C  C60  1  0.13974372  0.64269321  0.58218098  1  0.19016  0  0.091089  0.070344  0  3.916322  0
C  C61  1  0.10944550  0.60884884  0.66639864  1  -0.073983  0  -0.070747  -0.086096  0  3.950646  0
C  C62  1  0.16740721  0.66856422  0.60878846  1  0.021782  0  -0.066951  -0.139612  0  3.9153  0
C  C63  1  0.08327407  0.58252447  0.63923018  1  -0.054814  0  -0.068062  -0.070691  0  3.94877  0
C  C64  1  0.30544449  0.45227536  0.39978839  1  0.547321  0  0.107599  0.259552  0  4.066802  0
C  C65  1  0.44631569  0.29573693  0.34892194  1  0.553477  0  0.104326  0.2569  0  4.070649  0
C  C66  1  0.25923078  0.41370144  0.41322941  1  -0.059552  0  -0.033786  -0.244392  0  3.963667  0
C  C67  1  0.49251460  0.33427707  0.33533222  1  -0.06713  0  -0.034777  -0.24696  0  3.968503  0
C  C68  1  0.37831662  0.33788346  0.37273483  1  -0.143396  0  -0.029324  -0.119646  0  4.1227  0
C  C69  1  0.37413946  0.40951532  0.37660467  1  -0.082951  0  -0.028129  -0.118152  0  4.115697  0
C  C70  1  0.72439786  0.57634857  0.62975919  1  0.571456  0  0.104031  0.256166  0  4.071739  0
C  C71  1  0.52427966  0.67375731  0.62172622  1  0.600538  0  0.10641  0.260294  0  4.069771  0
C  C72  1  0.74140292  0.58628122  0.58738503  1  -0.072444  0  -0.033529  -0.246031  0  3.967228  0
C  C73  1  0.50722572  0.66465061  0.66413609  1  -0.128217  0  -0.035387  -0.247615  0  3.971991  0
C  C74  1  0.60330568  0.64213666  0.60885830  1  -0.109607  0  -0.028243  -0.121595  0  4.121022  0
C  C75  1  0.64541410  0.60834922  0.64265354  1  -0.126245  0  -0.029571  -0.119588  0  4.122478  0
C  C76  1  0.07726855  0.22552260  0.62829300  1  0.585435  0  0.105898  0.259749  0  4.068867  0
C  C77  1  0.17245499  0.02596058  0.62039254  1  0.574376  0  0.104715  0.257704  0  4.072314  0
C  C78  1  0.08668875  0.24280140  0.58590243  1  -0.030889  0  -0.03486  -0.24716  0  3.968307  0
C  C79  1  0.16210661  0.00871028  0.66274367  1  -0.071263  0  -0.034081  -0.246624  0  3.968904  0
C  C80  1  0.14149047  0.10482787  0.60747597  1  -0.120349  0  -0.028806  -0.119393  0  4.122358  0
C  C81  1  0.10806088  0.14663077  0.64122884  1  -0.187432  0  -0.028614  -0.121651  0  4.120936  0
C  C82  1  0.84544622  0.79937174  0.39734700  1  0.524671  0  0.106881  0.258297  0  4.06829  0
C  C83  1  0.90624176  0.94713865  0.35396119  1  0.587479  0  0.105205  0.259977  0  4.067466  0
C  C84  1  0.91321054  0.75662474  0.41453682  1  -0.082251  0  -0.032869  -0.245186  0  3.960645  0
C  C85  1  0.83821636  0.99046502  0.33709916  1  -0.098345  0  -0.035149  -0.247081  0  3.965081  0
C  C86  1  0.90945885  0.87752594  0.37610851  1  -0.135972  0  -0.029407  -0.124217  0  4.121808  0
C  C87  1  0.84221943  0.86907569  0.37530337  1  -0.061289  0  -0.028197  -0.117414  0  4.116161  0
C  C88  1  0.65430384  0.15258139  0.15167387  1  0.0361  0  -0.001964  -0.071583  0  3.924327  0
C  C89  1  0.59883353  0.09914143  0.09788473  1  -0.022677  0  -0.003874  -0.00814  0  3.952614  0
C  C90  1  0.66959246  0.16635456  0.10884120  1  0.199354  0  0.091396  0.071478  0  3.913864  0
C  C91  1  0.58340101  0.08398190  0.14052281  1  -0.055762  0  -0.071307  -0.087182  0  3.948841  0
C  C92  1  0.64194736  0.14100082  0.08194962  1  0.069342  0  -0.067735  -0.141164  0  3.916423  0
C  C93  1  0.61062801  0.11084470  0.16691770  1  -0.01101  0  -0.067931  -0.070281  0  3.947289  0
C  C94  1  0.67398879  0.52645189  0.12126694  1  0.633271  0  0.106564  0.258537  0  4.067304  0
C  C95  1  0.57570605  0.72615136  0.12866185  1  0.588487  0  0.104663  0.257473  0  4.068869  0
C  C96  1  0.66508575  0.50947780  0.16370221  1  -0.119328  0  -0.03331  -0.243965  0  3.962657  0
C  C97  1  0.58487879  0.74324453  0.08624608  1  -0.125018  0  -0.035547  -0.246682  0  3.966281  0
C  C98  1  0.60757193  0.64734168  0.14178395  1  -0.137903  0  -0.028823  -0.119406  0  4.120759  0
C  C99  1  0.64126087  0.60527723  0.10815733  1  -0.114931  0  -0.028342  -0.118682  0  4.115629  0
C  C100  1  0.07963781  0.12481965  0.17703505  1  0.561654  0  0.104096  0.256383  0  4.070469  0
C  C101  1  0.16840089  0.12481998  0.07324059  1  0.604446  0  0.106221  0.259935  0  4.066085  0
C  C102  1  0.00745883  0.16236477  0.16417639  1  -0.09874  0  -0.033172  -0.245123  0  3.960776  0
C  C103  1  0.24062544  0.08700455  0.08606388  1  -0.112968  0  -0.035625  -0.247751  0  3.965816  0
C  C104  1  0.10923992  0.13880716  0.10611822  1  -0.140336  0  -0.028645  -0.122191  0  4.118339  0
C  C105  1  0.13872693  0.11073068  0.14415481  1  -0.150285  0  -0.028864  -0.11947  0  4.122709  0
C  C106  1  0.34560065  0.84909695  0.84767774  1  0.021449  0  -0.001961  -0.072206  0  3.923887  0
C  C107  1  0.40122135  0.90203433  0.90162691  1  -0.046567  0  -0.003355  -0.006345  0  3.951615  0
C  C108  1  0.30219815  0.91989111  0.86232272  1  0.141689  0  0.090808  0.072212  0  3.912402  0
C  C109  1  0.44535223  0.83077814  0.88783851  1  0.029674  0  -0.071328  -0.086707  0  3.950818  0
C  C110  1  0.32924850  0.94709477  0.88857965  1  0.023421  0  -0.067053  -0.140654  0  3.914843  0
C  C111  1  0.41774241  0.80513343  0.86102440  1  -0.013252  0  -0.068619  -0.071067  0  3.949604  0
C  C112  1  0.40499524  0.44862580  0.85241473  1  0.514693  0  0.104689  0.256997  0  4.068217  0
C  C113  1  0.34456039  0.30128219  0.89730322  1  0.577073  0  0.105121  0.258063  0  4.067221  0
C  C114  1  0.33687847  0.49121530  0.83556407  1  -0.087426  0  -0.03456  -0.245614  0  3.965336  0
C  C115  1  0.41283051  0.25847192  0.91396269  1  -0.095071  0  -0.034573  -0.246975  0  3.967458  0
C  C116  1  0.34107308  0.37073739  0.87485614  1  -0.120909  0  -0.02815  -0.118645  0  4.119574  0
C  C117  1  0.40845916  0.37929244  0.87503597  1  -0.076591  0  -0.028721  -0.119765  0  4.119984  0
C  C118  1  0.94605268  0.79710639  0.84924669  1  0.627833  0  0.103868  0.257199  0  4.068153  0
C  C119  1  0.80536877  0.95274169  0.90077699  1  0.591275  0  0.105662  0.258167  0  4.067761  0
C  C120  1  0.99306714  0.83501731  0.83673114  1  -0.155985  0  -0.033609  -0.246957  0  3.964237  0
C  C121  1  0.75844947  0.91475638  0.91350105  1  -0.115142  0  -0.034943  -0.24527  0  3.964348  0
C  C122  1  0.87398289  0.91037590  0.87740660  1  -0.102131  0  -0.028334  -0.121316  0  4.1165  0
C  C123  1  0.87756453  0.83938114  0.87268426  1  -0.143289  0  -0.029425  -0.119333  0  4.121081  0
S  S124  1  0.30006128  0.32319496  0.39755992  1  0.309808  0  0.098556  0.1779  0  2.748534  0
S  S125  1  0.45252418  0.42406991  0.35186843  1  0.309609  0  0.103668  0.185657  0  2.745477  0
S  S126  1  0.65968774  0.63542856  0.56241686  1  0.318433  0  0.111804  0.197644  0  2.740458  0
S  S127  1  0.58900487  0.61609791  0.68912919  1  0.300782  0  0.097942  0.178033  0  2.748136  0
S  S128  1  0.13431190  0.16137282  0.56099493  1  0.300219  0  0.099746  0.180615  0  2.748985  0
S  S129  1  0.11399656  0.09008826  0.68766911  1  0.328169  0  0.108186  0.192878  0  2.74246  0
S  S130  1  0.97464710  0.80189580  0.40379020  1  0.326769  0  0.109977  0.196494  0  2.740899  0
S  S131  1  0.77652776  0.94539109  0.34823881  1  0.300428  0  0.099203  0.179426  0  2.743746  0
S  S132  1  0.61544154  0.59104985  0.18838008  1  0.316671  0  0.10137  0.182183  0  2.744627  0
S  S133  1  0.63344714  0.66157426  0.06155556  1  0.310395  0  0.101084  0.181723  0  2.744985  0
S  S134  1  0.01113039  0.18102429  0.11080556  1  0.341407  0  0.112981  0.199687  0  2.734963  0
S  S135  1  0.23681241  0.06796884  0.13945627  1  0.338096  0  0.098696  0.179335  0  2.744325  0
S  S136  1  0.27515611  0.44630173  0.84756766  1  0.317576  0  0.102288  0.183463  0  2.745824  0
S  S137  1  0.47441945  0.30357425  0.90222962  1  0.312673  0  0.103023  0.18518  0  2.743835  0
S  S138  1  0.95334050  0.92430716  0.85382097  1  0.323442  0  0.111798  0.198513  0  2.737775  0
S  S139  1  0.79851297  0.82519648  0.89662550  1  0.310515  0  0.097697  0.177191  0  2.745584  0
N  N140  1  0.78157285  0.52621977  0.39807761  1  0.416129  0  0.058616  0.518407  0  4.242675  0
N  N141  1  0.15439262  0.66689800  0.53780569  1  0.419307  0  0.059516  0.520861  0  4.241022  0
N  N142  1  0.71863539  0.20612705  0.08950292  1  0.423523  0  0.059124  0.521031  0  4.238587  0
N  N143  1  0.22356175  0.96888571  0.85210632  1  0.409792  0  0.059961  0.520676  0  4.238569  0
O  O144  1  0.00016950  0.49965369  0.49988316  1  -1.233984  0  -0.571573  -1.036748  0  2.526239  0
O  O145  1  0.07370468  0.31638973  0.52207415  1  -1.140125  0  -0.321336  -0.548821  0  2.320209  0
O  O146  1  0.02154885  0.54111653  0.58508008  1  -1.15875  0  -0.307587  -0.534215  0  2.327638  0
O  O147  1  0.15295295  0.50774810  0.44535943  1  -1.158326  0  -0.31034  -0.530542  0  2.3232  0
O  O148  1  0.03155007  0.37566382  0.58047346  1  -1.153866  0  -0.312598  -0.533162  0  2.325809  0
O  O149  1  0.15715576  0.38886138  0.44866211  1  -1.169838  0  -0.320481  -0.547815  0  2.318528  0
O  O150  1  0.09916202  0.56807926  0.53112968  1  -1.1575  0  -0.307039  -0.537258  0  2.360938  0
O  O151  1  0.00139632  0.65867541  0.45384048  1  -1.165992  0  -0.31593  -0.541959  0  2.324755  0
O  O152  1  0.88281953  0.48542438  0.45103640  1  -1.167558  0  -0.306844  -0.537262  0  2.363415  0
O  O153  1  0.89404664  0.64782671  0.44427786  1  -1.137258  0  -0.310293  -0.530974  0  2.325866  0
O  O154  1  0.00101902  0.39179914  0.43715070  1  -1.166161  0  -0.308473  -0.536655  0  2.319695  0
O  O155  1  0.87437213  0.52046333  0.58139336  1  -1.159262  0  -0.31248  -0.532395  0  2.32563  0
O  O156  1  0.81496898  0.58418411  0.52402467  1  -1.153925  0  -0.315747  -0.539737  0  2.321008  0
O  O157  1  0.75044020  0.25013607  0.25031425  1  -1.236262  0  -0.570142  -1.034206  0  2.521608  0
O  O158  1  0.59745864  0.35694334  0.30326767  1  -1.170146  0  -0.319399  -0.54558  0  2.32736  0
O  O159  1  0.67537577  0.15434977  0.21886767  1  -1.156752  0  -0.307699  -0.535125  0  2.320437  0
O  O160  1  0.73186717  0.37705027  0.16972547  1  -1.157932  0  -0.31054  -0.529527  0  2.325746  0
O  O161  1  0.59373942  0.24442564  0.29771284  1  -1.163908  0  -0.314722  -0.537731  0  2.323249  0
O  O162  1  0.67044135  0.43554398  0.22738088  1  -1.171736  0  -0.319719  -0.546453  0  2.320363  0
O  O163  1  0.70348159  0.23406941  0.16668351  1  -1.165501  0  -0.306967  -0.536397  0  2.364046  0
O  O164  1  0.87479754  0.21842393  0.16913221  1  -1.169792  0  -0.314568  -0.538079  0  2.321419  0
O  O165  1  0.86138845  0.25524706  0.30924845  1  -1.170745  0  -0.308679  -0.539541  0  2.337908  0
O  O166  1  0.93311064  0.17475619  0.22810288  1  -1.13666  0  -0.313197  -0.535139  0  2.330998  0
O  O167  1  0.75312507  0.36539013  0.30771591  1  -1.178722  0  -0.31021  -0.538591  0  2.330389  0
O  O168  1  0.74622229  0.09272911  0.30181422  1  -1.16884  0  -0.319615  -0.545183  0  2.322698  0
O  O169  1  0.86019294  0.09653301  0.30433740  1  -1.161942  0  -0.313009  -0.533656  0  2.322598  0
O  O170  1  0.24899531  0.75053732  0.74977370  1  -1.222566  0  -0.570764  -1.033862  0  2.524847  0
O  O171  1  0.37410928  0.72293031  0.66932474  1  -1.157227  0  -0.312079  -0.531394  0  2.332058  0
O  O172  1  0.35792186  0.75031606  0.81238435  1  -1.171796  0  -0.307966  -0.534588  0  2.322589  0
O  O173  1  0.16468046  0.93496049  0.72616009  1  -1.156835  0  -0.317212  -0.542519  0  2.322724  0
O  O174  1  0.43362850  0.67723879  0.72787198  1  -1.138782  0  -0.321302  -0.548528  0  2.322719  0
O  O175  1  0.22470478  0.87589753  0.66851173  1  -1.158364  0  -0.31278  -0.53383  0  2.329276  0
O  O176  1  0.26193808  0.86749738  0.79987069  1  -1.173196  0  -0.306354  -0.536544  0  2.36337  0
O  O177  1  0.09974848  0.85598184  0.80569512  1  -1.149386  0  -0.315924  -0.54011  0  2.320375  0
O  O178  1  0.16507074  0.66283814  0.71847836  1  -1.161587  0  -0.30965  -0.540672  0  2.334185  0
O  O179  1  0.09369447  0.74507615  0.79909062  1  -1.159164  0  -0.313846  -0.536272  0  2.328786  0
O  O180  1  0.21692646  0.72050926  0.66392376  1  -1.161416  0  -0.308448  -0.53531  0  2.338518  0
O  O181  1  0.35970555  0.59560679  0.80118389  1  -1.149221  0  -0.313065  -0.533406  0  2.325409  0
O  O182  1  0.24497314  0.59252086  0.79970070  1  -1.16064  0  -0.318557  -0.54516  0  2.320877  0
O  O183  1  0.50005992  0.00029417  0.99988148  1  -1.229222  0  -0.56945  -1.032544  0  2.520846  0
O  O184  1  0.50436812  0.15755959  0.95017847  1  -1.170248  0  -0.319563  -0.545766  0  2.322797  0
O  O185  1  0.38642556  0.99564569  0.94173299  1  -1.159469  0  -0.308359  -0.53551  0  2.333585  0
O  O186  1  0.65328303  0.89220595  0.94591173  1  -1.177695  0  -0.320819  -0.548072  0  2.32068  0
O  O187  1  0.39138946  0.15237673  0.94653937  1  -1.152647  0  -0.312392  -0.532834  0  2.329587  0
O  O188  1  0.65624173  0.00567404  0.94991593  1  -1.163293  0  -0.313291  -0.535068  0  2.32742  0
O  O189  1  0.49641947  0.88726482  0.94108644  1  -1.175227  0  -0.31004  -0.540935  0  2.332633  0
O  O190  1  0.57679216  0.81661328  0.02239274  1  -1.173868  0  -0.320422  -0.547126  0  2.321394  0
O  O191  1  0.53039044  0.03324096  0.08552338  1  -1.165569  0  -0.308885  -0.539822  0  2.335665  0
O  O192  1  0.52542197  0.87622217  0.08051784  1  -1.159876  0  -0.313563  -0.535027  0  2.328123  0
O  O193  1  0.58654587  0.08624064  0.03076671  1  -1.161204  0  -0.308945  -0.537518  0  2.331101  0
O  O194  1  0.31552418  0.07687472  0.02226825  1  -1.125965  0  -0.312412  -0.533436  0  2.329381  0
O  O195  1  0.37334773  0.02818567  0.08125889  1  -1.166714  0  -0.320074  -0.547143  0  2.321342  0
O  O196  1  0.80397619  0.57581456  0.38216064  1  -0.430365  0  -0.128838  -0.31765  0  1.87022  0
O  O197  1  0.72086521  0.53599278  0.42007726  1  -0.424304  0  -0.131018  -0.320026  0  1.847801  0
O  O198  1  0.09928077  0.71594870  0.52094758  1  -0.430825  0  -0.132447  -0.324034  0  1.869797  0
O  O199  1  0.22114085  0.63892005  0.52192267  1  -0.427494  0  -0.128337  -0.316249  0  1.848369  0
O  O200  1  0.78753613  0.17121506  0.09264802  1  -0.423953  0  -0.130896  -0.322296  0  1.871669  0
O  O201  1  0.68703515  0.26930980  0.07003891  1  -0.431934  0  -0.130148  -0.318932  0  1.84586  0
O  O202  1  0.17353190  0.94723896  0.86844201  1  -0.422537  0  -0.131285  -0.321757  0  1.86857  0
O  O203  1  0.21398262  0.02919423  0.82978828  1  -0.427007  0  -0.13146  -0.320722  0  1.848575  0
F  F204  1  0.28827406  0.52262172  0.40764416  1  -0.612695  0  -0.078797  -0.09437  0  1.351471  0
F  F205  1  0.46312304  0.22555301  0.34071418  1  -0.615164  0  -0.085954  -0.103258  0  1.347823  0
F  F206  1  0.77644707  0.54082073  0.65646520  1  -0.628767  0  -0.084322  -0.101359  0  1.348822  0
F  F207  1  0.47231250  0.70898135  0.59502355  1  -0.617423  0  -0.081195  -0.097702  0  1.35001  0
F  F208  1  0.04231646  0.27721872  0.65495959  1  -0.615748  0  -0.083626  -0.10055  0  1.348199  0
F  F209  1  0.20761732  0.97426802  0.59373180  1  -0.622513  0  -0.083158  -0.099975  0  1.349875  0
F  F210  1  0.78793639  0.77839486  0.40109776  1  -0.611109  0  -0.079459  -0.095018  0  1.353896  0
F  F211  1  0.96393802  0.96800630  0.35014527  1  -0.618  0  -0.083914  -0.101217  0  1.347274  0
F  F212  1  0.70939409  0.47467435  0.09473531  1  -0.621577  0  -0.079076  -0.094615  0  1.351052  0
F  F213  1  0.54060636  0.77805879  0.15522357  1  -0.628392  0  -0.084197  -0.101275  0  1.349002  0
F  F214  1  0.09359870  0.10333357  0.21643026  1  -0.617718  0  -0.084022  -0.101172  0  1.350034  0
F  F215  1  0.15453128  0.14657066  0.03386615  1  -0.61783  0  -0.082526  -0.099085  0  1.348163  0
F  F216  1  0.46258671  0.46975474  0.84820612  1  -0.612317  0  -0.084026  -0.100894  0  1.34789  0
F  F217  1  0.28694042  0.28024151  0.90151974  1  -0.612077  0  -0.082366  -0.098996  0  1.347678  0
F  F218  1  0.96256717  0.72734605  0.84049909  1  -0.614037  0  -0.084986  -0.102522  0  1.347781  0
F  F219  1  0.78873074  0.02257168  0.90938034  1  -0.616065  0  -0.08254  -0.099081  0  1.349068  0
