# generated using pymatgen
data_CdSiH30C29N2O5
_symmetry_space_group_name_H-M   'P 1'
_cell_length_a   5.77546170
_cell_length_b   21.18615964
_cell_length_c   24.88502701
_cell_angle_alpha   90.00023752
_cell_angle_beta   89.99935601
_cell_angle_gamma   89.99985751
_symmetry_Int_Tables_number   1
_chemical_formula_structural   CdSiH30C29N2O5
_chemical_formula_sum   'Cd4 Si4 H120 C116 N8 O20'
_cell_volume   3044.92826266
_cell_formula_units_Z   4
loop_
 _symmetry_equiv_pos_site_id
 _symmetry_equiv_pos_as_xyz
  1  'x, y, z'
loop_
 _atom_site_type_symbol
 _atom_site_label
 _atom_site_symmetry_multiplicity
 _atom_site_fract_x
 _atom_site_fract_y
 _atom_site_fract_z
 _atom_site_occupancy
 _atom_site_pbe_bader_charge
 _atom_site_pbe_bader_spin_density
 _atom_site_pbe_cm5_charge
 _atom_site_pbe_ddec_charge
 _atom_site_pbe_ddec_spin_density
 _atom_site_pbe_ddec_sum_bond_order
 _atom_site_pbe_magmom
Cd  Cd0  1  0.09335294  0.29595305  0.60081796  1  1.25599  0  0.772033  0.899629  0  2.0918  0
Cd  Cd1  1  0.90665351  0.79595071  0.89917729  1  1.255917  0  0.772072  0.89976  0  2.09176  0
Cd  Cd2  1  0.90665431  0.20405210  0.10082020  1  1.256016  0  0.772082  0.89975  0  2.091739  0
Cd  Cd3  1  0.09333515  0.70404354  0.39917780  1  1.255883  0  0.772041  0.899679  0  2.0918  0
Si  Si4  1  0.54616183  0.98640131  0.38033153  1  2.690322  0  0.12334  0.844271  0  3.827399  0
Si  Si5  1  0.45378616  0.48639884  0.11966753  1  2.690344  0  0.123397  0.844346  0  3.827164  0
Si  Si6  1  0.45384862  0.51359946  0.88032860  1  2.690564  0  0.123362  0.84428  0  3.827159  0
Si  Si7  1  0.54617333  0.01360356  0.61966679  1  2.69038  0  0.123421  0.84436  0  3.82731  0
H  H8  1  0.55206016  0.33204541  0.61858159  1  0.646897  0  0.281462  0.376325  0  0.97604  0
H  H9  1  0.44795279  0.83205406  0.88142263  1  0.646668  0  0.281442  0.376397  0  0.975924  0
H  H10  1  0.44794614  0.16794754  0.11857994  1  0.646648  0  0.281436  0.376413  0  0.975895  0
H  H11  1  0.55204895  0.66795473  0.38141833  1  0.646846  0  0.281458  0.376335  0  0.976034  0
H  H12  1  0.56841012  0.27722414  0.57585578  1  0.649585  0  0.280504  0.374033  0  0.981837  0
H  H13  1  0.43158271  0.77721978  0.92414101  1  0.649845  0  0.280498  0.374123  0  0.981673  0
H  H14  1  0.43159675  0.22277759  0.07586120  1  0.649803  0  0.280484  0.374139  0  0.981705  0
H  H15  1  0.56839076  0.72278260  0.42414169  1  0.649602  0  0.280508  0.374104  0  0.981705  0
H  H16  1  0.46239288  0.20770586  0.45317075  1  0.081233  0  0.101181  0.103133  0  1.011779  0
H  H17  1  0.53755672  0.70770351  0.04682927  1  0.080962  0  0.101022  0.102715  0  1.011692  0
H  H18  1  0.53764908  0.29229428  0.95317510  1  0.080774  0  0.101208  0.103177  0  1.011594  0
H  H19  1  0.46241975  0.79229810  0.54682696  1  0.080881  0  0.101065  0.102808  0  1.01191  0
H  H20  1  0.35107920  0.11768189  0.39516917  1  0.080273  0  0.095225  0.08581  0  1.036639  0
H  H21  1  0.64884377  0.61767645  0.10482529  1  0.081056  0  0.095252  0.085964  0  1.036284  0
H  H22  1  0.64895030  0.38231374  0.89516637  1  0.080099  0  0.095228  0.085729  0  1.036416  0
H  H23  1  0.35112265  0.88232118  0.60483001  1  0.080657  0  0.09526  0.085932  0  1.036501  0
H  H24  1  0.95710093  0.01657435  0.44811859  1  0.062962  0  0.094443  0.078931  0  1.069127  0
H  H25  1  0.04282325  0.51656376  0.05188272  1  0.062548  0  0.094615  0.07937  0  1.068741  0
H  H26  1  0.04292226  0.48342624  0.94811838  1  0.06335  0  0.094439  0.078975  0  1.06902  0
H  H27  1  0.95714775  0.98343316  0.55188843  1  0.063045  0  0.094617  0.079382  0  1.068822  0
H  H28  1  0.07703248  0.10974211  0.50199475  1  0.085234  0  0.100789  0.10412  0  1.047858  0
H  H29  1  0.92289656  0.60974021  0.99801266  1  0.084762  0  0.100792  0.103986  0  1.047871  0
H  H30  1  0.92300780  0.39025834  0.00199806  1  0.085426  0  0.100848  0.104207  0  1.0478  0
H  H31  1  0.07706428  0.89026298  0.49801190  1  0.085079  0  0.100794  0.104042  0  1.047976  0
H  H32  1  0.93477964  0.95557346  0.34063085  1  0.070611  0  0.085614  0.158251  0  1.068774  0
H  H33  1  0.06519816  0.45556946  0.15937252  1  0.07053  0  0.085708  0.158357  0  1.068696  0
H  H34  1  0.06523815  0.54442052  0.84062250  1  0.070459  0  0.085677  0.158289  0  1.068712  0
H  H35  1  0.93478344  0.04443170  0.65936778  1  0.070746  0  0.085593  0.15825  0  1.068817  0
H  H36  1  0.72815247  0.89388133  0.33670451  1  0.036511  0  0.087278  0.15698  0  1.043562  0
H  H37  1  0.27183818  0.39387632  0.16329862  1  0.036184  0  0.087216  0.156942  0  1.043548  0
H  H38  1  0.27187072  0.60611641  0.83670275  1  0.036343  0  0.087265  0.157  0  1.043567  0
H  H39  1  0.72815359  0.10612487  0.66329460  1  0.036277  0  0.087251  0.156924  0  1.043539  0
H  H40  1  0.86421602  0.91045264  0.39852469  1  0.075718  0  0.095275  0.177456  0  1.02596  0
H  H41  1  0.13573461  0.41044363  0.10148292  1  0.075577  0  0.095296  0.177445  0  1.025941  0
H  H42  1  0.13577787  0.58954585  0.89851796  1  0.075918  0  0.095288  0.177486  0  1.025923  0
H  H43  1  0.86421721  0.08955444  0.60147330  1  0.075629  0  0.095291  0.177405  0  1.026012  0
H  H44  1  0.46351030  0.92782271  0.46268626  1  0.056226  0  0.094992  0.175702  0  1.029231  0
H  H45  1  0.53647822  0.42782077  0.03731057  1  0.056247  0  0.095047  0.175743  0  1.029205  0
H  H46  1  0.53648361  0.57217608  0.96268577  1  0.056193  0  0.095007  0.175723  0  1.029182  0
H  H47  1  0.46351687  0.07217937  0.53731025  1  0.056054  0  0.095016  0.175665  0  1.029217  0
H  H48  1  0.28534951  0.89770013  0.41036177  1  0.088032  0  0.092502  0.171492  0  1.037795  0
H  H49  1  0.71463764  0.39770260  0.08963575  1  0.088161  0  0.092467  0.171472  0  1.037852  0
H  H50  1  0.71466107  0.60229747  0.91036138  1  0.088035  0  0.092489  0.171499  0  1.03783  0
H  H51  1  0.28535983  0.10230155  0.58963434  1  0.088064  0  0.09246  0.171447  0  1.037908  0
H  H52  1  0.21312367  0.96979729  0.44274090  1  -0.007305  0  0.088081  0.159043  0  1.069181  0
H  H53  1  0.78682798  0.46979816  0.05725448  1  -0.00728  0  0.088018  0.158838  0  1.06945  0
H  H54  1  0.78686784  0.53020234  0.94274409  1  -0.007288  0  0.088079  0.159019  0  1.069185  0
H  H55  1  0.21314180  0.03020348  0.55725217  1  -0.007474  0  0.088081  0.158949  0  1.069316  0
H  H56  1  0.69699087  0.98651289  0.26897564  1  0.061242  0  0.094599  0.079635  0  1.060873  0
H  H57  1  0.30296578  0.48650580  0.23102784  1  0.061026  0  0.094535  0.079566  0  1.06102  0
H  H58  1  0.30304290  0.51348926  0.76897266  1  0.050352  0  0.094655  0.079719  0  1.060921  0
H  H59  1  0.69698945  0.01349805  0.73102394  1  0.060614  0  0.094607  0.079637  0  1.061006  0
H  H60  1  0.55998640  0.03720335  0.18478041  1  0.099005  0  0.098629  0.098527  0  1.041631  0
H  H61  1  0.44001719  0.53719944  0.31521655  1  0.098999  0  0.098626  0.098518  0  1.041617  0
H  H62  1  0.44005443  0.46278754  0.68478322  1  0.099311  0  0.098609  0.098585  0  1.041617  0
H  H63  1  0.55999158  0.96280529  0.81521507  1  0.099043  0  0.09863  0.09853  0  1.041709  0
H  H64  1  0.95163908  0.10325270  0.26597389  1  0.105474  0  0.103815  0.11029  0  1.002497  0
H  H65  1  0.04834293  0.60324387  0.23402052  1  0.105975  0  0.103804  0.110377  0  1.002361  0
H  H66  1  0.04840776  0.39674234  0.76597736  1  0.105291  0  0.103925  0.110334  0  1.002258  0
H  H67  1  0.95165982  0.89674915  0.73402832  1  0.105685  0  0.10382  0.110272  0  1.002445  0
H  H68  1  0.08784121  0.05502915  0.35084431  1  0.047165  0  0.097922  0.086842  0  1.03789  0
H  H69  1  0.91209636  0.55502238  0.14915514  1  0.047346  0  0.097925  0.086883  0  1.037927  0
H  H70  1  0.91216990  0.44497477  0.85084153  1  0.047128  0  0.097908  0.086804  0  1.037801  0
H  H71  1  0.08785555  0.94497545  0.64915950  1  0.047287  0  0.097912  0.086838  0  1.037943  0
H  H72  1  0.42064193  0.32732416  0.49717098  1  0.142676  0  0.116329  0.098345  0  1.043265  0
H  H73  1  0.57935298  0.82732584  0.00282588  1  0.142566  0  0.116266  0.098283  0  1.043292  0
H  H74  1  0.57933359  0.17267429  0.99717679  1  0.142598  0  0.11627  0.098223  0  1.043272  0
H  H75  1  0.42063625  0.67267982  0.50282322  1  0.142613  0  0.116285  0.098213  0  1.043285  0
H  H76  1  0.41001788  0.38777145  0.41178562  1  0.059862  0  0.104522  0.111448  0  1.008609  0
H  H77  1  0.58998497  0.88777162  0.08821186  1  0.059725  0  0.104468  0.111392  0  1.008766  0
H  H78  1  0.59002111  0.11222520  0.91179319  1  0.060122  0  0.104474  0.111347  0  1.008981  0
H  H79  1  0.40998408  0.61222640  0.58820418  1  0.059755  0  0.104476  0.111385  0  1.009013  0
H  H80  1  0.74588365  0.46157627  0.46040457  1  0.087125  0  0.106301  0.112078  0  1.006127  0
H  H81  1  0.25410273  0.96156835  0.03959721  1  0.087282  0  0.106305  0.112078  0  1.006273  0
H  H82  1  0.25414580  0.03842674  0.96040782  1  0.087013  0  0.106343  0.112144  0  1.006333  0
H  H83  1  0.74587240  0.53842331  0.53959651  1  0.08706  0  0.106363  0.112178  0  1.006319  0
H  H84  1  0.78883412  0.40049365  0.54612784  1  0.137073  0  0.11324  0.08914  0  1.043937  0
H  H85  1  0.21118321  0.90049000  0.95387423  1  0.137037  0  0.113244  0.089142  0  1.043933  0
H  H86  1  0.21118647  0.09951125  0.04612929  1  0.136987  0  0.113244  0.089155  0  1.043771  0
H  H87  1  0.78878520  0.59951252  0.45387394  1  0.136931  0  0.113232  0.089136  0  1.043742  0
H  H88  1  0.20114818  0.50517684  0.37884781  1  0.071664  0  0.10294  0.114866  0  0.970653  0
H  H89  1  0.79886444  0.00517517  0.12115387  1  0.071751  0  0.102964  0.114837  0  0.970812  0
H  H90  1  0.79889352  0.99482156  0.87885191  1  0.071938  0  0.102897  0.114742  0  0.970936  0
H  H91  1  0.20116942  0.49482299  0.62114971  1  0.07161  0  0.102934  0.114865  0  0.970515  0
H  H92  1  0.89789597  0.49715730  0.37953213  1  0.019871  0  0.095895  0.102334  0  1.00881  0
H  H93  1  0.10210903  0.99715077  0.12047018  1  0.019618  0  0.095916  0.102393  0  1.008694  0
H  H94  1  0.10214130  0.00284676  0.87953118  1  0.019715  0  0.09589  0.102289  0  1.008695  0
H  H95  1  0.89791196  0.50284080  0.62046819  1  0.019947  0  0.095962  0.102397  0  1.008674  0
H  H96  1  0.06437381  0.46504482  0.29234889  1  0.013902  0  0.092793  0.090158  0  1.009527  0
H  H97  1  0.93561946  0.96504254  0.20765130  1  0.014097  0  0.092804  0.090185  0  1.00956  0
H  H98  1  0.93561448  0.03495742  0.79235255  1  0.013814  0  0.09278  0.090121  0  1.009464  0
H  H99  1  0.06440030  0.53496310  0.70764975  1  0.014043  0  0.092773  0.090171  0  1.009422  0
H  H100  1  0.24051161  0.40754127  0.32340580  1  -0.012322  0  0.085929  0.070429  0  1.011947  0
H  H101  1  0.75948061  0.90753752  0.17659497  1  -0.012339  0  0.085964  0.070451  0  1.012034  0
H  H102  1  0.75948366  0.09245875  0.82341210  1  -0.012258  0  0.085933  0.070406  0  1.012106  0
H  H103  1  0.24052697  0.59246516  0.67658519  1  -0.012409  0  0.085962  0.070449  0  1.012064  0
H  H104  1  0.70847942  0.40908556  0.32207997  1  0.041141  0  0.092403  0.091246  0  0.998616  0
H  H105  1  0.29152490  0.90908156  0.17792563  1  0.041334  0  0.092384  0.09115  0  0.998673  0
H  H106  1  0.29152284  0.09092153  0.82207931  1  0.041371  0  0.092393  0.091199  0  0.998732  0
H  H107  1  0.70848607  0.59091687  0.67792039  1  0.041265  0  0.092404  0.091183  0  0.998703  0
H  H108  1  0.87856570  0.35146307  0.35553271  1  0.039184  0  0.097347  0.101557  0  0.974815  0
H  H109  1  0.12142546  0.85145759  0.14447308  1  0.039217  0  0.097354  0.101578  0  0.974766  0
H  H110  1  0.12140533  0.14854653  0.85553066  1  0.039104  0  0.097332  0.101566  0  0.974737  0
H  H111  1  0.87856134  0.64853833  0.64446364  1  0.039032  0  0.097321  0.10151  0  0.974777  0
H  H112  1  0.61146375  0.31517483  0.15200173  1  0.105019  0  0.119489  0.092427  0  0.998516  0
H  H113  1  0.38850187  0.81517203  0.34800513  1  0.105076  0  0.119508  0.092445  0  0.998504  0
H  H114  1  0.38851824  0.18482724  0.65199718  1  0.105018  0  0.119493  0.09242  0  0.998537  0
H  H115  1  0.61148089  0.68482151  0.84799765  1  0.105217  0  0.119503  0.09251  0  0.998435  0
H  H116  1  0.57371869  0.38154194  0.23464075  1  0.071769  0  0.102323  0.105126  0  1.042747  0
H  H117  1  0.42625826  0.88154300  0.26536877  1  0.071848  0  0.102283  0.105129  0  1.042864  0
H  H118  1  0.42628136  0.11846051  0.73463546  1  0.072  0  0.102305  0.105136  0  1.042752  0
H  H119  1  0.57374107  0.61846008  0.76535470  1  0.071835  0  0.102297  0.105084  0  1.042863  0
H  H120  1  0.21746219  0.30035377  0.28963271  1  0.073918  0  0.108368  0.116784  0  0.990844  0
H  H121  1  0.78251919  0.80035394  0.21037128  1  0.073882  0  0.108351  0.116702  0  0.990821  0
H  H122  1  0.78252104  0.19964657  0.78962771  1  0.073937  0  0.108388  0.116783  0  0.990694  0
H  H123  1  0.21747964  0.69965361  0.71036437  1  0.07369  0  0.108402  0.116795  0  0.990782  0
H  H124  1  0.23417522  0.24033372  0.20373313  1  0.094201  0  0.117583  0.087569  0  0.999031  0
H  H125  1  0.76581727  0.74033288  0.29626621  1  0.094421  0  0.117614  0.087589  0  0.99896  0
H  H126  1  0.76581611  0.25966481  0.70372920  1  0.094536  0  0.117607  0.087545  0  0.998962  0
H  H127  1  0.23418905  0.75966751  0.79626551  1  0.094365  0  0.117576  0.087559  0  0.99895  0
C  C128  1  0.83641657  0.21739385  0.51840796  1  1.559558  0  0.20283  0.574215  0  4.217602  0
C  C129  1  0.16353888  0.71739129  0.98159302  1  1.558642  0  0.203199  0.574732  0  4.217576  0
C  C130  1  0.16361590  0.28260384  0.01841061  1  1.558593  0  0.20286  0.574308  0  4.217578  0
C  C131  1  0.83643149  0.78261041  0.48159331  1  1.559178  0  0.202878  0.574271  0  4.217715  0
C  C132  1  0.77634823  0.16413259  0.48122211  1  -0.042647  0  -0.021658  -0.036524  0  3.978234  0
C  C133  1  0.22357591  0.66412743  0.01877895  1  -0.043548  0  -0.021796  -0.036974  0  3.978089  0
C  C134  1  0.22368529  0.33586673  0.98122736  1  -0.042589  0  -0.021443  -0.036206  0  3.977646  0
C  C135  1  0.77638302  0.83587075  0.51878050  1  -0.042941  0  -0.021657  -0.036638  0  3.978181  0
C  C136  1  0.57245020  0.16600030  0.45068311  1  -0.060066  0  -0.086124  -0.092769  0  3.970778  0
C  C137  1  0.42747739  0.66600179  0.04932038  1  -0.058078  0  -0.08577  -0.091662  0  3.969548  0
C  C138  1  0.42760402  0.33400313  0.95068666  1  -0.059371  0  -0.086294  -0.092962  0  3.970387  0
C  C139  1  0.57247817  0.83400172  0.54931636  1  -0.058247  0  -0.085923  -0.092052  0  3.970266  0
C  C140  1  0.51001480  0.11472667  0.41872089  1  -0.075302  0  -0.087412  -0.068464  0  4.017974  0
C  C141  1  0.48988743  0.61472545  0.08127918  1  -0.076084  0  -0.087545  -0.069105  0  4.018242  0
C  C142  1  0.48999612  0.38527520  0.91872570  1  -0.075225  0  -0.087414  -0.068501  0  4.018217  0
C  C143  1  0.51006814  0.88527727  0.58127913  1  -0.076164  0  -0.087462  -0.068798  0  4.018097  0
C  C144  1  0.64546754  0.05946839  0.41727277  1  -0.559681  0  -0.057192  -0.224114  0  3.957835  0
C  C145  1  0.35446132  0.55946677  0.08273071  1  -0.61751  0  -0.057045  -0.223654  0  3.957808  0
C  C146  1  0.35455904  0.44052780  0.91727047  1  -0.560231  0  -0.057194  -0.223862  0  3.957683  0
C  C147  1  0.64550802  0.94053595  0.58273055  1  -0.617508  0  -0.057184  -0.224014  0  3.958149  0
C  C148  1  0.84990059  0.05883970  0.44785116  1  -0.126808  0  -0.089738  -0.077139  0  4.044842  0
C  C149  1  0.15002654  0.55883473  0.05215393  1  -0.069565  0  -0.090103  -0.07805  0  4.045535  0
C  C150  1  0.15012780  0.44115380  0.94784934  1  -0.126728  0  -0.089605  -0.077137  0  4.044988  0
C  C151  1  0.84994444  0.94116691  0.55215570  1  -0.06904  0  -0.090031  -0.077927  0  4.045542  0
C  C152  1  0.91722567  0.11045648  0.47880072  1  -0.069053  0  -0.087936  -0.103111  0  3.975804  0
C  C153  1  0.08269912  0.61044903  0.02120457  1  -0.068122  0  -0.087838  -0.102694  0  3.975734  0
C  C154  1  0.08280798  0.38954284  0.97880207  1  -0.068901  0  -0.088127  -0.103438  0  3.976046  0
C  C155  1  0.91726834  0.88954916  0.52120519  1  -0.069048  0  -0.087865  -0.102826  0  3.975883  0
C  C156  1  0.79244598  0.93252925  0.36220057  1  -0.843824  0  -0.296713  -0.714005  0  3.824689  0
C  C157  1  0.20753035  0.43252462  0.13780271  1  -0.84331  0  -0.296785  -0.714126  0  3.824526  0
C  C158  1  0.20756026  0.56746766  0.86219760  1  -0.843683  0  -0.296773  -0.714122  0  3.824659  0
C  C159  1  0.79244894  0.06747456  0.63779920  1  -0.843784  0  -0.296671  -0.713898  0  3.824571  0
C  C160  1  0.35691881  0.94110727  0.42779796  1  -0.782388  0  -0.292885  -0.712511  0  3.822852  0
C  C161  1  0.64304011  0.44110733  0.07220133  1  -0.782608  0  -0.29292  -0.712456  0  3.822962  0
C  C162  1  0.64307870  0.55889277  0.92779757  1  -0.782383  0  -0.292885  -0.712534  0  3.822883  0
C  C163  1  0.35693060  0.05889438  0.57219759  1  -0.782177  0  -0.292915  -0.712391  0  3.822868  0
C  C164  1  0.40370282  0.01603609  0.31675510  1  -0.633472  0  -0.057278  -0.229985  0  3.952731  0
C  C165  1  0.59626638  0.51602679  0.18324581  1  -0.633136  0  -0.057339  -0.230035  0  3.952868  0
C  C166  1  0.59633090  0.48396862  0.81675441  1  -0.633659  0  -0.057169  -0.229627  0  3.952125  0
C  C167  1  0.40370274  0.98397356  0.68324436  1  -0.633568  0  -0.057371  -0.230108  0  3.952902  0
C  C168  1  0.53153462  0.01130032  0.26878875  1  -0.057655  0  -0.089889  -0.08068  0  4.043086  0
C  C169  1  0.46842253  0.51129223  0.23121174  1  -0.058096  0  -0.089769  -0.080668  0  4.042792  0
C  C170  1  0.46849476  0.48870323  0.76878435  1  -0.045678  0  -0.090019  -0.080978  0  4.043362  0
C  C171  1  0.53154228  0.98871305  0.73121082  1  -0.056494  0  -0.089795  -0.080549  0  4.043164  0
C  C172  1  0.45616686  0.03919816  0.22128080  1  -0.059926  0  -0.087401  -0.09397  0  3.968644  0
C  C173  1  0.54381072  0.53919922  0.27871658  1  -0.060067  0  -0.087415  -0.093937  0  3.968289  0
C  C174  1  0.54386854  0.46079715  0.72128497  1  -0.060533  0  -0.08748  -0.094061  0  3.968982  0
C  C175  1  0.45617404  0.96080911  0.77871814  1  -0.060843  0  -0.087497  -0.094132  0  3.968737  0
C  C176  1  0.24691936  0.07260586  0.21996947  1  -0.062839  0  -0.021406  -0.033417  0  3.965686  0
C  C177  1  0.75305783  0.57260778  0.28003004  1  -0.082048  0  -0.021331  -0.033258  0  3.96517  0
C  C178  1  0.75311438  0.42738425  0.71996982  1  -0.063376  0  -0.021343  -0.03347  0  3.965746  0
C  C179  1  0.24694071  0.92739348  0.78003397  1  -0.062563  0  -0.021295  -0.033235  0  3.96529  0
C  C180  1  0.11454250  0.07721561  0.26707306  1  -0.07473  0  -0.084907  -0.098112  0  3.957245  0
C  C181  1  0.88543637  0.57720734  0.23292004  1  -0.055295  0  -0.084877  -0.098264  0  3.957193  0
C  C182  1  0.88549390  0.42278132  0.76707589  1  -0.074583  0  -0.084777  -0.097791  0  3.957219  0
C  C183  1  0.11456125  0.92278710  0.73292466  1  -0.074826  0  -0.084817  -0.098039  0  3.957125  0
C  C184  1  0.19282430  0.04950233  0.31466861  1  -0.070484  0  -0.085936  -0.067699  0  4.015004  0
C  C185  1  0.80713238  0.54949151  0.18533404  1  -0.070702  0  -0.085934  -0.067679  0  4.015853  0
C  C186  1  0.80720088  0.45049907  0.81466047  1  -0.070467  0  -0.086146  -0.067999  0  4.015566  0
C  C187  1  0.19283663  0.95050412  0.68533496  1  -0.070308  0  -0.086022  -0.06774  0  4.015559  0
C  C188  1  0.17649154  0.10491931  0.16870063  1  1.566986  0  0.201115  0.559115  0  4.245764  0
C  C189  1  0.82349738  0.60491718  0.33129297  1  1.567039  0  0.201096  0.559254  0  4.245884  0
C  C190  1  0.82354669  0.39507293  0.66870632  1  1.568301  0  0.200906  0.558669  0  4.246349  0
C  C191  1  0.17651053  0.89508337  0.83129935  1  1.565872  0  0.200965  0.558838  0  4.246264  0
C  C192  1  0.27505709  0.35847847  0.48811717  1  0.431154  0  0.043614  0.091633  0  3.945802  0
C  C193  1  0.72494610  0.85847446  0.01187941  1  0.431681  0  0.043576  0.091651  0  3.946209  0
C  C194  1  0.72495009  0.14152135  0.98812373  1  0.431199  0  0.043628  0.091697  0  3.94612  0
C  C195  1  0.27503744  0.64152605  0.51187697  1  0.431011  0  0.043667  0.091885  0  3.945966  0
C  C196  1  0.26659999  0.39210362  0.44010122  1  -0.032725  0  -0.091674  -0.196165  0  3.951986  0
C  C197  1  0.73340281  0.89209605  0.05989870  1  -0.034242  0  -0.091555  -0.196134  0  3.951948  0
C  C198  1  0.73341151  0.10790071  0.94010522  1  -0.034199  0  -0.091652  -0.196175  0  3.951973  0
C  C199  1  0.26658854  0.60790327  0.55989213  1  -0.032499  0  -0.091613  -0.196215  0  3.95216  0
C  C200  1  0.07615467  0.43099790  0.42887508  1  -0.007265  0  0.011354  0.168316  0  3.959014  0
C  C201  1  0.92384765  0.93099501  0.07112498  1  -0.00632  0  0.011367  0.168376  0  3.958874  0
C  C202  1  0.92387474  0.06900071  0.92887649  1  -0.005963  0  0.011444  0.168497  0  3.958272  0
C  C203  1  0.07614482  0.56899680  0.57112393  1  -0.007163  0  0.011482  0.168446  0  3.958422  0
C  C204  1  0.89960814  0.43281219  0.46727071  1  0.012593  0  -0.090311  -0.195831  0  3.967682  0
C  C205  1  0.10038551  0.93280950  0.03272774  1  0.012673  0  -0.090357  -0.195932  0  3.968063  0
C  C206  1  0.10043652  0.06718660  0.96727603  1  0.012025  0  -0.090511  -0.19606  0  3.967704  0
C  C207  1  0.89956748  0.56718308  0.53272478  1  0.012589  0  -0.090507  -0.196055  0  3.967945  0
C  C208  1  0.92058721  0.39872636  0.51471401  1  0.420058  0  0.044826  0.103656  0  3.963726  0
C  C209  1  0.07941628  0.89872385  0.98528484  1  0.419854  0  0.0448  0.103647  0  3.963609  0
C  C210  1  0.07940217  0.10127745  0.01471577  1  0.420232  0  0.044883  0.103606  0  3.963881  0
C  C211  1  0.92057986  0.60127645  0.48528947  1  0.419843  0  0.044809  0.103475  0  3.964075  0
C  C212  1  0.06015880  0.47008887  0.37862729  1  -0.007269  0  -0.159264  -0.210223  0  3.932574  0
C  C213  1  0.93983613  0.97008432  0.12137252  1  -0.006713  0  -0.159318  -0.210275  0  3.932653  0
C  C214  1  0.93986120  0.02991612  0.87863133  1  -0.007228  0  -0.159134  -0.209974  0  3.932668  0
C  C215  1  0.06017788  0.52991339  0.62136734  1  -0.007296  0  -0.159293  -0.210196  0  3.932479  0
C  C216  1  0.07261659  0.43197802  0.32632627  1  0.049103  0  -0.159214  -0.129712  0  3.925249  0
C  C217  1  0.92737880  0.93197513  0.17367459  1  0.04873  0  -0.159291  -0.129823  0  3.925482  0
C  C218  1  0.92737506  0.06802390  0.82632968  1  0.049011  0  -0.159256  -0.129764  0  3.925323  0
C  C219  1  0.07263586  0.56802612  0.67367034  1  0.048871  0  -0.159267  -0.129818  0  3.925347  0
C  C220  1  0.87513468  0.38390210  0.32087539  1  -0.006419  0  -0.158009  -0.202293  0  3.946556  0
C  C221  1  0.12485263  0.88389960  0.17912931  1  -0.006528  0  -0.157902  -0.202084  0  3.946744  0
C  C222  1  0.12485380  0.11610169  0.82087280  1  -0.006422  0  -0.157963  -0.202244  0  3.946584  0
C  C223  1  0.87515135  0.61609884  0.67912378  1  -0.006277  0  -0.157921  -0.202171  0  3.9467  0
C  C224  1  0.74390254  0.31433659  0.18321512  1  0.509356  0  0.051735  0.107271  0  3.955317  0
C  C225  1  0.25606655  0.81433418  0.31678892  1  0.508295  0  0.05154  0.107197  0  3.955308  0
C  C226  1  0.25607950  0.18566138  0.68321330  1  0.508812  0  0.051701  0.107276  0  3.954954  0
C  C227  1  0.74392655  0.68566205  0.81678074  1  0.508908  0  0.051623  0.10702  0  3.955259  0
C  C228  1  0.72229934  0.35033992  0.22972069  1  -0.026192  0  -0.087901  -0.194632  0  3.950013  0
C  C229  1  0.27768837  0.85034201  0.27028670  1  -0.02606  0  -0.087717  -0.194573  0  3.949745  0
C  C230  1  0.27768020  0.14965826  0.72971868  1  -0.026336  0  -0.087891  -0.194726  0  3.950044  0
C  C231  1  0.72231589  0.64965967  0.77027602  1  -0.026243  0  -0.0878  -0.194489  0  3.950134  0
C  C232  1  0.89148649  0.34623918  0.26981809  1  -0.058017  0  0.013582  0.172398  0  3.943597  0
C  C233  1  0.10850820  0.84623976  0.23018245  1  -0.058038  0  0.013509  0.172283  0  3.943333  0
C  C234  1  0.10851859  0.15376107  0.76981568  1  -0.058218  0  0.013608  0.172515  0  3.943547  0
C  C235  1  0.89149649  0.65376458  0.73017542  1  -0.058399  0  0.013487  0.172351  0  3.943349  0
C  C236  1  0.07963155  0.30595361  0.26003637  1  -0.060072  0  -0.087397  -0.194072  0  3.953221  0
C  C237  1  0.92034284  0.80595574  0.23996885  1  -0.060005  0  -0.087393  -0.194013  0  3.952786  0
C  C238  1  0.92036540  0.19404801  0.76003223  1  -0.059878  0  -0.087456  -0.194144  0  3.952791  0
C  C239  1  0.07965613  0.69405336  0.73996063  1  -0.059686  0  -0.087447  -0.194085  0  3.952918  0
C  C240  1  0.08989196  0.27197802  0.21232166  1  0.513616  0  0.04737  0.095891  0  3.983279  0
C  C241  1  0.91008803  0.77197707  0.28767941  1  0.513198  0  0.047343  0.095979  0  3.983215  0
C  C242  1  0.91009717  0.22802244  0.71231807  1  0.513191  0  0.047406  0.096012  0  3.983282  0
C  C243  1  0.08989452  0.72802517  0.78767411  1  0.513289  0  0.047338  0.095869  0  3.983619  0
N  N244  1  0.10588864  0.36239200  0.52530117  1  -1.229714  0  -0.330193  -0.250518  0  3.507744  0
N  N245  1  0.89411010  0.86238813  0.97469593  1  -1.229621  0  -0.330097  -0.250373  0  3.507875  0
N  N246  1  0.89411922  0.13761044  0.02530601  1  -1.229676  0  -0.330187  -0.250363  0  3.508084  0
N  N247  1  0.10584853  0.63761354  0.47469455  1  -1.229628  0  -0.330221  -0.250394  0  3.507887  0
N  N248  1  0.92422799  0.27565750  0.17448911  1  -1.231922  0  -0.32602  -0.239303  0  3.485676  0
N  N249  1  0.07574157  0.77565664  0.32551438  1  -1.231031  0  -0.32596  -0.239352  0  3.485724  0
N  N250  1  0.07574414  0.22434137  0.67448383  1  -1.231471  0  -0.326039  -0.239355  0  3.485556  0
N  N251  1  0.92426145  0.72434058  0.82551035  1  -1.231402  0  -0.325891  -0.239173  0  3.485575  0
O  O252  1  0.69884107  0.26419001  0.52091051  1  -1.213505  0  -0.331828  -0.590617  0  2.254118  0
O  O253  1  0.30111382  0.76417699  0.97908743  1  -1.213551  0  -0.33193  -0.590734  0  2.254385  0
O  O254  1  0.30117221  0.23580675  0.02091749  1  -1.213428  0  -0.331906  -0.590751  0  2.254273  0
O  O255  1  0.69884284  0.73581857  0.47908826  1  -1.213845  0  -0.33189  -0.590674  0  2.254259  0
O  O256  1  0.02101957  0.21178195  0.54648401  1  -1.15526  0  -0.332939  -0.554677  0  2.234631  0
O  O257  1  0.97891864  0.71178124  0.95351575  1  -1.154466  0  -0.333218  -0.555137  0  2.234548  0
O  O258  1  0.97899235  0.28821917  0.04648399  1  -1.154789  0  -0.33291  -0.554713  0  2.234534  0
O  O259  1  0.02104286  0.78821797  0.45351594  1  -1.154689  0  -0.332976  -0.554772  0  2.234481  0
O  O260  1  0.31594814  0.10204137  0.12917750  1  -1.210688  0  -0.334036  -0.586651  0  2.21977  0
O  O261  1  0.68405640  0.60204797  0.37081449  1  -1.210902  0  -0.33406  -0.586595  0  2.219969  0
O  O262  1  0.68407663  0.39794408  0.62918272  1  -1.211611  0  -0.33411  -0.586549  0  2.219603  0
O  O263  1  0.31597881  0.89796219  0.87082497  1  -1.209965  0  -0.333969  -0.586535  0  2.219757  0
O  O264  1  0.98277843  0.13411743  0.16836702  1  -1.151795  0  -0.329618  -0.553115  0  2.252244  0
O  O265  1  0.01724996  0.63410434  0.33162388  1  -1.151897  0  -0.329603  -0.553336  0  2.251977  0
O  O266  1  0.01729445  0.36588708  0.66837085  1  -1.152416  0  -0.329333  -0.552769  0  2.252444  0
O  O267  1  0.98279948  0.86588818  0.83163833  1  -1.151576  0  -0.329576  -0.552998  0  2.252521  0
O  O268  1  0.48803459  0.28898899  0.61043813  1  -1.282748  0  -0.594742  -0.766231  0  2.065025  0
O  O269  1  0.51196676  0.78899482  0.88956191  1  -1.282935  0  -0.594709  -0.766359  0  2.064899  0
O  O270  1  0.51196868  0.21100675  0.11044212  1  -1.282742  0  -0.594694  -0.766406  0  2.064909  0
O  O271  1  0.48801723  0.71101307  0.38956113  1  -1.282752  0  -0.594709  -0.766256  0  2.064966  0
