# generated using pymatgen
data_Zn2H30C34S5(NO13)2
_symmetry_space_group_name_H-M   'P 1'
_cell_length_a   10.24581165
_cell_length_b   11.18120263
_cell_length_c   10.76181512
_cell_angle_alpha   93.32709943
_cell_angle_beta   96.42613545
_cell_angle_gamma   92.78840308
_symmetry_Int_Tables_number   1
_chemical_formula_structural   Zn2H30C34S5(NO13)2
_chemical_formula_sum   'Zn2 H30 C34 S5 N2 O26'
_cell_volume   1221.17672978
_cell_formula_units_Z   1
loop_
 _symmetry_equiv_pos_site_id
 _symmetry_equiv_pos_as_xyz
  1  'x, y, z'
loop_
 _atom_site_type_symbol
 _atom_site_label
 _atom_site_symmetry_multiplicity
 _atom_site_fract_x
 _atom_site_fract_y
 _atom_site_fract_z
 _atom_site_occupancy
 _atom_site_pbe_bader_charge
 _atom_site_pbe_bader_spin_density
 _atom_site_pbe_cm5_charge
 _atom_site_pbe_ddec_charge
 _atom_site_pbe_ddec_spin_density
 _atom_site_pbe_ddec_sum_bond_order
 _atom_site_pbe_magmom
Zn  Zn0  1  0.64240976  0.50656103  0.50347339  1  1.311855  0  0.696461  0.857572  0  2.299796  0
Zn  Zn1  1  0.34215744  0.53624278  0.48680303  1  1.299762  0  0.703915  0.884914  0  2.14808  0
H  H2  1  0.31891127  0.88786426  0.48067787  1  0.153908  0  0.107732  0.110504  0  1.054732  0
H  H3  1  0.77097374  0.62468830  0.15540479  1  0.104492  0  0.118781  0.145212  0  0.964716  0
H  H4  1  0.83879439  0.38275086  0.34318440  1  0.233594  0  0.13632  0.129718  0  1.023845  0
H  H5  1  0.88770453  0.75149872  0.66211187  1  0.120454  0  0.120042  0.151279  0  0.999089  0
H  H6  1  0.88557590  0.62821406  0.75942410  1  0.171173  0  0.119713  0.141564  0  1.048805  0
H  H7  1  0.79477936  0.83855642  0.53673665  1  0.107368  0  0.101422  0.103597  0  1.073295  0
H  H8  1  0.98095777  0.95413738  0.46536640  1  0.181785  0  0.107403  0.127012  0  1.029133  0
H  H9  1  0.92958563  0.09898625  0.29733668  1  0.172345  0  0.121086  0.145274  0  0.994071  0
H  H10  1  0.30777866  0.10344452  0.44859321  1  0.111985  0  0.11573  0.123178  0  1.011269  0
H  H11  1  0.31567149  0.37473835  0.09073430  1  0.151721  0  0.116551  0.146222  0  1.00416  0
H  H12  1  0.90108278  0.79827898  0.86912313  1  0.050943  0  0.092189  0.056084  0  1.039864  0
H  H13  1  0.81612866  0.83628861  0.99749654  1  0.099719  0  0.101458  0.072486  0  1.03009  0
H  H14  1  0.81426304  0.00221373  0.85465150  1  0.071609  0  0.100363  0.147993  0  0.975098  0
H  H15  1  0.74020746  0.90471280  0.72724738  1  -0.007224  0  0.078499  0.105462  0  1.058327  0
H  H16  1  0.65090009  0.94013408  0.85624414  1  0.062869  0  0.091486  0.136224  0  1.004315  0
H  H17  1  0.71823970  0.38935577  0.94870010  1  0.072173  0  0.098979  0.065175  0  1.01374  0
H  H18  1  0.82715744  0.43981206  0.08373288  1  0.032443  0  0.09583  0.065652  0  0.994881  0
H  H19  1  0.01985932  0.38482255  0.97160430  1  0.072509  0  0.088804  0.135457  0  1.022433  0
H  H20  1  0.90287900  0.26301410  0.96959993  1  0.08676  0  0.098293  0.150935  0  0.998827  0
H  H21  1  0.91133480  0.34427492  0.83229085  1  -0.006141  0  0.084961  0.124915  0  0.998369  0
H  H22  1  0.31985246  0.28310977  0.37704989  1  0.662097  0  0.308214  0.381835  0  0.964888  0
H  H23  1  0.34943174  0.77683383  0.63451329  1  0.659205  0  0.30449  0.372881  0  0.977644  0
H  H24  1  0.97694878  0.60663773  0.93459023  1  0.659627  0  0.314612  0.361158  0  0.963942  0
H  H25  1  0.55554925  0.01489621  0.10578413  1  0.65585  0  0.317696  0.38486  0  0.929322  0
H  H26  1  0.37129448  0.14287377  0.81217939  1  0.061157  0  0.105212  0.072056  0  0.952511  0
H  H27  1  0.41965505  0.26041227  0.71898322  1  0.034881  0  0.095769  0.055076  0  1.015671  0
H  H28  1  0.18483935  0.28431839  0.63810473  1  0.071528  0  0.082745  0.125364  0  1.022432  0
H  H29  1  0.21960839  0.13000506  0.61495295  1  0.008435  0  0.084654  0.112871  0  1.038035  0
H  H30  1  0.13288396  0.17636494  0.74102896  1  0.060769  0  0.098889  0.143505  0  0.980176  0
H  H31  1  0.80202266  0.86668298  0.29093160  1  0.615797  0  0.310808  0.359034  0  0.95553  0
C  C32  1  0.49322014  0.47031606  0.71763227  1  1.542145  0  0.227627  0.622594  0  4.136708  0
C  C33  1  0.64617360  0.95504123  0.46478192  1  0.061286  0  0.005969  0.064762  0  3.934298  0
C  C34  1  0.52988197  0.88863758  0.49319414  1  0.014289  0  9.4e-05  -0.063123  0  3.863188  0
C  C35  1  0.40935664  0.93984960  0.47206384  1  -0.0287  0  -0.070318  -0.063869  0  3.917737  0
C  C36  1  0.40078624  0.06098354  0.44413880  1  -0.052255  0  -0.065872  -0.066634  0  3.914106  0
C  C37  1  0.51037593  0.12564719  0.41511644  1  0.024995  0  -0.006307  -0.079743  0  3.945373  0
C  C38  1  0.58044288  0.54448120  0.93449746  1  -0.040794  0  -0.007635  -0.043044  0  3.88728  0
C  C39  1  0.49318897  0.46472220  0.85580199  1  0.089922  0  -0.021531  -0.166883  0  3.907545  0
C  C40  1  0.40222253  0.39908838  0.92092632  1  0.566337  0  0.115537  0.265606  0  3.986763  0
C  C41  1  0.39165784  0.42573383  0.05018944  1  0.062493  0  -0.074287  -0.174723  0  3.849308  0
C  C42  1  0.47537260  0.50973845  0.12384680  1  0.046551  0  0.007696  0.001522  0  3.903207  0
C  C43  1  0.52964617  0.75978846  0.52623560  1  1.541267  0  0.242308  0.625671  0  4.040745  0
C  C44  1  0.57191381  0.56466880  0.06116067  1  -0.06815  0  -0.019178  0.029207  0  4.004164  0
C  C45  1  0.69019973  0.64976709  0.08756392  1  -0.11556  0  -0.078112  -0.332834  0  3.827913  0
C  C46  1  0.70990698  0.62168588  0.94154251  1  1.041537  0  0.184616  0.40306  0  3.848684  0
C  C47  1  0.06657454  0.58068895  0.57261920  1  0.541052  0  0.141639  0.170068  0  3.841759  0
C  C48  1  0.03986460  0.44507060  0.40787330  1  0.375329  0  0.125277  0.031298  0  3.7931  0
C  C49  1  0.90264343  0.44174415  0.41065269  1  0.457412  0  0.076447  0.06061  0  3.795083  0
C  C50  1  0.93029019  0.57855638  0.57182005  1  0.60494  0  0.14777  0.23023  0  3.899742  0
C  C51  1  0.92978113  0.66543284  0.68091563  1  -0.026863  0  -0.144748  -0.27735  0  3.850332  0
C  C52  1  0.08559433  0.66963472  0.68981402  1  -0.219793  0  -0.000447  -0.255942  0  3.688668  0
C  C53  1  0.47928482  0.52801270  0.26382459  1  1.588902  0  0.238167  0.631411  0  4.105711  0
C  C54  1  0.51947058  0.25933648  0.42747789  1  1.490288  0  0.243673  0.613864  0  4.073631  0
C  C55  1  0.77746668  0.91872950  0.48685014  1  -0.113183  0  -0.085308  -0.136774  0  3.971599  0
C  C56  1  0.88100631  0.98144957  0.44284172  1  -0.134739  0  -0.086832  -0.081651  0  3.950966  0
C  C57  1  0.85459457  0.06809265  0.35402296  1  -0.03005  0  -0.075632  -0.071726  0  3.95964  0
C  C58  1  0.72824695  0.10475431  0.33138766  1  -0.139023  0  -0.016095  -0.145066  0  3.928709  0
C  C59  1  0.62848501  0.06453818  0.40419020  1  0.056771  0  0.011088  0.063641  0  3.937909  0
C  C60  1  0.80361847  0.81722631  0.89595419  1  0.331021  0  -0.078965  0.079207  0  3.865889  0
C  C61  1  0.74836706  0.92205684  0.82921669  1  -0.030817  0  -0.249576  -0.390671  0  3.945706  0
C  C62  1  0.81657320  0.42989974  0.98080891  1  0.349897  0  -0.075851  0.095264  0  3.853673  0
C  C63  1  0.91972736  0.35231773  0.93501681  1  -0.031065  0  -0.256001  -0.406016  0  3.948807  0
C  C64  1  0.34007279  0.22566999  0.76949684  1  0.432948  0  -0.06109  0.094542  0  3.886803  0
C  C65  1  0.21153297  0.20332045  0.68541051  1  -0.074372  0  -0.249261  -0.394779  0  3.954348  0
S  S66  1  0.09203613  0.34504316  0.28501057  1  3.2979  0  0.5158  1.101215  0  6.31196  0
S  S67  1  0.14882900  0.82127665  0.66516318  1  3.151583  0  0.534712  1.149952  0  6.086929  0
S  S68  1  0.15337073  0.60180493  0.83436735  1  3.170621  0  0.546733  1.154475  0  5.983562  0
S  S69  1  0.68172606  0.16710803  0.18252351  1  3.08771  0  0.544701  1.153222  0  5.970091  0
S  S70  1  0.64680991  0.79265120  0.15103696  1  3.030353  0  0.547937  1.19033  0  5.880973  0
N  N71  1  0.12746342  0.51684793  0.48940729  1  -1.151907  0  -0.258056  -0.199013  0  3.351057  0
N  N72  1  0.84467115  0.51038773  0.49420766  1  -1.233116  0  -0.284118  -0.173187  0  3.427564  0
O  O73  1  0.60480271  0.48694204  0.67769470  1  -1.147558  0  -0.30319  -0.515776  0  2.345912  0
O  O74  1  0.38157616  0.46602010  0.64942007  1  -1.163336  0  -0.312854  -0.554416  0  2.387994  0
O  O75  1  0.63059181  0.70114166  0.52493921  1  -1.164913  0  -0.280449  -0.501876  0  2.310932  0
O  O76  1  0.41638123  0.71103091  0.55084124  1  -1.181608  0  -0.321056  -0.575166  0  2.382335  0
O  O77  1  0.59228771  0.51755877  0.32257861  1  -1.143318  0  -0.301747  -0.526508  0  2.418667  0
O  O78  1  0.37480428  0.55052776  0.31288751  1  -1.139082  0  -0.304491  -0.518186  0  2.378463  0
O  O79  1  0.62682240  0.31229118  0.46937977  1  -1.142338  0  -0.27644  -0.490047  0  2.283393  0
O  O80  1  0.41461918  0.32175587  0.40846330  1  -1.19705  0  -0.316012  -0.51374  0  2.460415  0
O  O81  1  0.71250832  0.71277389  0.86202474  1  -1.063274  0  -0.203987  -0.265199  0  2.49714  0
O  O82  1  0.82466781  0.55024639  0.93126181  1  -1.00909  0  -0.215276  -0.321927  0  2.417777  0
O  O83  1  0.97072869  0.28177662  0.23106274  1  -1.317223  0  -0.308829  -0.547022  0  2.312975  0
O  O84  1  0.15572835  0.42315423  0.20514205  1  -1.299511  0  -0.311078  -0.524754  0  2.241603  0
O  O85  1  0.18075606  0.26395092  0.35544036  1  -1.319916  0  -0.343053  -0.591459  0  2.260017  0
O  O86  1  0.11942380  0.82919524  0.53067047  1  -1.292392  0  -0.315915  -0.549394  0  2.18078  0
O  O87  1  0.09099640  0.90169823  0.74948936  1  -1.280351  0  -0.294619  -0.494844  0  2.124696  0
O  O88  1  0.29791582  0.82495983  0.70253060  1  -1.260514  0  -0.332891  -0.505217  0  2.308582  0
O  O89  1  0.12249912  0.47609582  0.80357805  1  -1.288386  0  -0.285033  -0.510279  0  2.257375  0
O  O90  1  0.28449781  0.64932506  0.87260161  1  -1.275757  0  -0.28047  -0.47678  0  2.212425  0
O  O91  1  0.06648835  0.65172618  0.93523473  1  -1.242261  0  -0.343859  -0.49841  0  2.245488  0
O  O92  1  0.65420577  0.29166363  0.19792247  1  -1.294433  0  -0.297339  -0.515736  0  2.236854  0
O  O93  1  0.77258001  0.12709376  0.09853735  1  -1.278704  0  -0.292975  -0.506035  0  2.185995  0
O  O94  1  0.54229879  0.09834367  0.14023537  1  -1.233081  0  -0.360679  -0.53624  0  2.198557  0
O  O95  1  0.31716280  0.30825824  0.87208051  1  -1.067377  0  -0.167532  -0.18308  0  2.564845  0
O  O96  1  0.58669665  0.86662881  0.05679228  1  -1.292186  0  -0.284673  -0.514959  0  2.198759  0
O  O97  1  0.57701004  0.77111461  0.25707956  1  -1.295413  0  -0.295985  -0.530201  0  2.250206  0
O  O98  1  0.79040204  0.85105485  0.19841678  1  -1.223546  0  -0.36125  -0.536541  0  2.27298  0
