# generated using pymatgen
data_ZnH18C22(NO)4
_symmetry_space_group_name_H-M   'P 1'
_cell_length_a   8.57902589
_cell_length_b   11.15903982
_cell_length_c   11.15904728
_cell_angle_alpha   107.10336034
_cell_angle_beta   93.57333660
_cell_angle_gamma   93.57365665
_symmetry_Int_Tables_number   1
_chemical_formula_structural   ZnH18C22(NO)4
_chemical_formula_sum   'Zn2 H36 C44 N8 O8'
_cell_volume   1015.41735502
_cell_formula_units_Z   2
loop_
 _symmetry_equiv_pos_site_id
 _symmetry_equiv_pos_as_xyz
  1  'x, y, z'
loop_
 _atom_site_type_symbol
 _atom_site_label
 _atom_site_symmetry_multiplicity
 _atom_site_fract_x
 _atom_site_fract_y
 _atom_site_fract_z
 _atom_site_occupancy
 _atom_site_hle17_bader_spin_density
 _atom_site_hle17_ddec_charge
 _atom_site_hle17_ddec_spin_density
 _atom_site_hle17_ddec_sum_bond_order
 _atom_site_hle17_magmom
 _atom_site_hse06_10hf_bader_spin_density
 _atom_site_hse06_10hf_ddec_charge
 _atom_site_hse06_10hf_ddec_spin_density
 _atom_site_hse06_10hf_ddec_sum_bond_order
 _atom_site_hse06_10hf_magmom
 _atom_site_hse06_bader_spin_density
 _atom_site_hse06_ddec_charge
 _atom_site_hse06_ddec_spin_density
 _atom_site_hse06_ddec_sum_bond_order
 _atom_site_hse06_magmom
 _atom_site_pbe_bader_spin_density
 _atom_site_pbe_cm5_charge
 _atom_site_pbe_ddec_charge
 _atom_site_pbe_ddec_spin_density
 _atom_site_pbe_ddec_sum_bond_order
 _atom_site_pbe_magmom
Zn  Zn0  1  0.59685761  0.91426111  0.30760845  1  0  1.00553  0  1.881241  0  0  0.814572  0  2.36216  0  0  0.860715  0  2.307196  0  0  0.699083  0.782392  0  2.399952  0
Zn  Zn1  1  0.09685959  0.30760859  0.91426166  1  0  1.00555  0  1.881225  0  0  0.814577  0  2.362121  0  0  0.860722  0  2.307159  0  0  0.699047  0.782395  0  2.399891  0
H  H2  1  0.10840394  0.94046877  0.97313525  1  0  0.113871  0  0.947343  0  0  0.126716  0  1.010443  0  0  0.12895  0  1.007998  0  0  0.118678  0.125023  0  1.012297  0
H  H3  1  0.60840120  0.97313425  0.94046753  1  0  0.1139  0  0.947329  0  0  0.12671  0  1.010471  0  0  0.128944  0  1.008028  0  0  0.118682  0.125018  0  1.012323  0
H  H4  1  0.02565899  0.78159040  0.91672933  1  0  0.084873  0  0.98235  0  0  0.097297  0  1.049304  0  0  0.097071  0  1.052147  0  0  0.108101  0.097409  0  1.047414  0
H  H5  1  0.52565921  0.91672718  0.78158899  1  0  0.084875  0  0.982352  0  0  0.097306  0  1.049298  0  0  0.097083  0  1.052137  0  0  0.108088  0.097418  0  1.047399  0
H  H6  1  0.88252485  0.26687074  0.46073282  1  0  0.099798  0  0.954637  0  0  0.109414  0  1.017987  0  0  0.112995  0  1.015269  0  0  0.102734  0.106834  0  1.019987  0
H  H7  1  0.38252748  0.46073350  0.26686998  1  0  0.099827  0  0.954574  0  0  0.109428  0  1.017954  0  0  0.113009  0  1.015235  0  0  0.102752  0.106847  0  1.019954  0
H  H8  1  0.17175563  0.02197565  0.81330053  1  0  0.098029  0  0.978486  0  0  0.105258  0  1.046461  0  0  0.108106  0  1.045846  0  0  0.09896  0.103173  0  1.047035  0
H  H9  1  0.67175141  0.81329863  0.02197423  1  0  0.098049  0  0.978432  0  0  0.105279  0  1.046409  0  0  0.108118  0  1.045806  0  0  0.09894  0.103197  0  1.046985  0
H  H10  1  0.30151664  0.00879979  0.61625284  1  0  0.097302  0  0.954484  0  0  0.105913  0  1.018072  0  0  0.10904  0  1.015944  0  0  0.101301  0.103629  0  1.019677  0
H  H11  1  0.80151315  0.61625223  0.00879967  1  0  0.097316  0  0.954488  0  0  0.105919  0  1.018079  0  0  0.109045  0  1.015953  0  0  0.101286  0.103639  0  1.019684  0
H  H12  1  0.17204952  0.61164736  0.98683015  1  0  0.128242  0  0.979715  0  0  0.135921  0  1.041918  0  0  0.139401  0  1.03968  0  0  0.121415  0.133358  0  1.043687  0
H  H13  1  0.67205510  0.98682747  0.61164547  1  0  0.128264  0  0.979637  0  0  0.135967  0  1.041817  0  0  0.139448  0  1.03958  0  0  0.12145  0.1334  0  1.043585  0
H  H14  1  0.04342184  0.46704053  0.49249895  1  0  0.097248  0  0.954344  0  0  0.108469  0  1.01449  0  0  0.111763  0  1.012855  0  0  0.100559  0.106084  0  1.01581  0
H  H15  1  0.54342133  0.49249939  0.46703985  1  0  0.097227  0  0.954362  0  0  0.108444  0  1.014518  0  0  0.111737  0  1.012883  0  0  0.100544  0.106057  0  1.015835  0
H  H16  1  0.74656809  0.65933859  0.33765213  1  0  0.108233  0  0.950504  0  0  0.115715  0  1.014897  0  0  0.118481  0  1.011818  0  0  0.137108  0.11367  0  1.017104  0
H  H17  1  0.24657263  0.33765622  0.65934069  1  0  0.108296  0  0.950387  0  0  0.11576  0  1.014799  0  0  0.118528  0  1.01172  0  0  0.137137  0.113718  0  1.01701  0
H  H18  1  0.18517640  0.82824950  0.28850644  1  0  0.119  0  0.974317  0  0  0.127211  0  1.037612  0  0  0.129117  0  1.038148  0  0  0.122801  0.12579  0  1.037405  0
H  H19  1  0.68517907  0.28850644  0.82824832  1  0  0.119021  0  0.974261  0  0  0.127233  0  1.037546  0  0  0.12914  0  1.038081  0  0  0.122821  0.125813  0  1.037332  0
H  H20  1  0.37909814  0.62280176  0.57501152  1  0  0.092277  0  0.977049  0  0  0.099954  0  1.044342  0  0  0.102815  0  1.042995  0  0  0.09986  0.09786  0  1.045419  0
H  H21  1  0.87910027  0.57501160  0.62280231  1  0  0.092306  0  0.977033  0  0  0.099975  0  1.044335  0  0  0.102836  0  1.042986  0  0  0.099863  0.097881  0  1.045407  0
H  H22  1  0.86661576  0.47817365  0.12558664  1  0  0.098812  0  0.962307  0  0  0.108453  0  1.025932  0  0  0.11209  0  1.023485  0  0  0.099603  0.105844  0  1.027774  0
H  H23  1  0.36661612  0.12558469  0.47817066  1  0  0.098853  0  0.962233  0  0  0.108484  0  1.025864  0  0  0.112121  0  1.023417  0  0  0.099603  0.105876  0  1.027707  0
H  H24  1  0.37500761  0.98865634  0.10176752  1  0  0.118162  0  0.944227  0  0  0.124464  0  1.009858  0  0  0.127492  0  1.00641  0  0  0.140852  0.122249  0  1.012242  0
H  H25  1  0.87500382  0.10176784  0.98865568  1  0  0.118154  0  0.944244  0  0  0.124447  0  1.009882  0  0  0.127475  0  1.006432  0  0  0.140864  0.122235  0  1.012272  0
H  H26  1  0.42271371  0.63799979  0.16679953  1  0  0.115399  0  0.949089  0  0  0.126072  0  1.006138  0  0  0.128983  0  1.004173  0  0  0.121359  0.123932  0  1.007671  0
H  H27  1  0.92272202  0.16679988  0.63799851  1  0  0.115484  0  0.948985  0  0  0.126146  0  1.006037  0  0  0.129056  0  1.004072  0  0  0.121376  0.124003  0  1.007576  0
H  H28  1  0.70472043  0.27681404  0.09585983  1  0  0.086259  0  0.96903  0  0  0.095931  0  1.034253  0  0  0.099149  0  1.03228  0  0  0.098162  0.093673  0  1.035587  0
H  H29  1  0.20472222  0.09586066  0.27681410  1  0  0.086258  0  0.969045  0  0  0.095943  0  1.03426  0  0  0.099161  0  1.032284  0  0  0.098156  0.093683  0  1.035599  0
H  H30  1  0.25090010  0.63492551  0.77171273  1  0  0.093895  0  0.951519  0  0  0.106079  0  1.011044  0  0  0.108838  0  1.010323  0  0  0.100377  0.104099  0  1.011659  0
H  H31  1  0.75090428  0.77171220  0.63492605  1  0  0.093895  0  0.951531  0  0  0.106081  0  1.011056  0  0  0.108841  0  1.010335  0  0  0.100379  0.104103  0  1.011669  0
H  H32  1  0.95036168  0.98672002  0.27384795  1  0  0.111761  0  0.954217  0  0  0.122239  0  1.010969  0  0  0.124678  0  1.009877  0  0  0.121653  0.120433  0  1.011887  0
H  H33  1  0.45036385  0.27384964  0.98671871  1  0  0.111771  0  0.95422  0  0  0.122228  0  1.010999  0  0  0.124667  0  1.009905  0  0  0.12164  0.120421  0  1.01191  0
H  H34  1  0.13727923  0.63220805  0.42137929  1  0  0.083792  0  0.943705  0  0  0.096164  0  1.009327  0  0  0.096424  0  1.009992  0  0  0.109753  0.095931  0  1.008915  0
H  H35  1  0.63728065  0.42137931  0.63220570  1  0  0.083773  0  0.943703  0  0  0.096163  0  1.009328  0  0  0.096422  0  1.009992  0  0  0.10975  0.095927  0  1.008916  0
H  H36  1  0.15573070  0.58499055  0.25708479  1  0  0.098524  0  0.917723  0  0  0.110999  0  0.983557  0  0  0.112062  0  0.982829  0  0  0.118268  0.110158  0  0.984242  0
H  H37  1  0.65573223  0.25708442  0.58498840  1  0  0.098547  0  0.917641  0  0  0.110997  0  0.983524  0  0  0.112059  0  0.982796  0  0  0.11826  0.110159  0  0.9842  0
C  C38  1  0.20378333  0.83019490  0.80598706  1  0  0.087692  0  3.730353  0  0  0.107901  0  3.968155  0  0  0.109009  0  3.991776  0  0  -0.006697  0.107305  0  3.952025  0
C  C39  1  0.70378268  0.80598499  0.83019379  1  0  0.08762  0  3.730405  0  0  0.107821  0  3.968225  0  0  0.10893  0  3.991846  0  0  -0.006721  0.107229  0  3.952095  0
C  C40  1  0.13406111  0.84289392  0.92964013  1  0  -0.06692  0  3.634276  0  0  -0.133327  0  3.87622  0  0  -0.129753  0  3.886237  0  0  -0.053055  -0.135642  0  3.869489  0
C  C41  1  0.63406148  0.92963924  0.84289228  1  0  -0.06697  0  3.634341  0  0  -0.133349  0  3.876258  0  0  -0.129771  0  3.886264  0  0  -0.053051  -0.135672  0  3.869536  0
C  C42  1  0.87778260  0.31377273  0.38791219  1  0  -0.059465  0  3.732896  0  0  -0.08544  0  3.984037  0  0  -0.085036  0  4.004486  0  0  -0.084538  -0.085494  0  3.970114  0
C  C43  1  0.37778347  0.38791275  0.31377300  1  0  -0.059473  0  3.732847  0  0  -0.085451  0  3.984004  0  0  -0.085047  0  4.004453  0  0  -0.084547  -0.085498  0  3.970071  0
C  C44  1  0.34967348  0.81513218  0.58396887  1  0  -0.083016  0  3.778207  0  0  -0.061244  0  4.012676  0  0  -0.069751  0  4.035478  0  0  -0.025888  -0.055785  0  3.997342  0
C  C45  1  0.84967343  0.58396825  0.81513239  1  0  -0.083004  0  3.778205  0  0  -0.061236  0  4.012681  0  0  -0.069741  0  4.035483  0  0  -0.025873  -0.055781  0  3.997352  0
C  C46  1  0.21553656  0.93408734  0.75996653  1  0  -0.121338  0  3.731341  0  0  -0.139303  0  3.973702  0  0  -0.143694  0  3.99518  0  0  -0.092238  -0.136352  0  3.959112  0
C  C47  1  0.71553389  0.75996469  0.93408652  1  0  -0.121286  0  3.73133  0  0  -0.139254  0  3.973684  0  0  -0.143639  0  3.995166  0  0  -0.092189  -0.136304  0  3.959104  0
C  C48  1  0.28774877  0.92677380  0.64984133  1  0  -0.066806  0  3.746323  0  0  -0.08977  0  3.994293  0  0  -0.088238  0  4.012993  0  0  -0.087245  -0.090529  0  3.981507  0
C  C49  1  0.78774688  0.64984059  0.92677372  1  0  -0.066906  0  3.746507  0  0  -0.089857  0  3.994478  0  0  -0.088325  0  4.013177  0  0  -0.087268  -0.090621  0  3.981703  0
C  C50  1  0.25410273  0.69189496  0.03529639  1  0  -0.068639  0  3.659079  0  0  -0.109222  0  3.919072  0  0  -0.107971  0  3.937477  0  0  0.000841  -0.110007  0  3.906768  0
C  C51  1  0.75410919  0.03529698  0.69189449  1  0  -0.068497  0  3.659117  0  0  -0.109093  0  3.919089  0  0  -0.107842  0  3.937494  0  0  0.000892  -0.109875  0  3.906779  0
C  C52  1  0.96739636  0.42725151  0.40581609  1  0  -0.124058  0  3.75379  0  0  -0.142647  0  4.002317  0  0  -0.146631  0  4.02402  0  0  -0.091791  -0.139959  0  3.987569  0
C  C53  1  0.46739796  0.40581633  0.42725308  1  0  -0.12406  0  3.753905  0  0  -0.142666  0  4.002411  0  0  -0.146651  0  4.024114  0  0  -0.091799  -0.139974  0  3.987654  0
C  C54  1  0.83315582  0.72650141  0.32134120  1  0  0.15551  0  3.657146  0  0  0.095655  0  3.914559  0  0  0.109257  0  3.927269  0  0  0.142534  0.086913  0  3.905653  0
C  C55  1  0.33315962  0.32134446  0.72650293  1  0  0.155486  0  3.657159  0  0  0.095646  0  3.914556  0  0  0.109248  0  3.927265  0  0  0.142532  0.086889  0  3.905666  0
C  C56  1  0.78350111  0.25915650  0.27578667  1  0  -0.06466  0  3.766559  0  0  -0.041382  0  3.995694  0  0  -0.049761  0  4.020603  0  0  -0.019851  -0.035962  0  3.978939  0
C  C57  1  0.28350152  0.27578715  0.25915711  1  0  -0.064682  0  3.766601  0  0  -0.041403  0  3.995737  0  0  -0.049784  0  4.02065  0  0  -0.019849  -0.035989  0  3.978991  0
C  C58  1  0.96360248  0.48773397  0.31248416  1  0  0.072322  0  3.76214  0  0  0.090481  0  4.001968  0  0  0.090841  0  4.026111  0  0  -0.011131  0.090345  0  3.985524  0
C  C59  1  0.46360355  0.31248470  0.48773261  1  0  0.072228  0  3.762213  0  0  0.090475  0  4.001925  0  0  0.090834  0  4.026066  0  0  -0.011157  0.090335  0  3.985481  0
C  C60  1  0.05998531  0.81774286  0.29531428  1  0  -0.061718  0  3.673082  0  0  -0.103983  0  3.932058  0  0  -0.102888  0  3.952759  0  0  0.000218  -0.104696  0  3.918214  0
C  C61  1  0.55998722  0.29531520  0.81774260  1  0  -0.061738  0  3.673068  0  0  -0.103994  0  3.932023  0  0  -0.102898  0  3.952724  0  0  0.000209  -0.104704  0  3.918171  0
C  C62  1  0.33224790  0.70956502  0.62750189  1  0  -0.075137  0  3.765784  0  0  -0.094785  0  4.011998  0  0  -0.094157  0  4.031821  0  0  -0.087093  -0.094976  0  3.998554  0
C  C63  1  0.83224869  0.62750096  0.70956624  1  0  -0.075185  0  3.765758  0  0  -0.094823  0  4.011982  0  0  -0.094195  0  4.031806  0  0  -0.087103  -0.09501  0  3.998535  0
C  C64  1  0.86707177  0.43388256  0.20070465  1  0  -0.116977  0  3.744564  0  0  -0.136782  0  3.994559  0  0  -0.140044  0  4.015243  0  0  -0.093194  -0.134634  0  3.980598  0
C  C65  1  0.36707141  0.20070401  0.43388074  1  0  -0.117002  0  3.744502  0  0  -0.136811  0  3.994451  0  0  -0.140073  0  4.015137  0  0  -0.093183  -0.134657  0  3.980489  0
C  C66  1  0.35522620  0.89028762  0.09644665  1  0  0.166355  0  3.629228  0  0  0.103766  0  3.895724  0  0  0.118097  0  3.906685  0  0  0.148131  0.094526  0  3.888095  0
C  C67  1  0.85522524  0.09644574  0.89028780  1  0  0.166403  0  3.629123  0  0  0.103806  0  3.895637  0  0  0.118139  0  3.9066  0  0  0.148148  0.094554  0  3.888023  0
C  C68  1  0.37703792  0.70594127  0.12462966  1  0  -0.005802  0  3.749301  0  0  -0.040674  0  4.016906  0  0  -0.039011  0  4.036207  0  0  -0.003161  -0.041786  0  4.003913  0
C  C69  1  0.87704005  0.12462498  0.70594301  1  0  -0.00599  0  3.749436  0  0  -0.040863  0  4.017045  0  0  -0.039202  0  4.036352  0  0  -0.003223  -0.041973  0  4.004044  0
C  C70  1  0.44240974  0.80950039  0.47276501  1  0  0.619782  0  3.952194  0  0  0.570106  0  4.250978  0  0  0.60384  0  4.243973  0  0  0.193654  0.547284  0  4.254937  0
C  C71  1  0.94240923  0.47276568  0.80950637  1  0  0.619923  0  3.952026  0  0  0.570235  0  4.250821  0  0  0.603971  0  4.243812  0  0  0.193714  0.547422  0  4.254769  0
C  C72  1  0.69436272  0.13312947  0.25027348  1  0  0.634477  0  3.936864  0  0  0.587739  0  4.22736  0  0  0.621492  0  4.220465  0  0  0.198838  0.564877  0  4.231265  0
C  C73  1  0.19436271  0.25027573  0.13313087  1  0  0.634617  0  3.936668  0  0  0.587879  0  4.22716  0  0  0.621633  0  4.220264  0  0  0.198923  0.565015  0  4.231069  0
C  C74  1  0.77807255  0.32085974  0.18291968  1  0  -0.070701  0  3.762356  0  0  -0.092722  0  4.008579  0  0  -0.093509  0  4.030582  0  0  -0.087785  -0.092013  0  3.993684  0
C  C75  1  0.27807307  0.18291903  0.32085889  1  0  -0.070661  0  3.762416  0  0  -0.0927  0  4.008631  0  0  -0.093485  0  4.030635  0  0  -0.087767  -0.091995  0  3.993749  0
C  C76  1  0.26030782  0.71703124  0.73753711  1  0  -0.118126  0  3.735111  0  0  -0.139555  0  3.98361  0  0  -0.143364  0  4.004766  0  0  -0.092465  -0.137042  0  3.969232  0
C  C77  1  0.76030898  0.73753675  0.71703103  1  0  -0.118073  0  3.735136  0  0  -0.139508  0  3.983637  0  0  -0.143318  0  4.004794  0  0  -0.092441  -0.137  0  3.969262  0
C  C78  1  0.94345962  0.89487708  0.28868048  1  0  0.001078  0  3.748681  0  0  -0.029733  0  4.006417  0  0  -0.028155  0  4.02671  0  0  -0.002043  -0.030822  0  3.992808  0
C  C79  1  0.44346232  0.28868246  0.89487713  1  0  0.001077  0  3.748776  0  0  -0.029731  0  4.00652  0  0  -0.028152  0  4.026812  0  0  -0.002072  -0.030823  0  3.992904  0
C  C80  1  0.07080407  0.60409879  0.32881601  1  0  -0.037786  0  3.633048  0  0  -0.103348  0  3.880385  0  0  -0.098724  0  3.890194  0  0  -0.043869  -0.106396  0  3.873761  0
C  C81  1  0.57080499  0.32881542  0.60409661  1  0  -0.037728  0  3.632955  0  0  -0.103339  0  3.880331  0  0  -0.098712  0  3.890134  0  0  -0.04387  -0.106388  0  3.873701  0
N  N82  1  0.98834496  0.71159822  0.31525735  1  0  -0.050057  0  3.55198  0  0  0.046329  0  3.765433  0  0  0.031768  0  3.791152  0  0  -0.234116  0.055957  0  3.747898  0
N  N83  1  0.48834726  0.31525975  0.71159801  1  0  -0.050055  0  3.552017  0  0  0.046344  0  3.76547  0  0  0.031782  0  3.791187  0  0  -0.23412  0.055972  0  3.747937  0
N  N84  1  0.24193579  0.80943116  0.01938499  1  0  -0.046706  0  3.570358  0  0  0.048873  0  3.787111  0  0  0.034069  0  3.813756  0  0  -0.236593  0.058667  0  3.768938  0
N  N85  1  0.74193603  0.01938304  0.80942937  1  0  -0.04675  0  3.570378  0  0  0.048819  0  3.787155  0  0  0.034013  0  3.813802  0  0  -0.236659  0.05861  0  3.768985  0
N  N86  1  0.43879626  0.83026394  0.16229479  1  0  -0.400403  0  3.348683  0  0  -0.31754  0  3.654026  0  0  -0.337552  0  3.664667  0  0  -0.364094  -0.304016  0  3.646605  0
N  N87  1  0.93879915  0.16229479  0.83026456  1  0  -0.400451  0  3.348611  0  0  -0.317556  0  3.653927  0  0  -0.337573  0  3.664573  0  0  -0.364106  -0.304031  0  3.646501  0
N  N88  1  0.80259095  0.83676382  0.30478538  1  0  -0.386665  0  3.328  0  0  -0.305195  0  3.627812  0  0  -0.324998  0  3.639466  0  0  -0.362466  -0.291783  0  3.61965  0
N  N89  1  0.30259543  0.30478965  0.83676501  1  0  -0.386721  0  3.328128  0  0  -0.305233  0  3.627927  0  0  -0.325038  0  3.639581  0  0  -0.362437  -0.291814  0  3.619758  0
O  O90  1  0.47983097  0.70642911  0.40450703  1  0  -0.617319  0  1.905707  0  0  -0.571021  0  2.130853  0  0  -0.593706  0  2.122679  0  0  -0.323523  -0.555196  0  2.135932  0
O  O91  1  0.97983249  0.40450580  0.70642967  1  0  -0.617522  0  1.905476  0  0  -0.571223  0  2.130635  0  0  -0.593908  0  2.122455  0  0  -0.323653  -0.555401  0  2.135711  0
O  O92  1  0.48130337  0.91861711  0.45775923  1  0  -0.659436  0  2.062324  0  0  -0.584729  0  2.335818  0  0  -0.612803  0  2.319938  0  0  -0.336812  -0.56503  0  2.346062  0
O  O93  1  0.98130063  0.45775959  0.91861758  1  0  -0.659382  0  2.062491  0  0  -0.584661  0  2.335979  0  0  -0.612736  0  2.320097  0  0  -0.336755  -0.564969  0  2.34622  0
O  O94  1  0.68397710  0.09088011  0.34638120  1  0  -0.649223  0  2.04687  0  0  -0.571969  0  2.314876  0  0  -0.60071  0  2.300909  0  0  -0.334707  -0.551886  0  2.323794  0
O  O95  1  0.18397860  0.34638347  0.09088068  1  0  -0.649243  0  2.046819  0  0  -0.571969  0  2.314806  0  0  -0.60071  0  2.30084  0  0  -0.334709  -0.551885  0  2.323724  0
O  O96  1  0.63922174  0.07446347  0.14031681  1  0  -0.637252  0  1.931192  0  0  -0.593299  0  2.161214  0  0  -0.616068  0  2.152324  0  0  -0.330467  -0.577377  0  2.16681  0
O  O97  1  0.13921841  0.14031798  0.07446445  1  0  -0.637359  0  1.93105  0  0  -0.593412  0  2.161078  0  0  -0.61618  0  2.152185  0  0  -0.330525  -0.577489  0  2.166673  0
