# generated using pymatgen
data_AlH9C14S2NO5
_symmetry_space_group_name_H-M   'P 1'
_cell_length_a   6.67250947
_cell_length_b   13.89761905
_cell_length_c   15.95400000
_cell_angle_alpha   90.00000000
_cell_angle_beta   90.00000000
_cell_angle_gamma   91.71639528
_symmetry_Int_Tables_number   1
_chemical_formula_structural   AlH9C14S2NO5
_chemical_formula_sum   'Al4 H36 C56 S8 N4 O20'
_cell_volume   1478.78245962
_cell_formula_units_Z   4
loop_
 _symmetry_equiv_pos_site_id
 _symmetry_equiv_pos_as_xyz
  1  'x, y, z'
loop_
 _atom_site_type_symbol
 _atom_site_label
 _atom_site_symmetry_multiplicity
 _atom_site_fract_x
 _atom_site_fract_y
 _atom_site_fract_z
 _atom_site_occupancy
 _atom_site_hle17_bader_spin_density
 _atom_site_hle17_ddec_charge
 _atom_site_hle17_ddec_spin_density
 _atom_site_hle17_ddec_sum_bond_order
 _atom_site_hle17_magmom
 _atom_site_hse06_10hf_bader_spin_density
 _atom_site_hse06_10hf_ddec_charge
 _atom_site_hse06_10hf_ddec_spin_density
 _atom_site_hse06_10hf_ddec_sum_bond_order
 _atom_site_hse06_10hf_magmom
 _atom_site_hse06_bader_spin_density
 _atom_site_hse06_ddec_charge
 _atom_site_hse06_ddec_spin_density
 _atom_site_hse06_ddec_sum_bond_order
 _atom_site_hse06_magmom
 _atom_site_pbe_bader_charge
 _atom_site_pbe_bader_spin_density
 _atom_site_pbe_cm5_charge
 _atom_site_pbe_ddec_charge
 _atom_site_pbe_ddec_spin_density
 _atom_site_pbe_ddec_sum_bond_order
 _atom_site_pbe_magmom
Al  Al0  1  0.00010554  0.99999758  0.99998182  1  0  1.811883  0  2.22746  0  0  1.676426  0  2.55573  0  0  1.711034  0  2.507869  0  2.502837  0  0.384288  1.651456  0  2.589678  0
Al  Al1  1  0.50009854  0.49999915  0.50000564  1  0  1.811975  0  2.22758  0  0  1.676622  0  2.555522  0  0  1.711252  0  2.507606  0  2.502839  0  0.384273  1.651629  0  2.589501  0
Al  Al2  1  0.50009326  0.99998030  0.99999060  1  0  1.809031  0  2.200531  0  0  1.671982  0  2.528935  0  0  1.707318  0  2.480565  0  2.504503  0  0.395092  1.646438  0  2.563283  0
Al  Al3  1  0.00006956  0.49997971  0.49998997  1  0  1.809233  0  2.200313  0  0  1.672265  0  2.52848  0  0  1.707614  0  2.480074  0  2.504578  0  0.395182  1.646712  0  2.562854  0
H  H4  1  0.76226670  0.12727890  0.98562241  1  0  0.452135  0  0.815899  0  0  0.419743  0  0.889125  0  0  0.429241  0  0.874891  0  0.623563  0  0.332095  0.412988  0  0.899251  0
H  H5  1  0.73784531  0.37267058  0.48569450  1  0  0.451946  0  0.816118  0  0  0.419687  0  0.889204  0  0  0.429204  0  0.874949  0  0.621777  0  0.332085  0.412919  0  0.899333  0
H  H6  1  0.23789159  0.87267405  0.01432180  1  0  0.451881  0  0.816139  0  0  0.419616  0  0.889307  0  0  0.429114  0  0.875074  0  0.621844  0  0.331975  0.412855  0  0.899425  0
H  H7  1  0.26224050  0.62727373  0.51438072  1  0  0.452031  0  0.81617  0  0  0.419613  0  0.889363  0  0  0.42911  0  0.875129  0  0.623654  0  0.332029  0.412859  0  0.899483  0
H  H8  1  0.43377355  0.66449968  0.29627868  1  0  0.107004  0  0.944666  0  0  0.117228  0  1.004195  0  0  0.120854  0  1.001639  0  0.085486  0  0.108594  0.114552  0  1.006262  0
H  H9  1  0.06646473  0.83549273  0.79628557  1  0  0.106924  0  0.944863  0  0  0.117255  0  1.004305  0  0  0.120883  0  1.001759  0  0.085455  0  0.108646  0.114582  0  1.006364  0
H  H10  1  0.56644795  0.33552957  0.70371443  1  0  0.106886  0  0.945178  0  0  0.117211  0  1.004598  0  0  0.120851  0  1.002025  0  0.083883  0  0.108584  0.114536  0  1.006662  0
H  H11  1  0.93377583  0.16448182  0.20371255  1  0  0.106915  0  0.944721  0  0  0.117227  0  1.004144  0  0  0.12086  0  1.001573  0  0.084701  0  0.108588  0.114551  0  1.006212  0
H  H12  1  0.42667246  0.78076672  0.17480820  1  0  0.108193  0  0.941276  0  0  0.115539  0  1.005864  0  0  0.119531  0  1.003057  0  0.096091  0  0.106521  0.112593  0  1.008065  0
H  H13  1  0.07356455  0.71922929  0.67482262  1  0  0.108526  0  0.941144  0  0  0.115853  0  1.005691  0  0  0.11976  0  1.002984  0  0.094776  0  0.106566  0.112911  0  1.007888  0
H  H14  1  0.57355612  0.21925606  0.82516673  1  0  0.108348  0  0.941524  0  0  0.115697  0  1.00602  0  0  0.119604  0  1.003312  0  0.095827  0  0.106487  0.112758  0  1.008219  0
H  H15  1  0.92666591  0.28077549  0.32516736  1  0  0.108058  0  0.941313  0  0  0.115468  0  1.00586  0  0  0.11947  0  1.003045  0  0.09612  0  0.106516  0.112524  0  1.00806  0
H  H16  1  0.06756982  0.71629870  0.32171556  1  0  0.089463  0  0.982489  0  0  0.092332  0  1.0575  0  0  0.095947  0  1.055032  0  0.101017  0  0.097579  0.08969  0  1.059391  0
H  H17  1  0.43258386  0.78375490  0.82165100  1  0  0.089225  0  0.982154  0  0  0.09207  0  1.057275  0  0  0.095684  0  1.054808  0  0.100674  0  0.097527  0.089431  0  1.059171  0
H  H18  1  0.93258816  0.28376943  0.67833396  1  0  0.089206  0  0.982184  0  0  0.092085  0  1.05727  0  0  0.095701  0  1.054806  0  0.101441  0  0.097451  0.089443  0  1.059176  0
H  H19  1  0.56761288  0.21628587  0.17828382  1  0  0.089406  0  0.982429  0  0  0.092201  0  1.057523  0  0  0.095815  0  1.055059  0  0.100974  0  0.097589  0.089567  0  1.059426  0
H  H20  1  0.06062404  0.83445468  0.20184844  1  0  0.107611  0  0.938778  0  0  0.117499  0  0.997891  0  0  0.121328  0  0.995047  0  0.096987  0  0.108138  0.114676  0  1.000154  0
H  H21  1  0.43958623  0.66559317  0.70178952  1  0  0.107671  0  0.938543  0  0  0.117509  0  0.997737  0  0  0.121326  0  0.994879  0  0.098288  0  0.108182  0.114692  0  0.999993  0
H  H22  1  0.93963274  0.16558754  0.79817851  1  0  0.107765  0  0.938905  0  0  0.117628  0  0.997982  0  0  0.121447  0  0.995137  0  0.099133  0  0.108199  0.11481  0  1.000239  0
H  H23  1  0.56063299  0.33444761  0.29814655  1  0  0.107546  0  0.938915  0  0  0.117473  0  0.997974  0  0  0.12129  0  0.995133  0  0.097326  0  0.108095  0.114653  0  1.00023  0
H  H24  1  0.08062346  0.03882335  0.54536480  1  0  0.076935  0  1.013077  0  0  0.082319  0  1.087711  0  0  0.085331  0  1.086094  0  0.090028  0  0.085143  0.080201  0  1.08892  0
H  H25  1  0.41906295  0.46129602  0.04522628  1  0  0.076181  0  1.013359  0  0  0.082216  0  1.087481  0  0  0.085195  0  1.085906  0  0.09074  0  0.084933  0.080043  0  1.088746  0
H  H26  1  0.91897321  0.96135204  0.45477310  1  0  0.076225  0  1.013663  0  0  0.082318  0  1.087701  0  0  0.085304  0  1.086116  0  0.091272  0  0.084874  0.080158  0  1.088952  0
H  H27  1  0.58095853  0.53874619  0.95461452  1  0  0.076489  0  1.01328  0  0  0.082124  0  1.087841  0  0  0.085148  0  1.086212  0  0.092381  0  0.084935  0.079986  0  1.089054  0
H  H28  1  0.09499925  0.94500666  0.67800489  1  0  0.086105  0  0.961686  0  0  0.09767  0  1.023686  0  0  0.099869  0  1.023276  0  0.059641  0  0.097158  0.096148  0  1.023952  0
H  H29  1  0.40459026  0.55501239  0.17793406  1  0  0.086254  0  0.960865  0  0  0.097747  0  1.02295  0  0  0.09995  0  1.022534  0  0.060843  0  0.097118  0.096223  0  1.023221  0
H  H30  1  0.90433160  0.05503987  0.32205842  1  0  0.086028  0  0.961457  0  0  0.097642  0  1.02333  0  0  0.099846  0  1.022911  0  0.0489  0  0.097094  0.096121  0  1.023605  0
H  H31  1  0.59530403  0.44500895  0.82193682  1  0  0.086335  0  0.961253  0  0  0.098021  0  1.023095  0  0  0.100226  0  1.022671  0  0.060481  0  0.097161  0.096502  0  1.023361  0
H  H32  1  0.40883373  0.94515927  0.76231353  1  0  0.10026  0  0.954686  0  0  0.111861  0  1.013664  0  0  0.114253  0  1.012886  0  0.069793  0  0.104894  0.110165  0  1.014286  0
H  H33  1  0.09061319  0.55471220  0.26218064  1  0  0.100682  0  0.954535  0  0  0.112066  0  1.013707  0  0  0.114537  0  1.01279  0  0.0706  0  0.104941  0.110313  0  1.014407  0
H  H34  1  0.59035400  0.05465906  0.23784004  1  0  0.100664  0  0.95524  0  0  0.112092  0  1.014314  0  0  0.114582  0  1.013397  0  0.069861  0  0.104959  0.110343  0  1.015008  0
H  H35  1  0.90924579  0.44527170  0.73766140  1  0  0.100762  0  0.95476  0  0  0.112028  0  1.014085  0  0  0.11451  0  1.013156  0  0.069358  0  0.104925  0.110279  0  1.014779  0
H  H36  1  0.71612054  0.03132877  0.71184342  1  0  0.103669  0  0.938789  0  0  0.119319  0  0.991411  0  0  0.122002  0  0.990566  0  0.076484  0  0.105677  0.117485  0  0.99201  0
H  H37  1  0.78334278  0.46852856  0.21164410  1  0  0.103087  0  0.938879  0  0  0.118949  0  0.991355  0  0  0.121561  0  0.990571  0  0.074013  0  0.105485  0.117109  0  0.991975  0
H  H38  1  0.28313639  0.96844565  0.28838849  1  0  0.102707  0  0.939239  0  0  0.118578  0  0.991704  0  0  0.121187  0  0.990953  0  0.072633  0  0.105408  0.116784  0  0.992257  0
H  H39  1  0.21652865  0.53143878  0.78820045  1  0  0.103159  0  0.939228  0  0  0.119097  0  0.99166  0  0  0.121658  0  0.99094  0  0.073247  0  0.105469  0.117254  0  0.992284  0
C  C40  1  0.75266634  0.61579323  0.38680268  1  0  0.706206  0  3.820661  0  0  0.647566  0  4.118484  0  0  0.682969  0  4.106475  0  1.577565  0  0.260447  0.623413  0  4.126263  0
C  C41  1  0.74748015  0.88419198  0.88679015  1  0  0.706023  0  3.819792  0  0  0.647205  0  4.117789  0  0  0.682599  0  4.105787  0  1.57748  0  0.260459  0.623064  0  4.125562  0
C  C42  1  0.24745581  0.38420507  0.61319356  1  0  0.705667  0  3.820653  0  0  0.646929  0  4.118524  0  0  0.682331  0  4.10653  0  1.576348  0  0.260246  0.622778  0  4.126295  0
C  C43  1  0.25268193  0.11579768  0.11318729  1  0  0.705981  0  3.820616  0  0  0.647432  0  4.118325  0  0  0.682838  0  4.106314  0  1.577078  0  0.260485  0.623276  0  4.12611  0
C  C44  1  0.75086023  0.68449625  0.31526451  1  0  -0.06197  0  3.746489  0  0  -0.042347  0  3.983549  0  0  -0.049264  0  4.005611  0  -0.071691  0  -0.014241  -0.037871  0  3.968868  0
C  C45  1  0.74930931  0.81552208  0.81523317  1  0  -0.061908  0  3.746824  0  0  -0.04222  0  3.983861  0  0  -0.049125  0  4.005911  0  -0.070137  0  -0.014095  -0.037754  0  3.96919  0
C  C46  1  0.24931134  0.31554956  0.68475367  1  0  -0.061748  0  3.746786  0  0  -0.041905  0  3.983563  0  0  -0.048824  0  4.005636  0  -0.069159  0  -0.01403  -0.037436  0  3.968878  0
C  C47  1  0.25087619  0.18448270  0.18473549  1  0  -0.062087  0  3.74686  0  0  -0.042488  0  3.983897  0  0  -0.049408  0  4.005959  0  -0.071632  0  -0.014294  -0.03801  0  3.96922  0
C  C48  1  0.56941563  0.70219931  0.27446785  1  0  -0.071983  0  3.728532  0  0  -0.097419  0  3.982688  0  0  -0.098113  0  4.00242  0  0.004392  0  -0.082152  -0.096949  0  3.969547  0
C  C49  1  0.93078130  0.79782549  0.77447161  1  0  -0.07146  0  3.728097  0  0  -0.096962  0  3.982233  0  0  -0.097661  0  4.00192  0  0.002252  0  -0.082169  -0.096488  0  3.969096  0
C  C50  1  0.43078228  0.29786018  0.72552589  1  0  -0.071498  0  3.728315  0  0  -0.09704  0  3.982407  0  0  -0.097734  0  4.002098  0  0.002762  0  -0.081995  -0.096565  0  3.969265  0
C  C51  1  0.06941024  0.20218000  0.22551774  1  0  -0.071612  0  3.728454  0  0  -0.097104  0  3.982621  0  0  -0.097795  0  4.002344  0  0.004444  0  -0.082034  -0.096635  0  3.969478  0
C  C52  1  0.74167804  0.88511774  0.11296227  1  0  0.708786  0  3.820348  0  0  0.648906  0  4.12046  0  0  0.684532  0  4.108068  0  1.565238  0  0.262549  0.624608  0  4.128502  0
C  C53  1  0.75856912  0.61489555  0.61296791  1  0  0.709518  0  3.819587  0  0  0.649717  0  4.119446  0  0  0.685334  0  4.107064  0  1.567191  0  0.263299  0.625432  0  4.127477  0
C  C54  1  0.25859343  0.11489568  0.88701768  1  0  0.709896  0  3.819396  0  0  0.650091  0  4.119363  0  0  0.685743  0  4.106967  0  1.568392  0  0.263418  0.625801  0  4.127405  0
C  C55  1  0.24167096  0.38511931  0.38701141  1  0  0.708414  0  3.820952  0  0  0.648623  0  4.12116  0  0  0.684252  0  4.108759  0  1.564649  0  0.26243  0.624316  0  4.129211  0
C  C56  1  0.74314365  0.81477629  0.18304688  1  0  -0.068691  0  3.7722  0  0  -0.050119  0  4.010995  0  0  -0.056632  0  4.032548  0  -0.042292  0  -0.015162  -0.045924  0  3.996663  0
C  C57  1  0.75709101  0.68525284  0.68303372  1  0  -0.068056  0  3.771454  0  0  -0.049377  0  4.009905  0  0  -0.05587  0  4.031411  0  -0.043758  0  -0.015072  -0.045182  0  3.995564  0
C  C58  1  0.25710813  0.18525800  0.81695437  1  0  -0.067805  0  3.770611  0  0  -0.049279  0  4.009316  0  0  -0.055875  0  4.03095  0  -0.043136  0  -0.014823  -0.045056  0  3.994941  0
C  C59  1  0.24315601  0.31477714  0.31692742  1  0  -0.068136  0  3.771825  0  0  -0.049817  0  4.010969  0  0  -0.056345  0  4.032546  0  -0.043206  0  -0.015135  -0.045626  0  3.996645  0
C  C60  1  0.56542209  0.76685306  0.20816598  1  0  -0.067358  0  3.727981  0  0  -0.093493  0  3.98369  0  0  -0.094235  0  4.003017  0  -0.008489  0  -0.081656  -0.092961  0  3.970842  0
C  C61  1  0.93480408  0.73316023  0.70816723  1  0  -0.068425  0  3.726599  0  0  -0.094621  0  3.982366  0  0  -0.095301  0  4.001715  0  -0.008565  0  -0.081827  -0.094086  0  3.969515  0
C  C62  1  0.43481193  0.23318484  0.79182650  1  0  -0.068375  0  3.726507  0  0  -0.09452  0  3.982355  0  0  -0.095167  0  4.001721  0  -0.009548  0  -0.081995  -0.094  0  3.969494  0
C  C63  1  0.06543078  0.26684311  0.29181522  1  0  -0.067647  0  3.727651  0  0  -0.093771  0  3.983496  0  0  -0.09452  0  4.002823  0  -0.00799  0  -0.081677  -0.093235  0  3.970647  0
C  C64  1  0.92874981  0.73126913  0.28902031  1  0  -0.075213  0  3.75882  0  0  -0.100458  0  4.01566  0  0  -0.101432  0  4.036237  0  -0.030098  0  -0.085761  -0.099793  0  4.001917  0
C  C65  1  0.57144541  0.76877655  0.78894948  1  0  -0.074737  0  3.758126  0  0  -0.10005  0  4.015055  0  0  -0.101021  0  4.035626  0  -0.029339  0  -0.08582  -0.099401  0  4.001324  0
C  C66  1  0.07144565  0.26877524  0.71102921  1  0  -0.074635  0  3.75815  0  0  -0.099993  0  4.014947  0  0  -0.100967  0  4.035529  0  -0.030442  0  -0.085619  -0.099348  0  4.001231  0
C  C67  1  0.42876608  0.23126062  0.21097593  1  0  -0.074925  0  3.759058  0  0  -0.100091  0  4.015899  0  0  -0.101055  0  4.03646  0  -0.030013  0  -0.085641  -0.099448  0  4.00218  0
C  C68  1  0.92488074  0.79652469  0.22325498  1  0  -0.063108  0  3.718578  0  0  -0.088234  0  3.971579  0  0  -0.088791  0  3.99057  0  -0.058326  0  -0.082211  -0.087869  0  3.958943  0
C  C69  1  0.57532625  0.70351739  0.72320547  1  0  -0.063519  0  3.718496  0  0  -0.088644  0  3.971424  0  0  -0.089185  0  3.990402  0  -0.057654  0  -0.082217  -0.088274  0  3.958787  0
C  C70  1  0.07534905  0.20351752  0.77677322  1  0  -0.063781  0  3.719178  0  0  -0.088851  0  3.972126  0  0  -0.089369  0  3.991138  0  -0.058511  0  -0.082399  -0.088489  0  3.959476  0
C  C71  1  0.42489561  0.29651762  0.27673687  1  0  -0.063196  0  3.719181  0  0  -0.088265  0  3.972231  0  0  -0.088797  0  3.991208  0  -0.057931  0  -0.082146  -0.087901  0  3.9596  0
C  C72  1  0.57059370  0.08658389  0.60087439  1  0  -0.027518  0  3.811042  0  0  -0.012491  0  4.067683  0  0  -0.011621  0  4.091568  0  -0.195375  0  -0.011128  -0.013145  0  4.051568  0
C  C73  1  0.92905249  0.41336991  0.10066880  1  0  -0.027973  0  3.812109  0  0  -0.013566  0  4.069232  0  0  -0.012684  0  4.093066  0  -0.192644  0  -0.011951  -0.014196  0  4.053123  0
C  C74  1  0.42895632  0.91334818  0.39936254  1  0  -0.028467  0  3.812626  0  0  -0.014057  0  4.06948  0  0  -0.013167  0  4.093315  0  -0.1884  0  -0.012111  -0.014699  0  4.053352  0
C  C75  1  0.07092672  0.58659528  0.89917952  1  0  -0.028758  0  3.811801  0  0  -0.014183  0  4.068963  0  0  -0.013303  0  4.092802  0  -0.194094  0  -0.0122  -0.014824  0  4.052762  0
C  C76  1  0.38966802  0.08894218  0.55420271  1  0  -0.02451  0  3.809487  0  0  -0.008242  0  4.064073  0  0  -0.007332  0  4.087509  0  -0.199885  0  -0.011934  -0.008959  0  4.048377  0
C  C77  1  0.10999710  0.41110016  0.05404287  1  0  -0.025327  0  3.810744  0  0  -0.008406  0  4.06493  0  0  -0.007508  0  4.088356  0  -0.206011  0  -0.011408  -0.009087  0  4.049223  0
C  C78  1  0.60988809  0.91111155  0.44597092  1  0  -0.025137  0  3.810756  0  0  -0.007944  0  4.064546  0  0  -0.007068  0  4.087991  0  -0.213735  0  -0.011125  -0.008617  0  4.04878  0
C  C79  1  0.88998222  0.58889094  0.94581923  1  0  -0.024353  0  3.810183  0  0  -0.00771  0  4.064637  0  0  -0.00682  0  4.088103  0  -0.203095  0  -0.011424  -0.008407  0  4.048839  0
C  C80  1  0.21961471  0.03608568  0.58090071  1  0  -0.126209  0  3.790931  0  0  -0.151109  0  4.05234  0  0  -0.154375  0  4.073257  0  -0.006675  0  -0.109789  -0.148891  0  4.038362  0
C  C81  1  0.28000266  0.46398402  0.08073649  1  0  -0.125666  0  3.790639  0  0  -0.151237  0  4.051596  0  0  -0.154465  0  4.072567  0  -0.01181  0  -0.109839  -0.148988  0  4.037648  0
C  C82  1  0.77988010  0.96401844  0.41925912  1  0  -0.125733  0  3.790741  0  0  -0.151514  0  4.051789  0  0  -0.154733  0  4.072747  0  -0.011436  0  -0.109851  -0.149291  0  4.037816  0
C  C83  1  0.71994126  0.53604020  0.91907923  1  0  -0.125812  0  3.790646  0  0  -0.151067  0  4.052055  0  0  -0.154339  0  4.072979  0  -0.013322  0  -0.109516  -0.148852  0  4.038076  0
C  C84  1  0.22842678  0.98456427  0.65605177  1  0  -0.056839  0  3.759829  0  0  -0.075827  0  4.021224  0  0  -0.076649  0  4.042147  0  -0.072462  0  -0.096896  -0.075058  0  4.006679  0
C  C85  1  0.27117208  0.51546053  0.15592516  1  0  -0.056259  0  3.75791  0  0  -0.075159  0  4.019419  0  0  -0.075985  0  4.04036  0  -0.071932  0  -0.096611  -0.074387  0  4.004871  0
C  C86  1  0.77097388  0.01547218  0.34407860  1  0  -0.055747  0  3.759256  0  0  -0.0747  0  4.020734  0  0  -0.075532  0  4.041681  0  -0.058286  0  -0.096334  -0.073935  0  4.006176  0
C  C87  1  0.72871894  0.48455648  0.84390623  1  0  -0.056844  0  3.759153  0  0  -0.075918  0  4.020432  0  0  -0.076761  0  4.041409  0  -0.070975  0  -0.096879  -0.075154  0  4.005862  0
C  C88  1  0.40485655  0.98393799  0.70308136  1  0  -0.055058  0  3.751623  0  0  -0.076082  0  4.016919  0  0  -0.077008  0  4.038125  0  0.076146  0  -0.092548  -0.075199  0  4.002108  0
C  C89  1  0.09464839  0.51597452  0.20292591  1  0  -0.056519  0  3.751346  0  0  -0.077424  0  4.016791  0  0  -0.078379  0  4.037931  0  0.079333  0  -0.092928  -0.0765  0  4.002017  0
C  C90  1  0.59445393  0.01595018  0.29709352  1  0  -0.056723  0  3.752189  0  0  -0.077757  0  4.017698  0  0  -0.078743  0  4.038873  0  0.081067  0  -0.093096  -0.076834  0  4.002911  0
C  C91  1  0.90522945  0.48399930  0.79691551  1  0  -0.055887  0  3.751569  0  0  -0.076642  0  4.017025  0  0  -0.077612  0  4.038169  0  0.076742  0  -0.092646  -0.075722  0  4.002217  0
C  C92  1  0.57868264  0.03261230  0.67503949  1  0  -0.113272  0  3.755437  0  0  -0.138786  0  4.01629  0  0  -0.14172  0  4.037311  0  -0.046572  0  -0.098481  -0.136675  0  4.001772  0
C  C93  1  0.92086158  0.46729255  0.17486398  1  0  -0.111654  0  3.754533  0  0  -0.137135  0  4.01547  0  0  -0.139987  0  4.036546  0  -0.046263  0  -0.097875  -0.135031  0  4.000922  0
C  C94  1  0.42068855  0.96723986  0.32516109  1  0  -0.111026  0  3.753843  0  0  -0.13646  0  4.014831  0  0  -0.139345  0  4.035919  0  -0.044879  0  -0.097806  -0.134388  0  4.000266  0
C  C95  1  0.07904850  0.53266976  0.82498182  1  0  -0.112214  0  3.754361  0  0  -0.137864  0  4.01539  0  0  -0.140689  0  4.036488  0  -0.043697  0  -0.09811  -0.135762  0  4.000809  0
S  S96  1  0.75940955  0.15828229  0.55592767  1  0  0.248369  0  2.730442  0  0  0.252797  0  3.078694  0  0  0.255882  0  3.085814  0  0.633268  0  0.222911  0.251152  0  3.073616  0
S  S97  1  0.74027905  0.34167871  0.05566128  1  0  0.248544  0  2.729034  0  0  0.253019  0  3.077662  0  0  0.256144  0  3.084747  0  0.634855  0  0.223001  0.251369  0  3.072661  0
S  S98  1  0.24019220  0.84163827  0.44439326  1  0  0.248727  0  2.729167  0  0  0.253144  0  3.077804  0  0  0.256228  0  3.084901  0  0.635899  0  0.223093  0.251501  0  3.072726  0
S  S99  1  0.25974588  0.65829872  0.94418140  1  0  0.249267  0  2.729424  0  0  0.253751  0  3.077969  0  0  0.256778  0  3.085108  0  0.634989  0  0.223424  0.252111  0  3.072791  0
S  S100  1  0.40764935  0.16240643  0.46649931  1  0  0.263439  0  2.715364  0  0  0.260696  0  3.063222  0  0  0.262914  0  3.075212  0  0.645888  0  0.220106  0.259491  0  3.054885  0
S  S101  1  0.09211179  0.33768559  0.96630688  1  0  0.264233  0  2.716139  0  0  0.26134  0  3.063881  0  0  0.263628  0  3.075859  0  0.652229  0  0.220294  0.260111  0  3.055631  0
S  S102  1  0.59209719  0.83769697  0.53372132  1  0  0.264032  0  2.715856  0  0  0.261086  0  3.063482  0  0  0.263325  0  3.075486  0  0.65288  0  0.220097  0.259863  0  3.05514  0
S  S103  1  0.90790445  0.66232063  0.03355710  1  0  0.263996  0  2.715407  0  0  0.261151  0  3.063174  0  0  0.263316  0  3.075199  0  0.651261  0  0.220191  0.259944  0  3.054741  0
N  N104  1  0.63992821  0.20563106  0.47617087  1  0  -0.427296  0  2.749672  0  0  -0.398727  0  3.073976  0  0  -0.412808  0  3.085234  0  -1.104642  0  -0.330061  -0.388766  0  3.065808  0
N  N105  1  0.85988676  0.29440984  0.97589758  1  0  -0.427383  0  2.749304  0  0  -0.398804  0  3.073467  0  0  -0.412786  0  3.084683  0  -1.108274  0  -0.329996  -0.388814  0  3.065408  0
N  N106  1  0.35988613  0.79440611  0.52414065  1  0  -0.427226  0  2.749973  0  0  -0.398707  0  3.074247  0  0  -0.412772  0  3.085502  0  -1.110084  0  -0.330004  -0.388773  0  3.066109  0
N  N107  1  0.14016772  0.70558486  0.02394133  1  0  -0.427942  0  2.749805  0  0  -0.399346  0  3.074128  0  0  -0.413493  0  3.085372  0  -1.107728  0  -0.330327  -0.389449  0  3.065898  0
O  O108  1  0.75323751  0.05893941  0.99918328  1  0  -1.072373  0  1.953792  0  0  -1.00745  0  2.184215  0  0  -1.024435  0  2.15102  0  -1.43336  0  -0.454294  -0.995078  0  2.207232  0
O  O109  1  0.74691763  0.44102878  0.49918265  1  0  -1.072222  0  1.953958  0  0  -1.007474  0  2.18407  0  0  -1.024547  0  2.150925  0  -1.431634  0  -0.454358  -0.99508  0  2.207158  0
O  O110  1  0.24693031  0.94102217  0.00078977  1  0  -1.072028  0  1.95384  0  0  -1.007313  0  2.183993  0  0  -1.024326  0  2.150846  0  -1.43173  0  -0.454198  -0.994933  0  2.207058  0
O  O111  1  0.25321921  0.55894072  0.50079290  1  0  -1.072271  0  1.95379  0  0  -1.007314  0  2.184055  0  0  -1.024317  0  2.15088  0  -1.433417  0  -0.454176  -0.994938  0  2.20708  0
O  O112  1  0.91188682  0.91137430  0.08371819  1  0  -0.668766  0  2.150354  0  0  -0.60798  0  2.394497  0  0  -0.631213  0  2.381839  0  -1.26214  0  -0.23185  -0.591958  0  2.402985  0
O  O113  1  0.58832097  0.58863251  0.58373699  1  0  -0.669426  0  2.148787  0  0  -0.608734  0  2.393038  0  0  -0.631929  0  2.38029  0  -1.261882  0  -0.232307  -0.592722  0  2.40158  0
O  O114  1  0.08836158  0.08862976  0.91624922  1  0  -0.669479  0  2.149287  0  0  -0.608757  0  2.393607  0  0  -0.631969  0  2.380898  0  -1.262272  0  -0.232241  -0.592725  0  2.402093  0
O  O115  1  0.41188677  0.41139243  0.41624922  1  0  -0.668871  0  2.150429  0  0  -0.608123  0  2.394535  0  0  -0.631384  0  2.381952  0  -1.261258  0  -0.231984  -0.592071  0  2.403011  0
O  O116  1  0.92253128  0.59264795  0.41587439  1  0  -0.663778  0  2.099271  0  0  -0.604014  0  2.34085  0  0  -0.626912  0  2.327626  0  -1.260854  0  -0.236528  -0.588157  0  2.349677  0
O  O117  1  0.57760487  0.90731567  0.91587627  1  0  -0.663804  0  2.098483  0  0  -0.603832  0  2.340065  0  0  -0.626728  0  2.326845  0  -1.261005  0  -0.236446  -0.587984  0  2.348896  0
O  O118  1  0.07758048  0.40732804  0.58411308  1  0  -0.663687  0  2.099099  0  0  -0.60383  0  2.340673  0  0  -0.626726  0  2.327456  0  -1.260676  0  -0.236306  -0.587978  0  2.349505  0
O  O119  1  0.42255595  0.09265384  0.08411182  1  0  -0.6636  0  2.099154  0  0  -0.603858  0  2.340672  0  0  -0.626763  0  2.327458  0  -1.26068  0  -0.236527  -0.588005  0  2.349506  0
O  O120  1  0.57227751  0.91311279  0.08742635  1  0  -0.661928  0  2.108471  0  0  -0.600696  0  2.34791  0  0  -0.624133  0  2.335101  0  -1.256838  0  -0.233031  -0.584497  0  2.356458  0
O  O121  1  0.92792162  0.58687531  0.58741946  1  0  -0.662356  0  2.109157  0  0  -0.601095  0  2.34851  0  0  -0.624504  0  2.33566  0  -1.258329  0  -0.23344  -0.584937  0  2.357098  0
O  O122  1  0.42794384  0.08686608  0.91255610  1  0  -0.662641  0  2.108936  0  0  -0.601479  0  2.348433  0  0  -0.62489  0  2.33557  0  -1.258493  0  -0.233725  -0.585328  0  2.35703  0
O  O123  1  0.07228483  0.41310500  0.41255610  1  0  -0.661801  0  2.108844  0  0  -0.600733  0  2.348399  0  0  -0.624169  0  2.335592  0  -1.25645  0  -0.2331  -0.584535  0  2.356958  0
O  O124  1  0.58186128  0.58641675  0.41319168  1  0  -0.662916  0  2.142996  0  0  -0.604322  0  2.385237  0  0  -0.627328  0  2.372704  0  -1.255622  0  -0.233755  -0.588423  0  2.393633  0
O  O125  1  0.91827007  0.91359006  0.91317225  1  0  -0.662738  0  2.142727  0  0  -0.604175  0  2.385201  0  0  -0.627161  0  2.372653  0  -1.254946  0  -0.233841  -0.588297  0  2.393596  0
O  O126  1  0.41826463  0.41359379  0.58680394  1  0  -0.662754  0  2.142708  0  0  -0.604324  0  2.385208  0  0  -0.627311  0  2.372647  0  -1.255029  0  -0.233922  -0.588429  0  2.39361  0
O  O127  1  0.08188006  0.08640032  0.08680707  1  0  -0.66284  0  2.14277  0  0  -0.604293  0  2.384988  0  0  -0.627301  0  2.372457  0  -1.255585  0  -0.233831  -0.588395  0  2.393384  0
