# generated using pymatgen
data_ZnH5C5O6
_symmetry_space_group_name_H-M   'P 1'
_cell_length_a   7.03131739
_cell_length_b   7.38784101
_cell_length_c   8.32083082
_cell_angle_alpha   90.28923557
_cell_angle_beta   110.68580209
_cell_angle_gamma   94.94643334
_symmetry_Int_Tables_number   1
_chemical_formula_structural   ZnH5C5O6
_chemical_formula_sum   'Zn2 H10 C10 O12'
_cell_volume   402.57202623
_cell_formula_units_Z   2
loop_
 _symmetry_equiv_pos_site_id
 _symmetry_equiv_pos_as_xyz
  1  'x, y, z'
loop_
 _atom_site_type_symbol
 _atom_site_label
 _atom_site_symmetry_multiplicity
 _atom_site_fract_x
 _atom_site_fract_y
 _atom_site_fract_z
 _atom_site_occupancy
 _atom_site_hle17_bader_spin_density
 _atom_site_hle17_ddec_charge
 _atom_site_hle17_ddec_spin_density
 _atom_site_hle17_ddec_sum_bond_order
 _atom_site_hle17_magmom
 _atom_site_hse06_10hf_bader_spin_density
 _atom_site_hse06_10hf_ddec_charge
 _atom_site_hse06_10hf_ddec_spin_density
 _atom_site_hse06_10hf_ddec_sum_bond_order
 _atom_site_hse06_10hf_magmom
 _atom_site_hse06_bader_spin_density
 _atom_site_hse06_ddec_charge
 _atom_site_hse06_ddec_spin_density
 _atom_site_hse06_ddec_sum_bond_order
 _atom_site_hse06_magmom
 _atom_site_pbe_bader_spin_density
 _atom_site_pbe_cm5_charge
 _atom_site_pbe_ddec_charge
 _atom_site_pbe_ddec_spin_density
 _atom_site_pbe_ddec_sum_bond_order
 _atom_site_pbe_magmom
Zn  Zn0  1  0.49999805  0.00000043  0.49999867  1  0  1.170745  0  1.70646  0  0  1.01353  0  2.150807  0  0  1.060962  0  2.090976  0  0  0.669589  0.98026  0  2.191921  0
Zn  Zn1  1  0.00000002  0.50000002  0.49999917  1  0  1.196125  0  1.742253  0  0  1.034296  0  2.202055  0  0  1.080769  0  2.142602  0  0  0.67612  1.00147  0  2.242805  0
H  H2  1  0.42142376  0.81039092  0.05332702  1  0  0.123742  0  0.92623  0  0  0.133022  0  0.984201  0  0  0.13708  0  0.981648  0  0  0.11466  0.130111  0  0.986094  0
H  H3  1  0.57857847  0.18960951  0.94667508  1  0  0.12374  0  0.926253  0  0  0.133017  0  0.984226  0  0  0.137077  0  0.981671  0  0  0.114645  0.130105  0  0.98612  0
H  H4  1  0.17783287  0.64941252  0.28538923  1  0  0.433465  0  0.862149  0  0  0.401229  0  0.927344  0  0  0.411897  0  0.911921  0  0  0.294548  0.393692  0  0.93823  0
H  H5  1  0.82217071  0.35058657  0.71460965  1  0  0.433482  0  0.862124  0  0  0.401246  0  0.92732  0  0  0.411912  0  0.911899  0  0  0.294561  0.393708  0  0.938207  0
H  H6  1  0.03475417  0.47627533  0.19306178  1  0  0.420753  0  0.818053  0  0  0.405753  0  0.870435  0  0  0.413284  0  0.862285  0  0  0.323069  0.400407  0  0.876261  0
H  H7  1  0.96525071  0.52372106  0.80693868  1  0  0.420798  0  0.817997  0  0  0.405768  0  0.870428  0  0  0.413297  0  0.862281  0  0  0.323072  0.400418  0  0.876259  0
H  H8  1  0.16777156  0.13727205  0.43341318  1  0  0.423447  0  0.873528  0  0  0.393235  0  0.938132  0  0  0.403881  0  0.922545  0  0  0.295038  0.385664  0  0.949215  0
H  H9  1  0.83222771  0.86272969  0.56658566  1  0  0.423441  0  0.87352  0  0  0.393224  0  0.938149  0  0  0.403872  0  0.922559  0  0  0.295041  0.385654  0  0.94923  0
H  H10  1  0.14316523  0.92607275  0.47794955  1  0  0.41416  0  0.88159  0  0  0.384538  0  0.950224  0  0  0.395595  0  0.934117  0  0  0.293857  0.376682  0  0.961642  0
H  H11  1  0.85683102  0.07392896  0.52204961  1  0  0.414126  0  0.881631  0  0  0.384507  0  0.950267  0  0  0.395564  0  0.934161  0  0  0.293848  0.376651  0  0.961686  0
C  C12  1  0.45369955  0.67326083  0.02845761  1  0  -0.079063  0  3.6815  0  0  -0.112559  0  3.931664  0  0  -0.112095  0  3.94802  0  0  -0.075199  -0.11287  0  3.920864  0
C  C13  1  0.54630111  0.32673957  0.97154043  1  0  -0.079044  0  3.68145  0  0  -0.112528  0  3.931598  0  0  -0.112066  0  3.947956  0  0  -0.075148  -0.11284  0  3.920795  0
C  C14  1  0.42165255  0.61347664  0.86075834  1  0  -0.052767  0  3.719484  0  0  -0.041091  0  3.962107  0  0  -0.043961  0  3.980233  0  0  -0.007139  -0.039455  0  3.950223  0
C  C15  1  0.57834662  0.38652374  0.13924167  1  0  -0.052812  0  3.719388  0  0  -0.041123  0  3.962036  0  0  -0.043995  0  3.980165  0  0  -0.007159  -0.039487  0  3.950154  0
C  C16  1  0.46775628  0.43755769  0.83169180  1  0  -0.065158  0  3.720281  0  0  -0.054395  0  3.962938  0  0  -0.058541  0  3.981558  0  0  -0.008961  -0.051818  0  3.950627  0
C  C17  1  0.53224604  0.56244410  0.16830793  1  0  -0.065156  0  3.720294  0  0  -0.054426  0  3.962932  0  0  -0.058569  0  3.98155  0  0  -0.008947  -0.051852  0  3.950626  0
C  C18  1  0.42817582  0.35154707  0.65795463  1  0  0.691245  0  3.837268  0  0  0.633604  0  4.136923  0  0  0.668712  0  4.127464  0  0  0.228823  0.609732  0  4.142689  0
C  C19  1  0.57182489  0.64845334  0.34204703  1  0  0.691085  0  3.837484  0  0  0.633554  0  4.136987  0  0  0.668657  0  4.127537  0  0  0.228806  0.609682  0  4.142753  0
C  C20  1  0.35720190  0.74948771  0.72210235  1  0  0.68601  0  3.854427  0  0  0.629171  0  4.156524  0  0  0.66384  0  4.148002  0  0  0.227148  0.605537  0  4.161627  0
C  C21  1  0.64279575  0.25051266  0.27789842  1  0  0.686089  0  3.854411  0  0  0.629181  0  4.156611  0  0  0.663851  0  4.148089  0  0  0.227166  0.605549  0  4.161711  0
O  O22  1  0.49245611  0.87414023  0.72474069  1  0  -0.5975  0  2.00949  0  0  -0.540822  0  2.259635  0  0  -0.568184  0  2.247174  0  0  -0.298548  -0.521707  0  2.26753  0
O  O23  1  0.50754030  0.12586284  0.27526213  1  0  -0.597541  0  2.009493  0  0  -0.540826  0  2.259662  0  0  -0.568187  0  2.247195  0  0  -0.298543  -0.521712  0  2.267557  0
O  O24  1  0.17252891  0.73728923  0.61471235  1  0  -0.67181  0  2.09972  0  0  -0.5945  0  2.350306  0  0  -0.624035  0  2.336353  0  0  -0.312692  -0.57384  0  2.359264  0
O  O25  1  0.82746851  0.26270842  0.38528834  1  0  -0.671827  0  2.099756  0  0  -0.594487  0  2.350357  0  0  -0.624023  0  2.336405  0  0  -0.312716  -0.573829  0  2.359313  0
O  O26  1  0.56669187  0.26105857  0.64130731  1  0  -0.645946  0  2.077606  0  0  -0.575255  0  2.323335  0  0  -0.60308  0  2.310965  0  0  -0.299224  -0.556002  0  2.331364  0
O  O27  1  0.43330871  0.73894048  0.35869431  1  0  -0.645865  0  2.077697  0  0  -0.575216  0  2.323384  0  0  -0.603045  0  2.311022  0  0  -0.299207  -0.555963  0  2.331411  0
O  O28  1  0.25568521  0.35938664  0.53788562  1  0  -0.658634  0  2.100815  0  0  -0.589262  0  2.360281  0  0  -0.617243  0  2.345638  0  0  -0.308351  -0.56972  0  2.369657  0
O  O29  1  0.74431536  0.64061241  0.46211479  1  0  -0.658544  0  2.100875  0  0  -0.589204  0  2.360284  0  0  -0.617183  0  2.345643  0  0  -0.308319  -0.569661  0  2.369655  0
O  O30  1  0.03845509  0.58596725  0.25981307  1  0  -0.807057  0  1.865965  0  0  -0.758818  0  2.053993  0  0  -0.778876  0  2.026786  0  0  -0.564947  -0.744659  0  2.072803  0
O  O31  1  0.96154685  0.41403046  0.74018533  1  0  -0.807123  0  1.865928  0  0  -0.758854  0  2.053985  0  0  -0.778911  0  2.026782  0  0  -0.564965  -0.744696  0  2.072798  0
O  O32  1  0.18379851  0.01180149  0.40165788  1  0  -0.798314  0  1.897683  0  0  -0.737773  0  2.088322  0  0  -0.759147  0  2.053255  0  0  -0.574958  -0.722621  0  2.112672  0
O  O33  1  0.81619925  0.98820024  0.59834172  1  0  -0.798288  0  1.897663  0  0  -0.737737  0  2.088298  0  0  -0.759111  0  2.053231  0  0  -0.574968  -0.722588  0  2.112648  0
