# generated using pymatgen
data_H8PbC7SO8
_symmetry_space_group_name_H-M   'P 1'
_cell_length_a   7.41594020
_cell_length_b   8.68103612
_cell_length_c   9.95084429
_cell_angle_alpha   72.96111197
_cell_angle_beta   77.81374344
_cell_angle_gamma   79.27118979
_symmetry_Int_Tables_number   1
_chemical_formula_structural   H8PbC7SO8
_chemical_formula_sum   'H16 Pb2 C14 S2 O16'
_cell_volume   593.37544869
_cell_formula_units_Z   2
loop_
 _symmetry_equiv_pos_site_id
 _symmetry_equiv_pos_as_xyz
  1  'x, y, z'
loop_
 _atom_site_type_symbol
 _atom_site_label
 _atom_site_symmetry_multiplicity
 _atom_site_fract_x
 _atom_site_fract_y
 _atom_site_fract_z
 _atom_site_occupancy
 _atom_site_hle17_bader_spin_density
 _atom_site_hle17_ddec_charge
 _atom_site_hle17_ddec_spin_density
 _atom_site_hle17_ddec_sum_bond_order
 _atom_site_hle17_magmom
 _atom_site_hse06_10hf_bader_spin_density
 _atom_site_hse06_10hf_ddec_charge
 _atom_site_hse06_10hf_ddec_spin_density
 _atom_site_hse06_10hf_ddec_sum_bond_order
 _atom_site_hse06_10hf_magmom
 _atom_site_hse06_bader_spin_density
 _atom_site_hse06_ddec_charge
 _atom_site_hse06_ddec_spin_density
 _atom_site_hse06_ddec_sum_bond_order
 _atom_site_hse06_magmom
 _atom_site_pbe_bader_spin_density
 _atom_site_pbe_cm5_charge
 _atom_site_pbe_ddec_charge
 _atom_site_pbe_ddec_spin_density
 _atom_site_pbe_ddec_sum_bond_order
 _atom_site_pbe_magmom
H  H0  1  0.61282436  0.65302150  0.10595964  1  0  0.416472  0  0.87253  0  0  0.388116  0  0.939171  0  0  0.398088  0  0.924294  0  0  0.298794  0.381029  0  0.949735  0
H  H1  1  0.38719689  0.34695898  0.89405635  1  0  0.416363  0  0.872468  0  0  0.388009  0  0.939284  0  0  0.39798  0  0.924409  0  0  0.298659  0.380921  0  0.949849  0
H  H2  1  0.49027202  0.51362615  0.19438066  1  0  0.449074  0  0.838345  0  0  0.420659  0  0.895318  0  0  0.430522  0  0.881044  0  0  0.297625  0.41367  0  0.905413  0
H  H3  1  0.50973345  0.48636633  0.80563270  1  0  0.449022  0  0.838407  0  0  0.420599  0  0.895396  0  0  0.430462  0  0.881121  0  0  0.297585  0.413611  0  0.905487  0
H  H4  1  0.00776900  0.67246714  0.95763537  1  0  0.427262  0  0.867637  0  0  0.394482  0  0.935234  0  0  0.40484  0  0.919997  0  0  0.29836  0.387102  0  0.946078  0
H  H5  1  0.99222365  0.32752621  0.04237193  1  0  0.42725  0  0.867648  0  0  0.394453  0  0.935283  0  0  0.404811  0  0.920046  0  0  0.298329  0.387071  0  0.94613  0
H  H6  1  0.07875648  0.55219751  0.09919771  1  0  0.433995  0  0.865912  0  0  0.401897  0  0.929641  0  0  0.412794  0  0.913772  0  0  0.2945  0.394197  0  0.94082  0
H  H7  1  0.92123253  0.44780055  0.90080488  1  0  0.434021  0  0.865903  0  0  0.401965  0  0.929561  0  0  0.412865  0  0.913688  0  0  0.294547  0.394266  0  0.940739  0
H  H8  1  0.48478336  0.21899012  0.73685802  1  0  0.413499  0  0.84907  0  0  0.390352  0  0.913828  0  0  0.400951  0  0.901983  0  0  0.317904  0.383028  0  0.921863  0
H  H9  1  0.51521131  0.78099821  0.26314531  1  0  0.413432  0  0.849199  0  0  0.390291  0  0.913954  0  0  0.400891  0  0.902109  0  0  0.317875  0.382966  0  0.921988  0
H  H10  1  0.55054561  0.28727073  0.48969708  1  0  0.120802  0  0.920707  0  0  0.13543  0  0.969453  0  0  0.139071  0  0.968116  0  0  0.113432  0.132809  0  0.970519  0
H  H11  1  0.44945520  0.71272254  0.51030480  1  0  0.120836  0  0.920668  0  0  0.13546  0  0.969415  0  0  0.139105  0  0.968079  0  0  0.113451  0.132838  0  0.970478  0
H  H12  1  0.74709476  0.20643906  0.28084368  1  0  0.100632  0  0.949395  0  0  0.108241  0  1.015675  0  0  0.112024  0  1.011718  0  0  0.10598  0.105567  0  1.01846  0
H  H13  1  0.25290460  0.79358106  0.71915393  1  0  0.10062  0  0.949335  0  0  0.10819  0  1.015658  0  0  0.111979  0  1.011684  0  0  0.105943  0.10552  0  1.018441  0
H  H14  1  0.91320467  0.73602810  0.55041426  1  0  0.12542  0  0.925319  0  0  0.133514  0  0.984495  0  0  0.137762  0  0.980652  0  0  0.115817  0.130495  0  0.987184  0
H  H15  1  0.08679785  0.26396826  0.44956936  1  0  0.125378  0  0.925388  0  0  0.133477  0  0.984572  0  0  0.137725  0  0.980726  0  0  0.115771  0.130459  0  0.987262  0
Pb  Pb16  1  0.25325314  0.86658543  0.03753718  1  0  1.419676  0  1.351885  0  0  1.243399  0  1.74406  0  0  1.301821  0  1.69731  0  0  0.668018  1.200225  0  1.777732  0
Pb  Pb17  1  0.74674227  0.13340794  0.96246963  1  0  1.41962  0  1.351822  0  0  1.243307  0  1.743995  0  0  1.301753  0  1.69723  0  0  0.667999  1.200143  0  1.77764  0
C  C18  1  0.71782198  0.89961068  0.65456658  1  0  -0.253  0  3.703105  0  0  -0.227692  0  3.95707  0  0  -0.241414  0  3.978323  0  0  -0.032801  -0.218582  0  3.942699  0
C  C19  1  0.28216749  0.10039064  0.34542295  1  0  -0.2528  0  3.702729  0  0  -0.227522  0  3.956769  0  0  -0.241284  0  3.978072  0  0  -0.032711  -0.218415  0  3.9424  0
C  C20  1  0.61476746  0.05619449  0.63786853  1  0  0.364838  0  3.801674  0  0  0.345159  0  4.067177  0  0  0.361284  0  4.08196  0  0  0.099668  0.333871  0  4.056886  0
C  C21  1  0.38523063  0.94381579  0.36212904  1  0  0.364844  0  3.801356  0  0  0.345143  0  4.066911  0  0  0.361285  0  4.081694  0  0  0.099636  0.333856  0  4.056621  0
C  C22  1  0.62844157  0.16567551  0.50205150  1  0  -0.188092  0  3.713725  0  0  -0.20743  0  3.973628  0  0  -0.216401  0  3.992488  0  0  -0.09593  -0.20129  0  3.960654  0
C  C23  1  0.37156015  0.83432155  0.49795318  1  0  -0.188155  0  3.713139  0  0  -0.207474  0  3.973035  0  0  -0.216452  0  3.991893  0  0  -0.095974  -0.201333  0  3.960059  0
C  C24  1  0.73818495  0.11996505  0.38544896  1  0  -0.004455  0  3.706426  0  0  -0.037303  0  3.970134  0  0  -0.030546  0  3.98578  0  0  -0.071984  -0.041587  0  3.959251  0
C  C25  1  0.26179881  0.88005735  0.61454872  1  0  -0.004521  0  3.706719  0  0  -0.037318  0  3.970411  0  0  -0.030567  0  3.986074  0  0  -0.072006  -0.041601  0  3.959527  0
C  C26  1  0.83954729  0.96380148  0.40142288  1  0  -0.092212  0  3.771773  0  0  -0.073373  0  4.020145  0  0  -0.085628  0  4.043841  0  0  -0.02908  -0.06538  0  4.004212  0
C  C27  1  0.16045421  0.03620672  0.59858474  1  0  -0.092353  0  3.772165  0  0  -0.073521  0  4.020523  0  0  -0.085768  0  4.044204  0  0  -0.029094  -0.06553  0  4.004596  0
C  C28  1  0.82977898  0.85512671  0.53683227  1  0  -0.027126  0  3.715467  0  0  -0.067224  0  3.970763  0  0  -0.060989  0  3.988313  0  0  -0.070214  -0.070854  0  3.958392  0
C  C29  1  0.17021242  0.14488087  0.46316019  1  0  -0.027078  0  3.715062  0  0  -0.067177  0  3.970385  0  0  -0.060933  0  3.987944  0  0  -0.070222  -0.070803  0  3.958009  0
C  C30  1  0.96521638  0.91684603  0.27835250  1  0  0.647771  0  3.904573  0  0  0.595608  0  4.195982  0  0  0.631481  0  4.190272  0  0  0.210512  0.570479  0  4.199916  0
C  C31  1  0.03475920  0.08315798  0.72164875  1  0  0.647938  0  3.904785  0  0  0.595777  0  4.196192  0  0  0.631648  0  4.190482  0  0  0.210495  0.57065  0  4.200125  0
S  S32  1  0.70668140  0.75113877  0.82114035  1  0  1.337988  0  5.593961  0  0  1.233052  0  6.11272  0  0  1.282602  0  6.089278  0  0  0.526419  1.198918  0  6.12753  0
S  S33  1  0.29331325  0.24886363  0.17884295  1  0  1.337908  0  5.593846  0  0  1.232957  0  6.11261  0  0  1.282516  0  6.089177  0  0  0.52632  1.198824  0  6.127421  0
O  O34  1  0.54688618  0.66495487  0.83593619  1  0  -0.704324  0  1.977422  0  0  -0.648119  0  2.224263  0  0  -0.672201  0  2.210145  0  0  -0.331505  -0.631049  0  2.233226  0
O  O35  1  0.45310980  0.33504189  0.16406153  1  0  -0.704336  0  1.977508  0  0  -0.648101  0  2.224292  0  0  -0.672182  0  2.210175  0  0  -0.331452  -0.631031  0  2.233255  0
O  O36  1  0.51938653  0.62165301  0.19137635  1  0  -0.848077  0  1.80446  0  0  -0.78686  0  1.956445  0  0  -0.807939  0  1.926684  0  0  -0.570174  -0.772117  0  1.977297  0
O  O37  1  0.48064921  0.37832552  0.80864973  1  0  -0.847912  0  1.804411  0  0  -0.78668  0  1.956554  0  0  -0.807762  0  1.926797  0  0  -0.569995  -0.77194  0  1.977405  0
O  O38  1  0.88802946  0.64604913  0.81401128  1  0  -0.66858  0  1.974805  0  0  -0.602599  0  2.204043  0  0  -0.624548  0  2.18749  0  0  -0.324733  -0.587167  0  2.215022  0
O  O39  1  0.11196469  0.35394147  0.18598647  1  0  -0.668536  0  1.974915  0  0  -0.602483  0  2.204123  0  0  -0.62443  0  2.187574  0  0  -0.324629  -0.587051  0  2.2151  0
O  O40  1  0.05438105  0.66765682  0.04451550  1  0  -0.845147  0  1.859187  0  0  -0.777381  0  2.04163  0  0  -0.799933  0  2.009137  0  0  -0.562281  -0.76111  0  2.064153  0
O  O41  1  0.94562155  0.33234254  0.95548435  1  0  -0.845157  0  1.859155  0  0  -0.777404  0  2.04159  0  0  -0.79996  0  2.009095  0  0  -0.562307  -0.761134  0  2.064116  0
O  O42  1  0.67828642  0.83246986  0.93673233  1  0  -0.742303  0  2.078709  0  0  -0.676545  0  2.338438  0  0  -0.703549  0  2.327509  0  0  -0.321231  -0.657461  0  2.345528  0
O  O43  1  0.32171630  0.16752529  0.06325160  1  0  -0.742276  0  2.078546  0  0  -0.676543  0  2.338357  0  0  -0.703546  0  2.327424  0  0  -0.321243  -0.657445  0  2.345419  0
O  O44  1  0.50622732  0.09857517  0.75268805  1  0  -0.562213  0  2.17981  0  0  -0.509825  0  2.405266  0  0  -0.532035  0  2.39823  0  0  -0.337248  -0.492848  0  2.409614  0
O  O45  1  0.49377099  0.90141548  0.24730997  1  0  -0.562219  0  2.179709  0  0  -0.509872  0  2.405268  0  0  -0.532086  0  2.398227  0  0  -0.33725  -0.492891  0  2.409614  0
O  O46  1  0.08580872  0.79174809  0.29761711  1  0  -0.607482  0  1.905643  0  0  -0.545482  0  2.118889  0  0  -0.573932  0  2.112575  0  0  -0.29797  -0.526414  0  2.123291  0
O  O47  1  0.91421267  0.20827068  0.70236899  1  0  -0.607496  0  1.905871  0  0  -0.545498  0  2.11912  0  0  -0.573946  0  2.112806  0  0  -0.297927  -0.526434  0  2.123521  0
O  O48  1  0.95576356  0.01166317  0.15124238  1  0  -0.714418  0  2.049255  0  0  -0.630043  0  2.297456  0  0  -0.664103  0  2.289761  0  0  -0.301847  -0.605515  0  2.302258  0
O  O49  1  0.04426573  0.98834256  0.84875506  1  0  -0.714397  0  2.049009  0  0  -0.630066  0  2.297263  0  0  -0.664128  0  2.289566  0  0  -0.30183  -0.605537  0  2.302064  0
