# generated using pymatgen
data_CoH14C22Br4(NO)4
_symmetry_space_group_name_H-M   'P 1'
_cell_length_a   7.32463691
_cell_length_b   9.39432391
_cell_length_c   19.53257383
_cell_angle_alpha   91.50660012
_cell_angle_beta   90.01335436
_cell_angle_gamma   112.92267401
_symmetry_Int_Tables_number   1
_chemical_formula_structural   CoH14C22Br4(NO)4
_chemical_formula_sum   'Co2 H28 C44 Br8 N8 O8'
_cell_volume   1237.39185833
_cell_formula_units_Z   2
loop_
 _symmetry_equiv_pos_site_id
 _symmetry_equiv_pos_as_xyz
  1  'x, y, z'
loop_
 _atom_site_type_symbol
 _atom_site_label
 _atom_site_symmetry_multiplicity
 _atom_site_fract_x
 _atom_site_fract_y
 _atom_site_fract_z
 _atom_site_occupancy
 _atom_site_hle17_ddec_charge
 _atom_site_hle17_ddec_spin_density
 _atom_site_hle17_ddec_sum_bond_order
 _atom_site_hle17_magmom
 _atom_site_hse06_10hf_bader_charge
 _atom_site_hse06_10hf_bader_spin_density
 _atom_site_hse06_10hf_ddec_charge
 _atom_site_hse06_10hf_ddec_spin_density
 _atom_site_hse06_10hf_ddec_sum_bond_order
 _atom_site_hse06_10hf_magmom
 _atom_site_hse06_bader_charge
 _atom_site_hse06_bader_spin_density
 _atom_site_hse06_ddec_charge
 _atom_site_hse06_ddec_spin_density
 _atom_site_hse06_ddec_sum_bond_order
 _atom_site_hse06_magmom
 _atom_site_pbe_cm5_charge
 _atom_site_pbe_ddec_charge
 _atom_site_pbe_ddec_spin_density
 _atom_site_pbe_ddec_sum_bond_order
 _atom_site_pbe_magmom
Co  Co0  1  0.35538734  0.00013061  0.75000855  1  0.968709  -2.817769  1.96076  -2.54  1.265581  -2.655394  0.910959  -2.827485  2.409243  -2.6  1.340346  -2.741527  1.004307  -2.87367  2.32221  -2.689  0.666471  0.836173  -2.781712  2.475334  -2.515
Co  Co1  1  0.64460672  0.99987291  0.24999030  1  0.968727  -2.817768  1.960864  -2.54  1.265661  -2.655387  0.911022  -2.827471  2.409309  -2.6  1.340434  -2.741524  1.004357  -2.873659  2.322282  -2.689  0.666493  0.836234  -2.781694  2.475404  -2.515
H  H2  1  0.08242527  0.66109776  0.72703414  1  0.113644  -0.000213  0.949049  -0.001  0.122953  -0.000965  0.123737  -0.000334  1.006412  -0.001  0.128077  -0.000739  0.126148  -0.000229  1.005115  -0.001  0.120838  0.121998  -0.000444  1.007461  -0.001
H  H3  1  0.42135868  0.33913284  0.77290759  1  0.113918  -0.000212  0.949405  -0.001  0.138288  -0.00096  0.124146  -0.000333  1.006515  -0.001  0.143928  -0.000735  0.126457  -0.000228  1.005326  -0.001  0.120941  0.122457  -0.000444  1.007537  -0.001
H  H4  1  0.91757619  0.33890691  0.27296474  1  0.113644  -0.000212  0.948983  -0.001  0.123069  -0.000965  0.123732  -0.000334  1.006361  -0.001  0.12808  -0.000739  0.126144  -0.000229  1.005065  -0.001  0.120844  0.121995  -0.000445  1.007413  -0.001
H  H5  1  0.57864096  0.66087637  0.22709393  1  0.113952  -0.000212  0.949382  -0.001  0.138178  -0.000961  0.124144  -0.000333  1.006537  -0.001  0.144049  -0.000735  0.126456  -0.000228  1.005348  -0.001  0.120937  0.122452  -0.000444  1.007562  -0.001
H  H6  1  0.70251042  0.86478411  0.69820087  1  0.103298  0.000163  0.984223  0.0  0.205306  -0.000464  0.105453  1.6e-05  1.060328  0.0  0.212998  -0.000365  0.108753  3e-05  1.056078  0.0  0.125513  0.102893  4e-06  1.063608  -0.001
H  H7  1  0.83814585  0.13554022  0.80171127  1  0.103609  0.00016  0.983713  0.0  0.206725  -0.000466  0.105508  1.5e-05  1.060044  0.0  0.212808  -0.000367  0.108693  3e-05  1.055888  0.0  0.125721  0.103027  3e-06  1.063269  -0.001
H  H8  1  0.29749059  0.13521691  0.30180357  1  0.103377  0.000163  0.984053  0.0  0.205332  -0.000464  0.105484  1.6e-05  1.06022  0.0  0.213201  -0.000365  0.108785  3e-05  1.05597  0.0  0.125541  0.102924  4e-06  1.063502  -0.001
H  H9  1  0.16184451  0.86445862  0.19828903  1  0.103801  0.000161  0.983757  0.0  0.206664  -0.000466  0.105706  1.5e-05  1.06006  0.0  0.2128  -0.000367  0.108891  3e-05  1.055905  0.0  0.125822  0.103227  3e-06  1.063292  -0.001
H  H10  1  0.21003390  0.43969691  0.67106156  1  0.111581  -0.000243  0.975245  0.0  0.176988  -0.000603  0.117035  -0.000233  1.045778  0.0  0.185632  -0.000436  0.120217  -0.000162  1.043754  0.0  0.113293  0.114663  -0.000308  1.047385  0.0
H  H11  1  0.77020521  0.56051210  0.82889799  1  0.111553  -0.000244  0.975525  0.0  0.122614  -0.000638  0.116698  -0.000232  1.046351  0.0  0.126617  -0.000462  0.119866  -0.000161  1.044321  0.0  0.113126  0.114347  -0.000307  1.047968  0.0
H  H12  1  0.78997297  0.56030764  0.32894089  1  0.111565  -0.000245  0.975242  0.0  0.177262  -0.000603  0.117007  -0.000233  1.045796  0.0  0.185594  -0.000436  0.120188  -0.000162  1.043772  0.0  0.113286  0.114638  -0.000308  1.047401  0.0
H  H13  1  0.22979976  0.43949139  0.17110138  1  0.11152  -0.000243  0.97547  0.0  0.122744  -0.000638  0.116677  -0.000232  1.046295  0.0  0.126653  -0.000462  0.119844  -0.000161  1.044268  0.0  0.113121  0.114326  -0.000307  1.047909  0.0
H  H14  1  0.40796379  0.28423863  0.58157537  1  0.10238  -9.6e-05  0.971603  0.0  0.104989  -0.000287  0.109034  -5.4e-05  1.040945  0.0  0.109587  -0.000189  0.11277  1.5e-05  1.038809  0.0  0.093582  0.106242  -0.000136  1.042536  0.0
H  H15  1  0.12285588  0.71578345  0.91842149  1  0.102774  -9.5e-05  0.971651  0.0  0.101946  -0.00029  0.108909  -5.5e-05  1.041494  0.0  0.105712  -0.000191  0.112616  1.4e-05  1.039411  0.0  0.093554  0.106128  -0.000137  1.043075  0.0
H  H16  1  0.59203179  0.71576246  0.41842702  1  0.102415  -9.4e-05  0.971624  0.0  0.105027  -0.000287  0.109099  -5.4e-05  1.040924  0.0  0.10961  -0.00019  0.112836  1.5e-05  1.03879  0.0  0.093606  0.106309  -0.000136  1.042518  0.0
H  H17  1  0.87715067  0.28421773  0.08157783  1  0.102749  -9.8e-05  0.971618  0.0  0.101957  -0.000289  0.108889  -5.5e-05  1.04146  0.0  0.105744  -0.000191  0.112597  1.4e-05  1.039376  0.0  0.093545  0.106109  -0.000137  1.04304  0.0
H  H18  1  0.70074847  0.76865467  0.54039119  1  0.086159  3e-06  0.980485  0.0  0.098472  -3e-05  0.094024  -4e-06  1.050153  0.0  0.102644  -1.8e-05  0.094941  -0.0  1.051956  0.0  0.090607  0.093303  -9e-06  1.049048  0.0
H  H19  1  0.93252875  0.23141416  0.95956283  1  0.085766  6e-06  0.98043  0.0  0.106057  -3.1e-05  0.093541  -4e-06  1.050497  0.0  0.108745  -1.8e-05  0.094326  -0.0  1.052535  0.0  0.090559  0.092856  -1e-05  1.049312  0.0
H  H20  1  0.29924473  0.23134985  0.45961229  1  0.086063  4e-06  0.980677  0.0  0.098546  -3e-05  0.094002  -4e-06  1.050257  0.0  0.102662  -1.8e-05  0.09492  -0.0  1.052062  0.0  0.090621  0.093277  -9e-06  1.049161  0.0
H  H21  1  0.06747780  0.76858702  0.04043649  1  0.085733  0.0  0.98044  0.0  0.106064  -3.1e-05  0.093517  -4e-06  1.050497  0.0  0.108738  -1.8e-05  0.094301  -0.0  1.052536  0.0  0.090566  0.092849  -1e-05  1.049292  0.0
H  H22  1  0.60493406  0.45892685  0.66941701  1  0.082626  8.9e-05  0.944786  0.0  0.081292  -8.1e-05  0.095357  6.2e-05  1.009474  0.0  0.118809  -4.2e-05  0.096266  6.8e-05  1.009  0.0  0.106601  0.094606  5.4e-05  1.00992  0.0
H  H23  1  0.14602583  0.54126380  0.83062231  1  0.082467  8.8e-05  0.944697  0.0  0.091034  -8.2e-05  0.095194  6.2e-05  1.009579  0.0  0.093443  -4.5e-05  0.096229  6.8e-05  1.009095  0.0  0.106566  0.094353  5.4e-05  1.010088  0.0
H  H24  1  0.39506914  0.54107310  0.33058484  1  0.082615  9e-05  0.944862  0.0  0.080631  -8.1e-05  0.095363  6.2e-05  1.009492  0.0  0.118834  -4.1e-05  0.096275  6.8e-05  1.009019  0.0  0.106567  0.094611  5.4e-05  1.009938  0.0
H  H25  1  0.85397412  0.45873510  0.16937594  1  0.082389  8.7e-05  0.944824  0.0  0.091042  -8.2e-05  0.095131  6.2e-05  1.009678  0.0  0.093414  -4.5e-05  0.096162  6.8e-05  1.00919  0.0  0.10654  0.094291  5.4e-05  1.010186  0.0
H  H26  1  0.77274832  0.64965390  0.64929651  1  0.111056  5.2e-05  0.950204  0.0  0.132117  -4.8e-05  0.125475  3.5e-05  1.008695  0.0  0.135435  -2.2e-05  0.127812  4.2e-05  1.006638  0.0  0.116753  0.123674  2.3e-05  1.010204  0.0
H  H27  1  0.12308104  0.35047016  0.85073385  1  0.110994  5.2e-05  0.950035  0.0  0.126001  -4.8e-05  0.125544  3.5e-05  1.008675  0.0  0.128946  -2.2e-05  0.12797  4.2e-05  1.006604  0.0  0.116892  0.123698  2.3e-05  1.010185  0.0
H  H28  1  0.22725215  0.35034605  0.35070535  1  0.111069  5.4e-05  0.950266  0.0  0.132147  -4.8e-05  0.125476  3.5e-05  1.008744  0.0  0.135491  -2.2e-05  0.127814  4.2e-05  1.006688  0.0  0.116748  0.123679  2.3e-05  1.010248  0.0
H  H29  1  0.87691482  0.64952875  0.14926440  1  0.110953  5.1e-05  0.950073  0.0  0.126165  -4.8e-05  0.125502  3.5e-05  1.008711  0.0  0.129075  -2.3e-05  0.127924  4.1e-05  1.006638  0.0  0.116871  0.123655  2.3e-05  1.010226  0.0
C  C30  1  0.11562417  0.97678832  0.64158805  1  0.63997  0.005071  3.967313  0.005  1.687223  -0.002462  0.590239  -0.002052  4.278694  -0.001  1.748676  -0.001659  0.625993  -0.001221  4.273298  -0.001  0.194508  0.565015  -0.003032  4.28092  -0.001
C  C31  1  0.13937609  0.02346128  0.85848294  1  0.640185  0.00508  3.967177  0.005  1.660821  -0.002524  0.591222  -0.002049  4.277453  -0.001  1.731367  -0.001722  0.627033  -0.001219  4.271981  -0.001  0.194883  0.565983  -0.003027  4.279729  -0.001
C  C32  1  0.88438338  0.02321761  0.35840777  1  0.640142  0.005076  3.967099  0.005  1.687728  -0.002462  0.590365  -0.002052  4.278497  -0.001  1.748488  -0.00166  0.626146  -0.00122  4.273103  -0.001  0.194576  0.565146  -0.003032  4.280725  -0.001
C  C33  1  0.86061938  0.97653411  0.14151678  1  0.640105  0.005082  3.967265  0.005  1.661148  -0.002524  0.591146  -0.002049  4.277553  -0.001  1.731224  -0.001724  0.626955  -0.00122  4.272081  -0.001  0.194845  0.565912  -0.003027  4.279818  -0.001
C  C34  1  0.22984734  0.66915691  0.71418266  1  0.002671  0.004455  3.754057  0.003  0.461708  -0.001084  -0.028107  -0.000594  4.024972  -0.001  0.484879  -0.000442  -0.024104  -7.3e-05  4.044507  -0.001  -0.006524  -0.031356  -0.001029  4.012042  -0.002
C  C35  1  0.56076806  0.33108085  0.78574418  1  0.002431  0.004414  3.755137  0.003  0.419184  -0.001137  -0.028483  -0.000596  4.025987  -0.001  0.442262  -0.000481  -0.024392  -7.6e-05  4.045561  -0.001  -0.006324  -0.031784  -0.001031  4.013026  -0.002
C  C36  1  0.77015156  0.33084536  0.28581873  1  0.002698  0.004422  3.754107  0.003  0.4617  -0.001085  -0.028081  -0.000595  4.025025  -0.001  0.485071  -0.000442  -0.024079  -7.3e-05  4.04456  -0.001  -0.00651  -0.031328  -0.001029  4.01209  -0.002
C  C37  1  0.43922907  0.66892607  0.21425679  1  0.002441  0.00443  3.755134  0.003  0.419389  -0.001138  -0.028418  -0.000596  4.025953  -0.001  0.442224  -0.00048  -0.02433  -7.5e-05  4.045524  -0.001  -0.006266  -0.031721  -0.001031  4.012988  -0.002
C  C38  1  0.54995992  0.78226015  0.69980717  1  0.152555  0.007428  3.64904  0.004  0.96809  -0.00203  0.094059  -0.001144  3.92345  -0.002  1.014892  -0.001668  0.109537  -0.000871  3.936079  -0.002  0.132809  0.083261  -0.001141  3.915089  -0.002
C  C39  1  0.76794351  0.21801403  0.80009842  1  0.152866  0.00741  3.65107  0.004  0.968187  -0.00206  0.094579  -0.001146  3.925505  -0.002  1.021972  -0.00168  0.110203  -0.000873  3.938178  -0.002  0.132888  0.08368  -0.001142  3.917099  -0.002
C  C40  1  0.45004575  0.21774201  0.30019780  1  0.152429  0.00741  3.649125  0.004  0.968543  -0.00203  0.093994  -0.001144  3.923551  -0.002  1.014794  -0.001669  0.109469  -0.000871  3.936179  -0.002  0.132769  0.083201  -0.001141  3.915189  -0.002
C  C41  1  0.23204938  0.78198713  0.19990192  1  0.152581  0.0074  3.651194  0.004  0.968105  -0.002059  0.094318  -0.001145  3.925605  -0.002  1.022002  -0.001679  0.10994  -0.000872  3.938276  -0.002  0.1327  0.083407  -0.001142  3.917211  -0.002
C  C42  1  0.94095390  0.07426506  0.55303589  1  0.027297  -0.000582  3.696627  -0.001  -0.015465  -0.00172  0.026521  -0.000843  3.973906  -0.001  -0.036455  -0.001098  0.029959  -0.00052  3.992319  -0.001  -0.02242  0.024051  -0.001254  3.96189  -0.001
C  C43  1  0.86702077  0.92573696  0.94687724  1  0.028309  -0.000579  3.695627  -0.001  -0.053502  -0.001732  0.028071  -0.000844  3.972478  -0.001  -0.052898  -0.001102  0.031542  -0.00052  3.990882  -0.001  -0.021989  0.025599  -0.001254  3.960469  -0.001
C  C44  1  0.05905739  0.92573741  0.44695935  1  0.027381  -0.000588  3.696583  -0.001  -0.015454  -0.001722  0.026552  -0.000844  3.97384  -0.001  -0.037274  -0.001098  0.030021  -0.00052  3.992282  -0.001  -0.022404  0.024076  -0.001254  3.961829  -0.001
C  C45  1  0.13297117  0.07425957  0.05312302  1  0.028153  -0.000584  3.695629  -0.001  -0.053435  -0.001732  0.027962  -0.000845  3.972421  -0.001  -0.052522  -0.001102  0.03143  -0.00052  3.990822  -0.001  -0.022038  0.025489  -0.001254  3.960413  -0.001
C  C46  1  0.29105726  0.55969568  0.68652625  1  -0.068674  -0.004213  3.67894  -0.006  0.239196  -0.00421  -0.106851  -0.00198  3.933869  -0.003  0.243781  -0.003239  -0.106111  -0.001456  3.951882  -0.002  -0.003468  -0.107293  -0.002614  3.922188  -0.004
C  C47  1  0.73138310  0.44055400  0.81340017  1  -0.068566  -0.004179  3.679971  -0.006  0.300567  -0.00415  -0.106449  -0.001974  3.934942  -0.003  0.30838  -0.003192  -0.105663  -0.001451  3.952896  -0.002  -0.003861  -0.106924  -0.002606  3.923274  -0.004
C  C48  1  0.70894456  0.44030424  0.31347663  1  -0.068739  -0.004195  3.679028  -0.006  0.238719  -0.00421  -0.106889  -0.00198  3.933957  -0.003  0.243521  -0.00324  -0.106148  -0.001456  3.951973  -0.002  -0.003448  -0.107333  -0.002614  3.922277  -0.004
C  C49  1  0.26861834  0.55945062  0.18660024  1  -0.068628  -0.004187  3.680027  -0.006  0.300464  -0.00415  -0.106526  -0.001974  3.935007  -0.003  0.308382  -0.003193  -0.105739  -0.001451  3.952963  -0.002  -0.003919  -0.106996  -0.002607  3.923327  -0.004
C  C50  1  0.56094802  0.53022081  0.56880828  1  0.070324  -0.000143  3.754865  0.0  0.009273  -0.000227  0.090447  -0.000122  3.989805  0.0  0.008222  -0.000131  0.089472  -7.1e-05  4.014057  0.0  -0.016775  0.091121  -0.000194  3.973304  0.0
C  C51  1  0.03055190  0.46984520  0.93117888  1  0.0689  -0.000121  3.754662  0.0  0.013367  -0.000225  0.089085  -0.000121  3.990102  0.0  0.0133  -0.000129  0.088204  -7e-05  4.014397  0.0  -0.017247  0.089716  -0.000195  3.973567  0.0
C  C52  1  0.43904598  0.46978257  0.43119466  1  0.070279  -0.000136  3.754938  0.0  0.009289  -0.000225  0.090377  -0.000121  3.989912  0.0  0.00808  -0.000131  0.089405  -7e-05  4.01416  0.0  -0.016787  0.091054  -0.000194  3.9734  0.0
C  C53  1  0.96944783  0.53015600  0.06881993  1  0.0688  -0.000167  3.754641  0.0  0.013482  -0.000225  0.088979  -0.000121  3.990087  0.0  0.01333  -0.00013  0.088091  -7e-05  4.014379  0.0  -0.017295  0.089611  -0.000195  3.973553  0.0
C  C54  1  0.44770287  0.37890886  0.54586498  1  -0.121678  -0.00022  3.754561  0.0  -0.066067  -0.000461  -0.140599  -0.000234  4.001609  0.0  -0.0697  -0.000294  -0.143981  -0.000146  4.023299  0.0  -0.099103  -0.138194  -0.000335  3.986984  0.0
C  C55  1  0.06834856  0.62112087  0.95414671  1  -0.121729  -0.000246  3.754798  0.0  -0.117293  -0.000465  -0.140057  -0.000235  4.001911  0.0  -0.12225  -0.000296  -0.143397  -0.000147  4.023527  0.0  -0.098952  -0.137674  -0.000336  3.987334  0.0
C  C56  1  0.55228976  0.62109452  0.45413797  1  -0.121731  -0.00023  3.754622  0.0  -0.066107  -0.000462  -0.140691  -0.000235  4.001669  0.0  -0.069623  -0.000293  -0.144072  -0.000146  4.023349  0.0  -0.099135  -0.138288  -0.000335  3.987056  0.0
C  C57  1  0.93165254  0.37888033  0.04585209  1  -0.121668  -0.000203  3.754687  0.0  -0.117282  -0.000465  -0.139985  -0.000235  4.001782  0.0  -0.122293  -0.000296  -0.143326  -0.000147  4.023401  0.0  -0.09893  -0.137602  -0.000336  3.987199  0.0
C  C58  1  0.61268501  0.65066075  0.52256651  1  -0.107223  -0.000102  3.747936  0.0  -0.119428  -0.000224  -0.12586  -0.000115  3.994927  0.0  -0.124712  -0.000138  -0.128584  -7.2e-05  4.01852  0.0  -0.101461  -0.12396  -0.00017  3.978989  0.0
C  C59  1  0.96230375  0.34938300  0.97741099  1  -0.106226  -0.00013  3.746796  0.0  -0.069263  -0.000223  -0.124874  -0.000115  3.993725  0.0  -0.07129  -0.000137  -0.127544  -7.2e-05  4.017262  0.0  -0.101275  -0.122975  -0.00017  3.977827  0.0
C  C60  1  0.38730820  0.34934379  0.47743646  1  -0.107032  -0.00011  3.748083  0.0  -0.119437  -0.000226  -0.125743  -0.000115  3.995092  0.0  -0.124593  -0.000138  -0.12847  -7.1e-05  4.018686  0.0  -0.101466  -0.123845  -0.00017  3.979149  0.0
C  C61  1  0.03769734  0.65061820  0.02258781  1  -0.106136  -7.7e-05  3.746762  0.0  -0.069254  -0.000223  -0.124783  -0.000115  3.993694  0.0  -0.071314  -0.000138  -0.127454  -7.2e-05  4.017234  0.0  -0.10126  -0.122898  -0.00017  3.977788  0.0
C  C62  1  0.61983764  0.56474203  0.64325292  1  -0.057982  -0.000579  3.637453  -0.001  0.269463  -0.00078  -0.122094  -0.000447  3.877904  -0.001  0.255205  -0.000573  -0.117652  -0.000324  3.886653  0.0  -0.054229  -0.124847  -0.000581  3.871994  -0.001
C  C63  1  0.05506447  0.43543344  0.85673348  1  -0.056655  -0.000578  3.635953  -0.001  0.26286  -0.000778  -0.121097  -0.000449  3.876567  -0.001  0.278054  -0.000573  -0.117074  -0.000326  3.885892  0.0  -0.05415  -0.123657  -0.000583  3.870462  -0.001
C  C64  1  0.38016454  0.43526133  0.35675054  1  -0.058087  -0.000583  3.637747  -0.001  0.270108  -0.00078  -0.122138  -0.000447  3.878062  -0.001  0.255168  -0.000574  -0.117703  -0.000325  3.886817  0.0  -0.054176  -0.124886  -0.000581  3.872148  -0.001
C  C65  1  0.94493468  0.56456659  0.14326581  1  -0.056479  -0.000576  3.635982  -0.001  0.262568  -0.000778  -0.120922  -0.000449  3.876581  -0.001  0.277937  -0.000572  -0.116873  -0.000325  3.885874  0.0  -0.054076  -0.123481  -0.000583  3.870468  -0.001
C  C66  1  0.11895522  0.91829876  0.51454173  1  0.027929  -0.000735  3.699939  -0.001  -0.08418  -0.001819  0.028042  -0.000885  3.975781  -0.001  -0.087149  -0.001175  0.031655  -0.000552  3.994235  -0.001  -0.02281  0.025461  -0.001311  3.963742  -0.001
C  C67  1  0.20059674  0.08180814  0.98558327  1  0.028693  -0.000735  3.698409  -0.001  -0.008811  -0.001804  0.027886  -0.000886  3.975357  -0.001  -0.001305  -0.001164  0.031533  -0.000553  3.993789  -0.001  -0.023049  0.025297  -0.001313  3.96335  -0.001
C  C68  1  0.88105801  0.08170487  0.48545354  1  0.028138  -0.000741  3.699899  -0.001  -0.084444  -0.001821  0.028144  -0.000885  3.975852  -0.001  -0.086831  -0.001175  0.031789  -0.000552  3.994334  -0.001  -0.022745  0.025555  -0.001312  3.963824  -0.001
C  C69  1  0.79939583  0.91818146  0.01441634  1  0.028657  -0.000741  3.698371  -0.001  -0.008525  -0.001805  0.027867  -0.000887  3.97532  -0.001  -0.000962  -0.001164  0.031512  -0.000553  3.993749  -0.001  -0.023039  0.025272  -0.001313  3.963321  -0.001
C  C70  1  0.06017201  0.99301936  0.56819108  1  -0.103104  -0.00267  3.728726  -0.004  0.06785  -0.003396  -0.095238  -0.001671  3.974136  -0.002  0.101188  -0.00186  -0.097079  -0.000784  3.988866  -0.001  -0.020757  -0.094549  -0.002761  3.965044  -0.003
C  C71  1  0.06743959  0.00711399  0.93184063  1  -0.104364  -0.002668  3.728912  -0.004  0.043582  -0.003392  -0.096362  -0.001669  3.973824  -0.002  0.045998  -0.001857  -0.098271  -0.000782  3.988656  -0.001  -0.020869  -0.095695  -0.002759  3.964786  -0.003
C  C72  1  0.93983930  0.00698316  0.43180263  1  -0.103336  -0.002666  3.728917  -0.004  0.067375  -0.003395  -0.095336  -0.00167  3.974187  -0.002  0.102154  -0.001859  -0.097276  -0.000783  3.989033  -0.001  -0.020841  -0.094653  -0.002761  3.965108  -0.003
C  C73  1  0.93255472  0.99287910  0.06815853  1  -0.104314  -0.002665  3.72868  -0.004  0.043192  -0.003392  -0.096333  -0.001668  3.9736  -0.002  0.046116  -0.001857  -0.098233  -0.000782  3.988421  -0.001  -0.02088  -0.095665  -0.002759  3.964561  -0.003
Br  Br74  1  0.27483583  0.80424076  0.53443120  1  -0.009142  0.000271  1.402401  0.0  0.001024  -0.000307  -0.009251  0.000173  1.674321  0.0  -0.002817  -0.000121  -0.012099  0.000251  1.668796  0.0  0.06953  -0.007117  3.9e-05  1.678447  0.0
Br  Br75  1  0.47051193  0.19603803  0.96584353  1  -0.009814  0.00027  1.40054  0.0  -0.007326  -0.000308  -0.009763  0.00017  1.672443  0.0  -0.01241  -0.000122  -0.01257  0.000249  1.666867  0.0  0.069052  -0.007651  3.6e-05  1.67658  0.0
Br  Br76  1  0.72517738  0.19576282  0.46556560  1  -0.009146  0.000272  1.402401  0.0  0.00106  -0.000307  -0.009237  0.000173  1.67434  0.0  -0.003083  -0.000121  -0.012084  0.000251  1.668808  0.0  0.06957  -0.007099  3.9e-05  1.67847  0.0
Br  Br77  1  0.52948492  0.80394920  0.03415808  1  -0.009846  0.00027  1.4006  0.0  -0.007572  -0.000308  -0.0098  0.00017  1.672506  0.0  -0.012434  -0.000122  -0.012606  0.000249  1.666929  0.0  0.069022  -0.007689  3.6e-05  1.676642  0.0
Br  Br78  1  0.85773491  0.17107829  0.62635331  1  -0.005918  0.000181  1.341612  0.0  -0.033718  -0.000905  0.001641  -0.000245  1.60453  -0.001  -0.039925  -0.00056  -0.000259  -5.1e-05  1.595111  0.0  0.079058  0.003087  -0.0005  1.611464  -0.001
Br  Br79  1  0.68746411  0.82886477  0.87344938  1  -0.005886  0.000182  1.341571  0.0  -0.036741  -0.000904  0.001637  -0.000244  1.60418  -0.001  -0.043784  -0.000557  -0.000244  -5e-05  1.594722  0.0  0.079358  0.003059  -0.000498  1.611149  -0.001
Br  Br80  1  0.14227600  0.82892070  0.37364238  1  -0.005953  0.000182  1.341591  0.0  -0.033784  -0.000905  0.001604  -0.000245  1.604524  -0.001  -0.040002  -0.00056  -0.000295  -5.1e-05  1.595097  0.0  0.079035  0.003052  -0.0005  1.611463  -0.001
Br  Br81  1  0.31252891  0.17115852  0.12654626  1  -0.005806  0.000182  1.341553  0.0  -0.03661  -0.000904  0.001689  -0.000244  1.604168  -0.001  -0.04378  -0.000557  -0.000192  -5e-05  1.59471  0.0  0.079388  0.003112  -0.000498  1.611134  -0.001
N  N82  1  0.39251397  0.80785561  0.72224378  1  -0.397688  -0.041278  3.369522  -0.065  -1.272318  -0.057964  -0.352831  -0.029992  3.695238  -0.038  -1.331559  -0.046112  -0.384515  -0.023692  3.709836  -0.029  -0.372923  -0.329242  -0.035546  3.685153  -0.045
N  N83  1  0.58489622  0.19238050  0.77767878  1  -0.397716  -0.04123  3.369936  -0.065  -1.258076  -0.057913  -0.352709  -0.029952  3.695498  -0.038  -1.324226  -0.045955  -0.384358  -0.023653  3.709957  -0.029  -0.373149  -0.329141  -0.035509  3.685481  -0.045
N  N84  1  0.60748881  0.19214895  0.27775868  1  -0.397697  -0.041272  3.369676  -0.065  -1.272647  -0.057967  -0.352851  -0.029992  3.695376  -0.038  -1.331575  -0.046112  -0.384533  -0.023691  3.709983  -0.029  -0.372955  -0.329267  -0.035547  3.685298  -0.045
N  N85  1  0.41509860  0.80762179  0.22232209  1  -0.397679  -0.041228  3.369912  -0.065  -1.258111  -0.057914  -0.352722  -0.029952  3.695475  -0.038  -1.324277  -0.045955  -0.384371  -0.023654  3.709951  -0.029  -0.373174  -0.32916  -0.035509  3.685476  -0.045
N  N86  1  0.49354691  0.63273809  0.67804689  1  -0.04746  -0.000491  3.547437  -0.001  -1.281396  -0.002964  0.049201  -0.001159  3.758198  -0.002  -1.35162  -0.002236  0.034528  -0.000813  3.784241  -0.001  -0.239016  0.058704  -0.001453  3.740835  -0.002
N  N87  1  0.86090265  0.36751618  0.82186614  1  -0.048374  -0.000507  3.54913  -0.001  -1.284284  -0.00297  0.048435  -0.001165  3.759994  -0.002  -1.344515  -0.002234  0.033812  -0.000817  3.786123  -0.001  -0.238544  0.057928  -0.001461  3.742584  -0.002
N  N88  1  0.50645876  0.36726407  0.32195808  1  -0.047264  -0.000486  3.547524  -0.001  -1.281427  -0.002964  0.049347  -0.001159  3.758261  -0.002  -1.351613  -0.002236  0.034676  -0.000813  3.784305  -0.001  -0.239018  0.058843  -0.001453  3.740902  -0.002
N  N89  1  0.13909240  0.63248383  0.17813367  1  -0.048289  -0.000504  3.549144  -0.001  -1.284215  -0.002969  0.048512  -0.001165  3.760015  -0.002  -1.344545  -0.002235  0.033884  -0.000818  3.786136  -0.001  -0.238444  0.05801  -0.001461  3.742597  -0.002
O  O90  1  0.99832612  0.86919939  0.67559955  1  -0.591718  -0.006044  1.960722  -0.011  -1.208722  -0.016048  -0.551474  -0.007569  2.194373  -0.012  -1.244915  -0.011795  -0.579607  -0.005393  2.187424  -0.009  -0.298734  -0.530189  -0.010136  2.198027  -0.016
O  O91  1  0.12974553  0.13113512  0.82447821  1  -0.591545  -0.006053  1.962047  -0.011  -1.189825  -0.01606  -0.551899  -0.007573  2.195696  -0.012  -1.236845  -0.011786  -0.580048  -0.005395  2.188686  -0.009  -0.298528  -0.530545  -0.010144  2.199283  -0.016
O  O92  1  0.00167325  0.13080655  0.32439576  1  -0.591789  -0.006045  1.96049  -0.011  -1.208933  -0.016049  -0.551551  -0.007569  2.194173  -0.012  -1.244943  -0.011795  -0.579678  -0.005393  2.187208  -0.009  -0.29883  -0.530268  -0.010136  2.197831  -0.016
O  O93  1  0.87025688  0.86886598  0.17552367  1  -0.59153  -0.006052  1.962049  -0.011  -1.189839  -0.016057  -0.551898  -0.007572  2.195723  -0.012  -1.236878  -0.011784  -0.580048  -0.005394  2.188714  -0.009  -0.298512  -0.53054  -0.010142  2.199299  -0.016
O  O94  1  0.28450433  0.07471025  0.66372738  1  -0.605415  -0.051229  2.056222  -0.086  -1.175677  -0.073246  -0.573588  -0.036893  2.340503  -0.056  -1.230823  -0.054396  -0.616366  -0.027164  2.32957  -0.04  -0.318227  -0.539556  -0.046338  2.345946  -0.069
O  O95  1  0.21034007  0.92550965  0.83633866  1  -0.605777  -0.05119  2.054801  -0.086  -1.170455  -0.073118  -0.574074  -0.036876  2.33852  -0.055  -1.22314  -0.054335  -0.616908  -0.027156  2.327708  -0.04  -0.318682  -0.540009  -0.046312  2.343882  -0.069
O  O96  1  0.71550127  0.92529450  0.33626893  1  -0.605509  -0.051235  2.056201  -0.086  -1.176023  -0.073251  -0.573692  -0.036898  2.34051  -0.056  -1.230816  -0.054399  -0.616466  -0.027168  2.329571  -0.04  -0.318226  -0.539657  -0.046343  2.345952  -0.069
O  O97  1  0.78965075  0.07448465  0.16365899  1  -0.605728  -0.05119  2.054821  -0.086  -1.170473  -0.073119  -0.57403  -0.036876  2.33853  -0.055  -1.22308  -0.054335  -0.61686  -0.027155  2.327719  -0.04  -0.318676  -0.539966  -0.046313  2.343887  -0.069
