# generated using pymatgen
data_ZnH6C8S(NO)4
_symmetry_space_group_name_H-M   'P 1'
_cell_length_a   8.81273396
_cell_length_b   10.06420668
_cell_length_c   13.55215033
_cell_angle_alpha   89.99999391
_cell_angle_beta   89.99997758
_cell_angle_gamma   117.12139986
_symmetry_Int_Tables_number   1
_chemical_formula_structural   ZnH6C8S(NO)4
_chemical_formula_sum   'Zn4 H24 C32 S4 N16 O16'
_cell_volume   1069.81629724
_cell_formula_units_Z   4
loop_
 _symmetry_equiv_pos_site_id
 _symmetry_equiv_pos_as_xyz
  1  'x, y, z'
loop_
 _atom_site_type_symbol
 _atom_site_label
 _atom_site_symmetry_multiplicity
 _atom_site_fract_x
 _atom_site_fract_y
 _atom_site_fract_z
 _atom_site_occupancy
 _atom_site_hle17_bader_spin_density
 _atom_site_hle17_ddec_charge
 _atom_site_hle17_ddec_spin_density
 _atom_site_hle17_ddec_sum_bond_order
 _atom_site_hle17_magmom
 _atom_site_hse06_10hf_bader_spin_density
 _atom_site_hse06_10hf_ddec_charge
 _atom_site_hse06_10hf_ddec_spin_density
 _atom_site_hse06_10hf_ddec_sum_bond_order
 _atom_site_hse06_10hf_magmom
 _atom_site_hse06_bader_spin_density
 _atom_site_hse06_ddec_charge
 _atom_site_hse06_ddec_spin_density
 _atom_site_hse06_ddec_sum_bond_order
 _atom_site_hse06_magmom
 _atom_site_pbe_bader_spin_density
 _atom_site_pbe_cm5_charge
 _atom_site_pbe_ddec_charge
 _atom_site_pbe_ddec_spin_density
 _atom_site_pbe_ddec_sum_bond_order
 _atom_site_pbe_magmom
Zn  Zn0  1  0.22027774  0.76568962  0.38833316  1  0  0.977443  0  1.960706  0  0  0.786162  0  2.421826  0  0  0.82884  0  2.37405  0  0  0.702008  0.755776  0  2.455191  0
Zn  Zn1  1  0.77972106  0.73431244  0.88833418  1  0  0.977467  0  1.96065  0  0  0.786205  0  2.421758  0  0  0.828883  0  2.373979  0  0  0.702031  0.755821  0  2.455126  0
Zn  Zn2  1  0.77971957  0.23431178  0.61166445  1  0  0.977468  0  1.960638  0  0  0.786208  0  2.421739  0  0  0.828884  0  2.373961  0  0  0.702031  0.755822  0  2.455103  0
Zn  Zn3  1  0.22027911  0.26568788  0.11166638  1  0  0.977482  0  1.960674  0  0  0.786221  0  2.421776  0  0  0.828897  0  2.373999  0  0  0.702034  0.755839  0  2.455142  0
H  H4  1  0.13197228  0.25675518  0.66183369  1  0  0.092355  0  0.957416  0  0  0.096947  0  1.025268  0  0  0.099883  0  1.022505  0  0  0.122983  0.094582  0  1.027361  0
H  H5  1  0.86802863  0.24324447  0.16183472  1  0  0.092355  0  0.957428  0  0  0.096926  0  1.025297  0  0  0.099861  0  1.022537  0  0  0.122974  0.094558  0  1.02739  0
H  H6  1  0.86802618  0.74324401  0.33816244  1  0  0.092328  0  0.957426  0  0  0.096941  0  1.025268  0  0  0.099877  0  1.022504  0  0  0.122994  0.094576  0  1.027359  0
H  H7  1  0.13197267  0.75675808  0.83816511  1  0  0.09233  0  0.957435  0  0  0.096924  0  1.025285  0  0  0.099859  0  1.022524  0  0  0.122992  0.094561  0  1.027379  0
H  H8  1  0.44461447  0.45743242  0.63494345  1  0  0.146824  0  0.994872  0  0  0.151321  0  1.05899  0  0  0.156063  0  1.056671  0  0  0.113994  0.147809  0  1.060852  0
H  H9  1  0.55538532  0.04256724  0.13494456  1  0  0.146874  0  0.994842  0  0  0.151354  0  1.058962  0  0  0.156095  0  1.05664  0  0  0.114003  0.147821  0  1.06085  0
H  H10  1  0.55538056  0.54256673  0.36505342  1  0  0.146825  0  0.994879  0  0  0.151313  0  1.059005  0  0  0.156053  0  1.056681  0  0  0.11396  0.147778  0  1.060895  0
H  H11  1  0.44461713  0.95743310  0.86505305  1  0  0.146864  0  0.99486  0  0  0.15135  0  1.058987  0  0  0.156091  0  1.056662  0  0  0.113979  0.14782  0  1.060878  0
H  H12  1  0.48781225  0.67276379  0.52631640  1  0  0.084623  0  0.906126  0  0  0.095507  0  0.962036  0  0  0.097608  0  0.960536  0  0  0.125778  0.093733  0  0.963392  0
H  H13  1  0.51218460  0.82723622  0.02631677  1  0  0.084597  0  0.906092  0  0  0.095466  0  0.962006  0  0  0.097567  0  0.960505  0  0  0.125748  0.093688  0  0.963363  0
H  H14  1  0.51218506  0.32723982  0.47368195  1  0  0.084637  0  0.906082  0  0  0.095499  0  0.96199  0  0  0.097601  0  0.960488  0  0  0.125762  0.093723  0  0.963347  0
H  H15  1  0.48781728  0.17276301  0.97368305  1  0  0.084618  0  0.906084  0  0  0.095501  0  0.962005  0  0  0.097602  0  0.960504  0  0  0.125766  0.093728  0  0.963357  0
H  H16  1  0.96665391  0.15311346  0.41234329  1  0  0.112541  0  0.89657  0  0  0.119057  0  0.953647  0  0  0.122186  0  0.95045  0  0  0.134221  0.116532  0  0.956351  0
H  H17  1  0.03334450  0.34688381  0.91234155  1  0  0.112609  0  0.896507  0  0  0.119123  0  0.953582  0  0  0.122254  0  0.950382  0  0  0.134239  0.116596  0  0.956292  0
H  H18  1  0.03334341  0.84688349  0.58765949  1  0  0.112613  0  0.89649  0  0  0.11915  0  0.953543  0  0  0.122281  0  0.950341  0  0  0.134233  0.116623  0  0.956257  0
H  H19  1  0.96665567  0.65311207  0.08765901  1  0  0.112613  0  0.896514  0  0  0.119128  0  0.953588  0  0  0.12226  0  0.950387  0  0  0.134235  0.116604  0  0.956298  0
H  H20  1  0.85848879  0.95598718  0.27823025  1  0  0.142495  0  0.97121  0  0  0.145267  0  1.034915  0  0  0.150148  0  1.032748  0  0  0.116734  0.141665  0  1.036643  0
H  H21  1  0.14151011  0.54401494  0.77822924  1  0  0.142477  0  0.971207  0  0  0.145252  0  1.03491  0  0  0.150131  0  1.032748  0  0  0.116729  0.141662  0  1.036614  0
H  H22  1  0.14150852  0.04401421  0.72177105  1  0  0.14247  0  0.971265  0  0  0.145259  0  1.034948  0  0  0.150138  0  1.032786  0  0  0.116728  0.141667  0  1.036657  0
H  H23  1  0.85848948  0.45598648  0.22177133  1  0  0.142497  0  0.971252  0  0  0.145276  0  1.034932  0  0  0.150157  0  1.032765  0  0  0.116732  0.141681  0  1.03664  0
H  H24  1  0.53456617  0.78959548  0.27103734  1  0  0.105177  0  0.910749  0  0  0.113744  0  0.967617  0  0  0.116783  0  0.964738  0  0  0.132518  0.111425  0  0.969673  0
H  H25  1  0.46543388  0.71040443  0.77103919  1  0  0.105209  0  0.910751  0  0  0.113768  0  0.967629  0  0  0.116809  0  0.964745  0  0  0.132521  0.111445  0  0.969694  0
H  H26  1  0.46543171  0.21040481  0.72896248  1  0  0.10521  0  0.910731  0  0  0.113774  0  0.967608  0  0  0.116814  0  0.964729  0  0  0.13252  0.111453  0  0.969667  0
H  H27  1  0.53456743  0.28959368  0.22896211  1  0  0.105191  0  0.910742  0  0  0.113755  0  0.967619  0  0  0.116793  0  0.964745  0  0  0.132517  0.111438  0  0.969677  0
C  C28  1  0.07281371  0.49150933  0.52068783  1  0  0.34555  0  3.736482  0  0  0.317677  0  3.988181  0  0  0.332476  0  3.999022  0  0  0.270991  0.307468  0  3.981432  0
C  C29  1  0.92718505  0.00848816  0.02068885  1  0  0.345655  0  3.736368  0  0  0.317787  0  3.988067  0  0  0.332607  0  3.998906  0  0  0.271035  0.307586  0  3.981303  0
C  C30  1  0.92718418  0.50848875  0.47931126  1  0  0.34564  0  3.736393  0  0  0.317761  0  3.988084  0  0  0.332575  0  3.998923  0  0  0.271014  0.307557  0  3.981328  0
C  C31  1  0.07281570  0.99150883  0.97931245  1  0  0.345602  0  3.736414  0  0  0.317757  0  3.988103  0  0  0.332551  0  3.998947  0  0  0.270985  0.307549  0  3.981354  0
C  C32  1  0.16756227  0.35523469  0.61554509  1  0  0.200205  0  3.626317  0  0  0.163687  0  3.877931  0  0  0.174798  0  3.892065  0  0  0.080485  0.156388  0  3.869079  0
C  C33  1  0.83243754  0.14476498  0.11554613  1  0  0.200221  0  3.626264  0  0  0.163704  0  3.877874  0  0  0.174817  0  3.892009  0  0  0.080481  0.156413  0  3.86901  0
C  C34  1  0.83243676  0.64476562  0.38445031  1  0  0.200423  0  3.626158  0  0  0.163849  0  3.877767  0  0  0.174962  0  3.8919  0  0  0.080528  0.156557  0  3.868906  0
C  C35  1  0.16756377  0.85523535  0.88445443  1  0  0.200401  0  3.626236  0  0  0.163885  0  3.877839  0  0  0.174997  0  3.891972  0  0  0.080557  0.156586  0  3.868989  0
C  C36  1  0.33522714  0.46326290  0.60107504  1  0  -0.179557  0  3.654719  0  0  -0.192558  0  3.910041  0  0  -0.203701  0  3.929576  0  0  -0.076535  -0.186303  0  3.898154  0
C  C37  1  0.66477210  0.03674010  0.10107243  1  0  -0.179565  0  3.654743  0  0  -0.192545  0  3.910008  0  0  -0.203685  0  3.929536  0  0  -0.076513  -0.186283  0  3.898143  0
C  C38  1  0.66477073  0.53674183  0.39892552  1  0  -0.179577  0  3.654697  0  0  -0.192581  0  3.90999  0  0  -0.203722  0  3.929524  0  0  -0.07649  -0.186316  0  3.898127  0
C  C39  1  0.33522921  0.96326023  0.89892665  1  0  -0.179656  0  3.654721  0  0  -0.192638  0  3.910033  0  0  -0.203775  0  3.929557  0  0  -0.076521  -0.186374  0  3.89818  0
C  C40  1  0.35985410  0.58448758  0.54175160  1  0  0.223965  0  3.620393  0  0  0.185657  0  3.883818  0  0  0.197209  0  3.896635  0  0  0.085365  0.177976  0  3.875888  0
C  C41  1  0.64014559  0.91551357  0.04175194  1  0  0.22389  0  3.620522  0  0  0.185647  0  3.883886  0  0  0.1972  0  3.896708  0  0  0.085347  0.177962  0  3.875951  0
C  C42  1  0.64014549  0.41551606  0.45824674  1  0  0.223892  0  3.620452  0  0  0.185675  0  3.883793  0  0  0.197228  0  3.896611  0  0  0.085383  0.177989  0  3.875859  0
C  C43  1  0.35985629  0.08448566  0.95824788  1  0  0.223981  0  3.620381  0  0  0.185686  0  3.883816  0  0  0.197239  0  3.896634  0  0  0.085389  0.178006  0  3.875882  0
C  C44  1  0.55901833  0.99395454  0.46300687  1  0  0.311528  0  3.736063  0  0  0.286925  0  3.986825  0  0  0.299402  0  4.001491  0  0  0.262037  0.278931  0  3.976417  0
C  C45  1  0.44098670  0.50604200  0.96300430  1  0  0.311561  0  3.73609  0  0  0.286885  0  3.986974  0  0  0.299357  0  4.001641  0  0  0.262027  0.278896  0  3.976552  0
C  C46  1  0.44098127  0.00604244  0.53699590  1  0  0.311452  0  3.736113  0  0  0.286771  0  3.986958  0  0  0.299246  0  4.001627  0  0  0.261975  0.278788  0  3.976538  0
C  C47  1  0.55902033  0.49395396  0.03699331  1  0  0.311592  0  3.735917  0  0  0.286909  0  3.986799  0  0  0.299384  0  4.001465  0  0  0.262022  0.278924  0  3.97638  0
C  C48  1  0.83170338  0.07498269  0.40570968  1  0  0.230873  0  3.571869  0  0  0.193712  0  3.830114  0  0  0.205587  0  3.841673  0  0  0.094223  0.185542  0  3.822709  0
C  C49  1  0.16829503  0.42501680  0.90571085  1  0  0.230807  0  3.571829  0  0  0.19367  0  3.830034  0  0  0.205542  0  3.841591  0  0  0.094222  0.185496  0  3.822634  0
C  C50  1  0.16829337  0.92501536  0.59429162  1  0  0.230789  0  3.571818  0  0  0.193624  0  3.830026  0  0  0.2055  0  3.841586  0  0  0.094213  0.185454  0  3.822626  0
C  C51  1  0.83170513  0.57498352  0.09429119  1  0  0.230809  0  3.571849  0  0  0.193652  0  3.830057  0  0  0.205526  0  3.841617  0  0  0.094206  0.185472  0  3.822661  0
C  C52  1  0.77149001  0.96743701  0.33115618  1  0  -0.160158  0  3.637394  0  0  -0.169661  0  3.890451  0  0  -0.181307  0  3.910822  0  0  -0.065704  -0.162327  0  3.877181  0
C  C53  1  0.22850772  0.53256063  0.83115588  1  0  -0.160122  0  3.637321  0  0  -0.169622  0  3.890335  0  0  -0.18127  0  3.910709  0  0  -0.065682  -0.162288  0  3.877079  0
C  C54  1  0.22850788  0.03256106  0.66884586  1  0  -0.160118  0  3.637388  0  0  -0.169622  0  3.890406  0  0  -0.18127  0  3.91078  0  0  -0.065695  -0.162287  0  3.877151  0
C  C55  1  0.77149246  0.46743747  0.16884394  1  0  -0.160187  0  3.637425  0  0  -0.169666  0  3.890426  0  0  -0.181312  0  3.910799  0  0  -0.065704  -0.162322  0  3.877155  0
C  C56  1  0.59626069  0.87566637  0.32697901  1  0  0.193918  0  3.619917  0  0  0.156897  0  3.87522  0  0  0.166813  0  3.890895  0  0  0.083219  0.150869  0  3.864282  0
C  C57  1  0.40373817  0.62433350  0.82698013  1  0  0.193822  0  3.619936  0  0  0.156796  0  3.875228  0  0  0.166712  0  3.890906  0  0  0.083174  0.15076  0  3.864299  0
C  C58  1  0.40373605  0.12433390  0.67302081  1  0  0.193832  0  3.619901  0  0  0.156792  0  3.875214  0  0  0.166707  0  3.890891  0  0  0.08321  0.150762  0  3.864278  0
C  C59  1  0.59626314  0.37566683  0.17302190  1  0  0.193872  0  3.619926  0  0  0.156827  0  3.875223  0  0  0.166743  0  3.890899  0  0  0.083195  0.150791  0  3.864293  0
S  S60  1  0.17965686  0.47848849  0.27149784  1  0  1.554787  0  5.854985  0  0  1.443674  0  6.389972  0  0  1.499926  0  6.354533  0  0  0.535604  1.403645  0  6.413135  0
S  S61  1  0.82034338  0.02151220  0.77150034  1  0  1.554831  0  5.854955  0  0  1.443715  0  6.389944  0  0  1.499978  0  6.354485  0  0  0.535588  1.403687  0  6.41311  0
S  S62  1  0.82034388  0.52151294  0.72849977  1  0  1.554894  0  5.854948  0  0  1.443788  0  6.389929  0  0  1.500042  0  6.354485  0  0  0.535622  1.403769  0  6.41308  0
S  S63  1  0.17965849  0.97849146  0.22850244  1  0  1.55486  0  5.854972  0  0  1.443734  0  6.389967  0  0  1.499995  0  6.354509  0  0  0.535618  1.403693  0  6.413148  0
N  N64  1  0.22929300  0.59900004  0.50166352  1  0  -0.366717  0  3.202048  0  0  -0.309051  0  3.472565  0  0  -0.327048  0  3.485213  0  0  -0.298945  -0.297712  0  3.464503  0
N  N65  1  0.77070559  0.90099668  0.00166604  1  0  -0.36669  0  3.202084  0  0  -0.309089  0  3.472622  0  0  -0.3271  0  3.485276  0  0  -0.298946  -0.297747  0  3.46455  0
N  N66  1  0.77070432  0.40099691  0.49833409  1  0  -0.366699  0  3.202069  0  0  -0.309102  0  3.472587  0  0  -0.327107  0  3.485237  0  0  -0.298963  -0.297757  0  3.464515  0
N  N67  1  0.22929401  0.09900031  0.99833600  1  0  -0.366727  0  3.20207  0  0  -0.30911  0  3.472621  0  0  -0.327107  0  3.48527  0  0  -0.298948  -0.297768  0  3.46456  0
N  N68  1  0.96264145  0.63073727  0.42547699  1  0  -0.353339  0  3.237245  0  0  -0.279521  0  3.500307  0  0  -0.298894  0  3.512027  0  0  -0.309161  -0.267214  0  3.493077  0
N  N69  1  0.03735676  0.86926143  0.92547746  1  0  -0.353288  0  3.237271  0  0  -0.279557  0  3.500419  0  0  -0.298923  0  3.51214  0  0  -0.309167  -0.26725  0  3.493198  0
N  N70  1  0.03735530  0.36926079  0.57452062  1  0  -0.353125  0  3.237354  0  0  -0.27936  0  3.500425  0  0  -0.298725  0  3.512146  0  0  -0.309092  -0.267056  0  3.493205  0
N  N71  1  0.96264626  0.13073781  0.07452310  1  0  -0.353185  0  3.237218  0  0  -0.279416  0  3.500304  0  0  -0.298793  0  3.51203  0  0  -0.309112  -0.267114  0  3.493075  0
N  N72  1  0.49038580  0.88905807  0.39305119  1  0  -0.353983  0  3.239831  0  0  -0.281514  0  3.505927  0  0  -0.300658  0  3.519287  0  0  -0.30425  -0.268926  0  3.496743  0
N  N73  1  0.50961644  0.61094181  0.89305008  1  0  -0.353908  0  3.239821  0  0  -0.281396  0  3.505904  0  0  -0.300542  0  3.519267  0  0  -0.304178  -0.268802  0  3.496708  0
N  N74  1  0.50961266  0.11094112  0.60694937  1  0  -0.3539  0  3.239789  0  0  -0.2814  0  3.50589  0  0  -0.300544  0  3.519252  0  0  -0.304239  -0.268811  0  3.496696  0
N  N75  1  0.49038715  0.38905855  0.10695048  1  0  -0.354003  0  3.239768  0  0  -0.281497  0  3.505875  0  0  -0.30064  0  3.519234  0  0  -0.304259  -0.268911  0  3.496691  0
N  N76  1  0.27507741  0.91228009  0.52870276  1  0  -0.33758  0  3.162126  0  0  -0.278506  0  3.425434  0  0  -0.295766  0  3.438862  0  0  -0.290594  -0.266986  0  3.416055  0
N  N77  1  0.72492229  0.58771884  0.02870309  1  0  -0.337659  0  3.162064  0  0  -0.278573  0  3.425374  0  0  -0.295835  0  3.438802  0  0  -0.29063  -0.267053  0  3.416  0
N  N78  1  0.72491991  0.08771908  0.47129780  1  0  -0.337659  0  3.162111  0  0  -0.278593  0  3.425406  0  0  -0.295855  0  3.438834  0  0  -0.290675  -0.267072  0  3.416029  0
N  N79  1  0.27508244  0.41228153  0.97129747  1  0  -0.337682  0  3.162186  0  0  -0.278616  0  3.425504  0  0  -0.295867  0  3.438926  0  0  -0.290687  -0.267095  0  3.416125  0
O  O80  1  0.21442540  0.64049121  0.26859497  1  0  -0.745975  0  2.008168  0  0  -0.678091  0  2.291767  0  0  -0.701989  0  2.269751  0  0  -0.378793  -0.660611  0  2.306869  0
O  O81  1  0.78557465  0.85951092  0.76859672  1  0  -0.745991  0  2.008248  0  0  -0.678078  0  2.291819  0  0  -0.701968  0  2.269775  0  0  -0.378763  -0.660604  0  2.306932  0
O  O82  1  0.78557134  0.35950906  0.73140264  1  0  -0.746014  0  2.008124  0  0  -0.67812  0  2.29171  0  0  -0.70201  0  2.26968  0  0  -0.378789  -0.660648  0  2.306819  0
O  O83  1  0.21442722  0.14049274  0.23140531  1  0  -0.746042  0  2.008259  0  0  -0.678134  0  2.291829  0  0  -0.702035  0  2.269807  0  0  -0.378796  -0.660653  0  2.306943  0
O  O84  1  0.17602846  0.43536387  0.16426615  1  0  -0.755488  0  2.02722  0  0  -0.687711  0  2.308284  0  0  -0.712528  0  2.288224  0  0  -0.383818  -0.668427  0  2.321013  0
O  O85  1  0.82397302  0.06463468  0.66426791  1  0  -0.755476  0  2.027279  0  0  -0.687718  0  2.308378  0  0  -0.712538  0  2.288315  0  0  -0.383788  -0.668426  0  2.321094  0
O  O86  1  0.82397457  0.56463537  0.83573220  1  0  -0.755471  0  2.027248  0  0  -0.687719  0  2.308334  0  0  -0.712537  0  2.288276  0  0  -0.383806  -0.668429  0  2.321047  0
O  O87  1  0.17603170  0.93536791  0.33573413  1  0  -0.755463  0  2.027219  0  0  -0.687702  0  2.308306  0  0  -0.712519  0  2.288242  0  0  -0.383829  -0.668413  0  2.321042  0
O  O88  1  0.31616380  0.46343050  0.32489009  1  0  -0.728648  0  1.925171  0  0  -0.68544  0  2.172676  0  0  -0.707125  0  2.157505  0  0  -0.378553  -0.668876  0  2.182491  0
O  O89  1  0.68383241  0.03656679  0.82489188  1  0  -0.728704  0  1.925023  0  0  -0.685481  0  2.172523  0  0  -0.707173  0  2.157349  0  0  -0.378586  -0.668913  0  2.182334  0
O  O90  1  0.68383352  0.53656868  0.67510974  1  0  -0.728747  0  1.925127  0  0  -0.685528  0  2.172629  0  0  -0.707216  0  2.157461  0  0  -0.37859  -0.668971  0  2.182441  0
O  O91  1  0.31616661  0.96343351  0.17511163  1  0  -0.728697  0  1.925117  0  0  -0.685475  0  2.17263  0  0  -0.707167  0  2.157457  0  0  -0.378582  -0.668906  0  2.182449  0
O  O92  1  0.00901095  0.38594117  0.31555213  1  0  -0.741002  0  1.893091  0  0  -0.694266  0  2.137238  0  0  -0.718796  0  2.124882  0  0  -0.373826  -0.675053  0  2.144446  0
O  O93  1  0.99098812  0.11405726  0.81555605  1  0  -0.741018  0  1.89309  0  0  -0.694308  0  2.137287  0  0  -0.718844  0  2.124923  0  0  -0.373839  -0.675092  0  2.144491  0
O  O94  1  0.99098751  0.61405801  0.68444327  1  0  -0.741  0  1.893105  0  0  -0.694292  0  2.137304  0  0  -0.718825  0  2.124944  0  0  -0.37383  -0.675084  0  2.144511  0
O  O95  1  0.00901148  0.88594194  0.18445041  1  0  -0.741021  0  1.893107  0  0  -0.694286  0  2.137259  0  0  -0.718818  0  2.124898  0  0  -0.3738  -0.675061  0  2.144466  0
