# generated using pymatgen
data_Si2NiH70C30S2(NO3)2
_symmetry_space_group_name_H-M   'P 1'
_cell_length_a   8.67368721
_cell_length_b   9.24601572
_cell_length_c   14.14388762
_cell_angle_alpha   99.70369296
_cell_angle_beta   103.16433665
_cell_angle_gamma   103.05063796
_symmetry_Int_Tables_number   1
_chemical_formula_structural   Si2NiH70C30S2(NO3)2
_chemical_formula_sum   'Si2 Ni1 H70 C30 S2 N2 O6'
_cell_volume   1046.62865372
_cell_formula_units_Z   1
loop_
 _symmetry_equiv_pos_site_id
 _symmetry_equiv_pos_as_xyz
  1  'x, y, z'
loop_
 _atom_site_type_symbol
 _atom_site_label
 _atom_site_symmetry_multiplicity
 _atom_site_fract_x
 _atom_site_fract_y
 _atom_site_fract_z
 _atom_site_occupancy
 _atom_site_pbe_bader_spin_density
 _atom_site_pbe_cm5_charge
 _atom_site_pbe_ddec_charge
 _atom_site_pbe_ddec_spin_density
 _atom_site_pbe_ddec_sum_bond_order
 _atom_site_pbe_magmom
Si  Si0  1  0.32175835  0.48190947  0.75680205  1  0  0.324111  1.266702  0  4.258727  0
Si  Si1  1  0.67823975  0.51809039  0.24319720  1  0  0.324107  1.266715  0  4.258731  0
Ni  Ni2  1  0.49999962  0.49999866  0.99999942  1  0  0.435692  0.394709  0  2.899941  0
H  H3  1  0.25071016  0.35396185  0.02691795  1  0  0.284401  0.263362  0  0.96277  0
H  H4  1  0.74929230  0.64603683  0.97308177  1  0  0.284426  0.263423  0  0.962664  0
H  H5  1  0.23393165  0.33028148  0.90461086  1  0  0.289893  0.274954  0  0.99398  0
H  H6  1  0.76606679  0.66971953  0.09538786  1  0  0.289891  0.274899  0  0.994043  0
H  H7  1  0.50797045  0.32814648  0.54970422  1  0  0.089102  0.130291  0  1.007121  0
H  H8  1  0.49202610  0.67185225  0.45029328  1  0  0.089095  0.130273  0  1.007093  0
H  H9  1  0.43381631  0.12761924  0.53632240  1  0  0.084617  0.119135  0  1.012126  0
H  H10  1  0.56618142  0.87237949  0.46367597  1  0  0.084616  0.119134  0  1.012187  0
H  H11  1  0.51655867  0.25181527  0.65789689  1  0  0.084299  0.127303  0  1.042307  0
H  H12  1  0.48344212  0.74818571  0.34210074  1  0  0.084312  0.127316  0  1.042371  0
H  H13  1  0.05063126  0.26728631  0.47761881  1  0  0.087794  0.12263  0  1.031009  0
H  H14  1  0.94936286  0.73270444  0.52238101  1  0  0.087787  0.122633  0  1.031041  0
H  H15  1  0.15009055  0.13687620  0.42678541  1  0  0.086822  0.121978  0  1.011268  0
H  H16  1  0.84990629  0.86311567  0.57321562  1  0  0.086874  0.122026  0  1.011223  0
H  H17  1  0.23382292  0.33730403  0.44384138  1  0  0.089227  0.129266  0  1.013813  0
H  H18  1  0.76617000  0.66268673  0.55615544  1  0  0.089218  0.129221  0  1.013788  0
H  H19  1  0.25259337  0.14650697  0.70314819  1  0  0.08734  0.122079  0  1.044489  0
H  H20  1  0.74741217  0.85349397  0.29685362  1  0  0.087343  0.122078  0  1.044558  0
H  H21  1  0.16613665  0.02320505  0.58201251  1  0  0.088481  0.129606  0  1.015759  0
H  H22  1  0.83386500  0.97679478  0.41799006  1  0  0.088514  0.129633  0  1.015695  0
H  H23  1  0.06004925  0.15145981  0.62741313  1  0  0.087142  0.122425  0  1.025994  0
H  H24  1  0.93995559  0.84853885  0.37259046  1  0  0.087154  0.122405  0  1.025969  0
H  H25  1  0.27519807  0.63565773  0.56785826  1  0  0.092361  0.140241  0  1.019547  0
H  H26  1  0.72480275  0.36434326  0.43214362  1  0  0.092359  0.140229  0  1.019595  0
H  H27  1  0.35629046  0.83351131  0.57336145  1  0  0.085733  0.121334  0  1.019186  0
H  H28  1  0.64371308  0.16649079  0.42664163  1  0  0.085722  0.121316  0  1.01919  0
H  H29  1  0.18561093  0.77326474  0.62111268  1  0  0.086622  0.121892  0  1.032584  0
H  H30  1  0.81439296  0.22673850  0.37889128  1  0  0.086632  0.121901  0  1.032542  0
H  H31  1  0.32947707  0.94749181  0.78855243  1  0  0.090061  0.128387  0  1.019151  0
H  H32  1  0.67053037  0.05251140  0.21145343  1  0  0.090094  0.1284  0  1.019131  0
H  H33  1  0.50052343  0.01863389  0.74370580  1  0  0.089026  0.129948  0  1.007634  0
H  H34  1  0.49948460  0.98136359  0.25629738  1  0  0.08904  0.129965  0  1.007628  0
H  H35  1  0.53086834  0.94720206  0.85359366  1  0  0.088  0.125724  0  1.018713  0
H  H36  1  0.46913780  0.05279315  0.14640760  1  0  0.087938  0.125637  0  1.018722  0
H  H37  1  0.66120626  0.74693592  0.78086256  1  0  0.085077  0.118435  0  1.045465  0
H  H38  1  0.33879412  0.25305591  0.21913824  1  0  0.085082  0.118494  0  1.045469  0
H  H39  1  0.64668990  0.82993558  0.67526112  1  0  0.086679  0.127457  0  1.010519  0
H  H40  1  0.35331354  0.17005851  0.32473965  1  0  0.08667  0.127461  0  1.010641  0
H  H41  1  0.56220905  0.63015827  0.65885973  1  0  0.091165  0.128328  0  1.027017  0
H  H42  1  0.43778530  0.36983705  0.34114063  1  0  0.091156  0.128336  0  1.026947  0
H  H43  1  0.06183090  0.57073585  0.93197994  1  0  0.085871  0.125209  0  1.007245  0
H  H44  1  0.93816470  0.42926747  0.06801935  1  0  0.085894  0.125247  0  1.007171  0
H  H45  1  0.88669231  0.59595338  0.84805633  1  0  0.082581  0.118954  0  1.042022  0
H  H46  1  0.11330530  0.40404877  0.15194312  1  0  0.082571  0.118971  0  1.041981  0
H  H47  1  0.09043305  0.67801338  0.84080587  1  0  0.091574  0.134604  0  1.020209  0
H  H48  1  0.90956562  0.32199221  0.15919410  1  0  0.091572  0.134612  0  1.020225  0
H  H49  1  0.88347846  0.18896224  0.75121234  1  0  0.084911  0.121486  0  1.00695  0
H  H50  1  0.11651950  0.81104106  0.24878587  1  0  0.084932  0.121508  0  1.006948  0
H  H51  1  0.76414851  0.30608297  0.79538716  1  0  0.081818  0.134002  0  1.042544  0
H  H52  1  0.23584791  0.69391920  0.20461141  1  0  0.081825  0.134037  0  1.042532  0
H  H53  1  0.93905944  0.28499600  0.87950125  1  0  0.084599  0.120829  0  1.016939  0
H  H54  1  0.06093699  0.71500617  0.12049803  1  0  0.084614  0.12088  0  1.016884  0
H  H55  1  0.00821228  0.54124554  0.65621991  1  0  0.096345  0.137332  0  1.014407  0
H  H56  1  0.99179619  0.45876110  0.34378223  1  0  0.096366  0.137361  0  1.01444  0
H  H57  1  0.80553630  0.46365209  0.66462087  1  0  0.092086  0.134658  0  1.009151  0
H  H58  1  0.19447179  0.53635340  0.33537827  1  0  0.092092  0.134651  0  1.009099  0
H  H59  1  0.91693932  0.34040112  0.61992884  1  0  0.089539  0.129215  0  1.013232  0
H  H60  1  0.08306642  0.65960439  0.38006997  1  0  0.089533  0.129213  0  1.013241  0
H  H61  1  0.42287856  0.18934687  0.04758770  1  0  0.102493  0.077127  0  1.010411  0
H  H62  1  0.57712118  0.81065069  0.95240941  1  0  0.102506  0.077108  0  1.010399  0
H  H63  1  0.41663510  0.16569999  0.91972418  1  0  0.097462  0.077696  0  1.018167  0
H  H64  1  0.58336382  0.83429872  0.08027365  1  0  0.09745  0.077599  0  1.01816  0
H  H65  1  0.11717312  0.03835768  0.86787116  1  0  0.092233  0.088401  0  0.978257  0
H  H66  1  0.88282766  0.96164330  0.13212505  1  0  0.092232  0.08841  0  0.97825  0
H  H67  1  0.22415462  0.94192299  0.94588832  1  0  0.095921  0.09703  0  0.980637  0
H  H68  1  0.77584158  0.05807461  0.05410901  1  0  0.095913  0.09701  0  0.980676  0
H  H69  1  0.04374239  0.17297026  0.01579990  1  0  0.086519  0.072001  0  1.022373  0
H  H70  1  0.95625671  0.82703303  0.98419422  1  0  0.086522  0.07201  0  1.022354  0
H  H71  1  0.14834421  0.07316625  0.09200046  1  0  0.088374  0.082247  0  0.991999  0
H  H72  1  0.85165255  0.92683706  0.90799475  1  0  0.088369  0.082252  0  0.991982  0
C  C73  1  0.27225286  0.25845910  0.58121311  1  0  0.079941  0.486818  0  3.78363  0
C  C74  1  0.72774488  0.74153962  0.41878597  1  0  0.079948  0.486821  0  3.783579  0
C  C75  1  0.44326485  0.24024935  0.58128516  1  0  -0.248515  -0.463186  0  3.883621  0
C  C76  1  0.55673547  0.75975393  0.41871407  1  0  -0.248517  -0.463179  0  3.88369  0
C  C77  1  0.17069205  0.24914117  0.47575804  1  0  -0.244241  -0.449801  0  3.878168  0
C  C78  1  0.82930501  0.75085528  0.52424282  1  0  -0.244291  -0.449825  0  3.878162  0
C  C79  1  0.18211779  0.13773895  0.62638209  1  0  -0.246511  -0.473363  0  3.888  0
C  C80  1  0.81788539  0.86226201  0.37362011  1  0  -0.246564  -0.473383  0  3.887927  0
C  C81  1  0.41822203  0.77097695  0.71592493  1  0  0.081259  0.490547  0  3.773914  0
C  C82  1  0.58178045  0.22902173  0.28407763  1  0  0.081295  0.490675  0  3.773943  0
C  C83  1  0.30174753  0.75178102  0.61281937  1  0  -0.248274  -0.472708  0  3.887919  0
C  C84  1  0.69825245  0.24822112  0.38718111  1  0  -0.248268  -0.472699  0  3.887961  0
C  C85  1  0.44687199  0.93067515  0.77933167  1  0  -0.244824  -0.452762  0  3.872893  0
C  C86  1  0.55313569  0.06932119  0.22067134  1  0  -0.24484  -0.452748  0  3.872738  0
C  C87  1  0.58201022  0.74261514  0.70728571  1  0  -0.247782  -0.478271  0  3.903121  0
C  C88  1  0.41798968  0.25737899  0.29271669  1  0  -0.247761  -0.47836  0  3.903244  0
C  C89  1  0.99694606  0.43326377  0.78074679  1  0  0.08503  0.490815  0  3.762869  0
C  C90  1  0.00305309  0.56673952  0.21925511  1  0  0.084987  0.490702  0  3.762799  0
C  C91  1  0.00995309  0.57910662  0.85517965  1  0  -0.251017  -0.468136  0  3.884697  0
C  C92  1  0.99004535  0.42089439  0.14482049  1  0  -0.25104  -0.468194  0  3.884629  0
C  C93  1  0.88939575  0.29458174  0.80273005  1  0  -0.248346  -0.449837  0  3.868823  0
C  C94  1  0.11060255  0.70542270  0.19726692  1  0  -0.248316  -0.449851  0  3.868623  0
C  C95  1  0.92830619  0.44536429  0.67376933  1  0  -0.243572  -0.466174  0  3.864774  0
C  C96  1  0.07169415  0.55463899  0.32623273  1  0  -0.243605  -0.466192  0  3.864754  0
C  C97  1  0.34403658  0.18078836  0.97294997  1  0  -0.076143  -0.002492  0  3.892743  0
C  C98  1  0.65596351  0.81921034  0.02704801  1  0  -0.07615  -0.002423  0  3.892683  0
C  C99  1  0.18798095  0.04874681  0.94534624  1  0  -0.166827  -0.179171  0  3.958696  0
C  C100  1  0.81201748  0.95125419  0.05465036  1  0  -0.166831  -0.179167  0  3.958748  0
C  C101  1  0.07849463  0.06532505  0.01477115  1  0  -0.167662  -0.143682  0  3.955845  0
C  C102  1  0.92149977  0.93467828  0.98522516  1  0  -0.167636  -0.143634  0  3.955788  0
S  S103  1  0.52176795  0.42846876  0.84462237  1  0  -0.242909  -0.677228  0  2.425633  0
S  S104  1  0.47823027  0.57152767  0.15537652  1  0  -0.242908  -0.677218  0  2.425645  0
N  N105  1  0.30850766  0.32987060  0.97300834  1  0  -0.635813  -0.474854  0  3.528414  0
N  N106  1  0.69149364  0.67012809  0.02699334  1  0  -0.635815  -0.474804  0  3.528321  0
O  O107  1  0.29198670  0.41131348  0.63674686  1  0  -0.258939  -0.571703  0  2.390283  0
O  O108  1  0.70801223  0.58868523  0.36325309  1  0  -0.258918  -0.571683  0  2.390235  0
O  O109  1  0.33728606  0.66563200  0.76687354  1  0  -0.26264  -0.580315  0  2.367484  0
O  O110  1  0.66271287  0.33436671  0.23312712  1  0  -0.262654  -0.580412  0  2.367624  0
O  O111  1  0.16023743  0.40913435  0.79535664  1  0  -0.260354  -0.584144  0  2.421396  0
O  O112  1  0.83976137  0.59086780  0.20464508  1  0  -0.260374  -0.584121  0  2.421341  0
