# generated using pymatgen
data_CuH8C9S2IN4
_symmetry_space_group_name_H-M   'P 1'
_cell_length_a   9.17980216
_cell_length_b   9.17977737
_cell_length_c   16.10848400
_cell_angle_alpha   96.21078050
_cell_angle_beta   96.21076238
_cell_angle_gamma   101.41563673
_symmetry_Int_Tables_number   1
_chemical_formula_structural   CuH8C9S2IN4
_chemical_formula_sum   'Cu4 H32 C36 S8 I4 N16'
_cell_volume   1311.02418955
_cell_formula_units_Z   4
loop_
 _symmetry_equiv_pos_site_id
 _symmetry_equiv_pos_as_xyz
  1  'x, y, z'
loop_
 _atom_site_type_symbol
 _atom_site_label
 _atom_site_symmetry_multiplicity
 _atom_site_fract_x
 _atom_site_fract_y
 _atom_site_fract_z
 _atom_site_occupancy
 _atom_site_hle17_bader_spin_density
 _atom_site_hle17_ddec_charge
 _atom_site_hle17_ddec_spin_density
 _atom_site_hle17_ddec_sum_bond_order
 _atom_site_hle17_magmom
 _atom_site_hse06_10hf_bader_charge
 _atom_site_hse06_10hf_bader_spin_density
 _atom_site_hse06_10hf_ddec_charge
 _atom_site_hse06_10hf_ddec_spin_density
 _atom_site_hse06_10hf_ddec_sum_bond_order
 _atom_site_hse06_10hf_magmom
 _atom_site_hse06_bader_spin_density
 _atom_site_hse06_ddec_charge
 _atom_site_hse06_ddec_spin_density
 _atom_site_hse06_ddec_sum_bond_order
 _atom_site_hse06_magmom
 _atom_site_pbe_bader_spin_density
 _atom_site_pbe_cm5_charge
 _atom_site_pbe_ddec_charge
 _atom_site_pbe_ddec_spin_density
 _atom_site_pbe_ddec_sum_bond_order
 _atom_site_pbe_magmom
Cu  Cu0  1  0.09295318  0.56789582  0.42815332  1  0  0.349341  0  2.136379  0  0.542107  0  0.262672  0  2.607479  0  0  0.263362  0  2.56252  0  0  0.375798  0.265953  0  2.635089  0
Cu  Cu1  1  0.43210256  0.90704492  0.07184639  1  0  0.349274  0  2.136331  0  0.542179  0  0.262709  0  2.607465  0  0  0.263337  0  2.562475  0  0  0.375769  0.265942  0  2.635052  0
Cu  Cu2  1  0.90704996  0.43210788  0.57184584  1  0  0.34938  0  2.136363  0  0.54208  0  0.262694  0  2.607464  0  0  0.263385  0  2.5625  0  0  0.375798  0.265972  0  2.635072  0
Cu  Cu3  1  0.56789569  0.09295094  0.92815510  1  0  0.349335  0  2.13634  0  0.542102  0  0.262744  0  2.607482  0  0  0.263381  0  2.562492  0  0  0.375824  0.265982  0  2.635072  0
H  H4  1  0.82990531  0.98443557  0.34884598  1  0  0.111738  0  0.989118  0  0.090961  0  0.121239  0  1.050451  0  0  0.12487  0  1.050169  0  0  0.091041  0.11861  0  1.050855  0
H  H5  1  0.01555787  0.17009756  0.15115248  1  0  0.11166  0  0.989124  0  0.090913  0  0.121148  0  1.050485  0  0  0.124777  0  1.050207  0  0  0.090978  0.118518  0  1.05089  0
H  H6  1  0.17009713  0.01556475  0.65114983  1  0  0.111741  0  0.989072  0  0.091056  0  0.121235  0  1.05042  0  0  0.124866  0  1.050139  0  0  0.091052  0.118608  0  1.050826  0
H  H7  1  0.98443341  0.82990161  0.84885004  1  0  0.111697  0  0.989168  0  0.091066  0  0.12121  0  1.050493  0  0  0.12484  0  1.050214  0  0  0.091022  0.11858  0  1.050899  0
H  H8  1  0.82054748  0.90720786  0.19275643  1  0  0.064038  0  0.981139  0  0.096936  0  0.071427  0  1.051392  0  0  0.074238  0  1.048426  0  0  0.094571  0.069198  0  1.053707  0
H  H9  1  0.09278416  0.17945381  0.30724061  1  0  0.064225  0  0.980886  0  0.096903  0  0.07147  0  1.051295  0  0  0.07428  0  1.048333  0  0  0.094575  0.069243  0  1.053608  0
H  H10  1  0.17945114  0.09278460  0.80723868  1  0  0.064112  0  0.981018  0  0.096809  0  0.071377  0  1.051405  0  0  0.074186  0  1.048443  0  0  0.09454  0.06915  0  1.053721  0
H  H11  1  0.90721391  0.82054651  0.69275990  1  0  0.064133  0  0.981041  0  0.096923  0  0.071388  0  1.051429  0  0  0.074199  0  1.048463  0  0  0.094532  0.069162  0  1.053743  0
H  H12  1  0.94097885  0.82454840  0.44789699  1  0  0.076264  0  0.946313  0  0.149877  0  0.084696  0  1.011702  0  0  0.088037  0  1.007694  0  0  0.104353  0.082166  0  1.014635  0
H  H13  1  0.17544511  0.05902328  0.05210018  1  0  0.076288  0  0.946289  0  0.150051  0  0.084687  0  1.011722  0  0  0.088025  0  1.007712  0  0  0.10435  0.082157  0  1.014654  0
H  H14  1  0.05902279  0.17545865  0.55210228  1  0  0.076299  0  0.946294  0  0.14987  0  0.084726  0  1.011698  0  0  0.088069  0  1.007686  0  0  0.10438  0.082196  0  1.014632  0
H  H15  1  0.82454014  0.94096801  0.94790026  1  0  0.076296  0  0.946307  0  0.149762  0  0.084725  0  1.011721  0  0  0.088064  0  1.007713  0  0  0.104374  0.082193  0  1.014658  0
H  H16  1  0.68229168  0.73734893  0.08196561  1  0  0.078695  0  0.938276  0  0.138513  0  0.087233  0  1.004155  0  0  0.090274  0  1.000111  0  0  0.112978  0.084873  0  1.007231  0
H  H17  1  0.26264796  0.31771421  0.41803385  1  0  0.07861  0  0.938313  0  0.138547  0  0.087169  0  1.004154  0  0  0.090209  0  1.000114  0  0  0.112973  0.084811  0  1.007225  0
H  H18  1  0.31771181  0.26264581  0.91803241  1  0  0.078556  0  0.938279  0  0.138518  0  0.087118  0  1.00413  0  0  0.090158  0  1.00009  0  0  0.112944  0.084759  0  1.007204  0
H  H19  1  0.73735259  0.68229284  0.58196535  1  0  0.078652  0  0.938272  0  0.138473  0  0.087195  0  1.004149  0  0  0.090235  0  1.000107  0  0  0.112965  0.084837  0  1.007222  0
H  H20  1  0.46510252  0.30263128  0.13665406  1  0  0.080927  0  0.939875  0  0.088357  0  0.087029  0  1.005547  0  0  0.090215  0  1.001924  0  0  0.107542  0.084528  0  1.008353  0
H  H21  1  0.69736509  0.53490621  0.36334616  1  0  0.080858  0  0.939822  0  0.088396  0  0.086934  0  1.005539  0  0  0.090116  0  1.001926  0  0  0.107506  0.084435  0  1.008341  0
H  H22  1  0.53490583  0.69736574  0.86334625  1  0  0.080879  0  0.939803  0  0.088408  0  0.086944  0  1.005513  0  0  0.090125  0  1.001899  0  0  0.107499  0.084444  0  1.008322  0
H  H23  1  0.30263727  0.46510423  0.63665770  1  0  0.080878  0  0.939868  0  0.088492  0  0.086939  0  1.005577  0  0  0.090122  0  1.001958  0  0  0.107495  0.084441  0  1.008383  0
H  H24  1  0.70285445  0.47717931  0.11733266  1  0  0.118265  0  0.965422  0  0.104425  0  0.12616  0  1.029887  0  0  0.130047  0  1.02867  0  0  0.103023  0.123286  0  1.031039  0
H  H25  1  0.52281826  0.29715093  0.38266744  1  0  0.118276  0  0.965467  0  0.104537  0  0.126147  0  1.029959  0  0  0.130038  0  1.028758  0  0  0.103003  0.123273  0  1.031113  0
H  H26  1  0.29714879  0.52281430  0.88266342  1  0  0.118319  0  0.965368  0  0.104428  0  0.126245  0  1.029802  0  0  0.130129  0  1.028612  0  0  0.103043  0.123363  0  1.030951  0
H  H27  1  0.47718450  0.70285614  0.61733501  1  0  0.118237  0  0.965462  0  0.104414  0  0.126132  0  1.02992  0  0  0.130035  0  1.028689  0  0  0.103021  0.123261  0  1.031075  0
H  H28  1  0.92582907  0.51498923  0.09711748  1  0  0.114527  0  0.96357  0  0.107555  0  0.123659  0  1.032507  0  0  0.125693  0  1.030933  0  0  0.099185  0.122171  0  1.033698  0
H  H29  1  0.48500534  0.07417869  0.40288009  1  0  0.114491  0  0.963627  0  0.107401  0  0.123654  0  1.032529  0  0  0.125689  0  1.030955  0  0  0.099163  0.122162  0  1.033723  0
H  H30  1  0.07417489  0.48500776  0.90288257  1  0  0.114472  0  0.963565  0  0.107704  0  0.12358  0  1.032541  0  0  0.125615  0  1.030967  0  0  0.099136  0.122094  0  1.033729  0
H  H31  1  0.51499739  0.92582836  0.59711801  1  0  0.114475  0  0.963569  0  0.107724  0  0.123601  0  1.032529  0  0  0.125634  0  1.030958  0  0  0.099142  0.122111  0  1.033722  0
H  H32  1  0.06181602  0.39908195  0.09257714  1  0  0.124599  0  0.950594  0  0.146499  0  0.134074  0  1.016997  0  0  0.136398  0  1.015364  0  0  0.103938  0.132347  0  1.018274  0
H  H33  1  0.60091006  0.93819012  0.40742082  1  0  0.124504  0  0.95061  0  0.146207  0  0.133942  0  1.017095  0  0  0.136264  0  1.015464  0  0  0.103868  0.132215  0  1.018369  0
H  H34  1  0.93818615  0.60091168  0.90742384  1  0  0.124542  0  0.950671  0  0.146548  0  0.134008  0  1.017074  0  0  0.136334  0  1.015445  0  0  0.103898  0.132283  0  1.018353  0
H  H35  1  0.39909065  0.06181245  0.59257751  1  0  0.12453  0  0.950663  0  0.146194  0  0.13398  0  1.01711  0  0  0.136304  0  1.01548  0  0  0.103874  0.132256  0  1.018384  0
C  C36  1  0.97950760  0.65052127  0.26560941  1  0  0.331482  0  3.77858  0  0.946156  0  0.314965  0  4.057838  0  0  0.331935  0  4.069717  0  0  0.232034  0.303635  0  4.049837  0
C  C37  1  0.34946868  0.02049172  0.23439110  1  0  0.331475  0  3.778529  0  0.946001  0  0.315018  0  4.057774  0  0  0.331999  0  4.069633  0  0  0.232018  0.303679  0  4.049778  0
C  C38  1  0.02049110  0.34947681  0.73439101  1  0  0.331467  0  3.778636  0  0.946173  0  0.314983  0  4.057826  0  0  0.331953  0  4.069702  0  0  0.232037  0.303655  0  4.049826  0
C  C39  1  0.65052719  0.97950858  0.76560866  1  0  0.33141  0  3.778597  0  0.945977  0  0.314945  0  4.057778  0  0  0.331921  0  4.069645  0  0  0.231992  0.303604  0  4.049787  0
C  C40  1  0.87034251  0.88632424  0.32507078  1  0  -0.179046  0  3.71857  0  0.065197  0  -0.192087  0  3.970398  0  0  -0.20299  0  3.989167  0  0  -0.095459  -0.185452  0  3.958474  0
C  C41  1  0.11366691  0.12965520  0.17492537  1  0  -0.178852  0  3.718498  0  0.065541  0  -0.191848  0  3.970276  0  0  -0.202751  0  3.989049  0  0  -0.09538  -0.185214  0  3.958351  0
C  C42  1  0.12965422  0.11367494  0.67492710  1  0  -0.179074  0  3.718584  0  0.064962  0  -0.192085  0  3.970403  0  0  -0.202985  0  3.989172  0  0  -0.095462  -0.185451  0  3.958481  0
C  C43  1  0.88632210  0.87033836  0.82507667  1  0  -0.17901  0  3.718585  0  0.065368  0  -0.192034  0  3.970396  0  0  -0.202937  0  3.989166  0  0  -0.095419  -0.185399  0  3.958472  0
C  C44  1  0.86721817  0.84429858  0.23913430  1  0  0.185622  0  3.697961  0  0.494765  0  0.155101  0  3.956625  0  0  0.167288  0  3.96964  0  0  0.05711  0.14704  0  3.94804  0
C  C45  1  0.15569251  0.13277871  0.26086366  1  0  0.185212  0  3.698037  0  0.494456  0  0.154768  0  3.956767  0  0  0.166957  0  3.969781  0  0  0.056982  0.146709  0  3.94818  0
C  C46  1  0.13277607  0.15569386  0.76086241  1  0  0.185502  0  3.697948  0  0.494604  0  0.155079  0  3.956628  0  0  0.167265  0  3.969642  0  0  0.057077  0.147016  0  3.948048  0
C  C47  1  0.84430464  0.86721713  0.73913715  1  0  0.185467  0  3.698084  0  0.495021  0  0.155062  0  3.956734  0  0  0.167251  0  3.969746  0  0  0.057093  0.147  0  3.948148  0
C  C48  1  0.93202931  0.80051922  0.37935903  1  0  0.18748  0  3.664069  0  0.425741  0  0.153845  0  3.914908  0  0  0.165608  0  3.926691  0  0  0.055813  0.146087  0  3.907441  0
C  C49  1  0.19947908  0.06797454  0.12063978  1  0  0.187412  0  3.664119  0  0.425043  0  0.153804  0  3.915017  0  0  0.165568  0  3.9268  0  0  0.055833  0.146047  0  3.907546  0
C  C50  1  0.06797407  0.19948560  0.62064021  1  0  0.187526  0  3.664028  0  0.425813  0  0.153834  0  3.914919  0  0  0.165596  0  3.926702  0  0  0.055809  0.146079  0  3.907454  0
C  C51  1  0.80050883  0.93201901  0.87936158  1  0  0.187457  0  3.66412  0  0.425395  0  0.153747  0  3.915053  0  0  0.165511  0  3.926833  0  0  0.055803  0.145993  0  3.90758  0
C  C52  1  0.58545650  0.65459633  0.09249680  1  0  0.184679  0  3.670351  0  0.45802  0  0.149378  0  3.927481  0  0  0.16096  0  3.940639  0  0  0.055608  0.141815  0  3.918981  0
C  C53  1  0.34540095  0.41454960  0.40750394  1  0  0.184664  0  3.669994  0  0.458133  0  0.149376  0  3.927143  0  0  0.160958  0  3.940301  0  0  0.055592  0.141814  0  3.918647  0
C  C54  1  0.41454721  0.34539953  0.90750068  1  0  0.184813  0  3.669842  0  0.458044  0  0.149524  0  3.92702  0  0  0.161109  0  3.940174  0  0  0.055673  0.14196  0  3.918521  0
C  C55  1  0.65459938  0.58545634  0.59249766  1  0  0.184728  0  3.670154  0  0.458097  0  0.149428  0  3.9273  0  0  0.160998  0  3.940456  0  0  0.055637  0.141863  0  3.918806  0
C  C56  1  0.33136113  0.59625959  0.09823620  1  0  0.330696  0  3.782935  0  0.982102  0  0.313578  0  4.064629  0  0  0.330406  0  4.076799  0  0  0.231152  0.302373  0  4.05646  0
C  C57  1  0.40373425  0.66864494  0.40176248  1  0  0.330528  0  3.782982  0  0.982112  0  0.313423  0  4.064662  0  0  0.33025  0  4.076833  0  0  0.231115  0.302217  0  4.056495  0
C  C58  1  0.66864276  0.40373180  0.90176227  1  0  0.330459  0  3.783069  0  0.982062  0  0.313363  0  4.064759  0  0  0.330192  0  4.076932  0  0  0.231105  0.30216  0  4.056581  0
C  C59  1  0.59626607  0.33136100  0.59823789  1  0  0.330611  0  3.782994  0  0.98207  0  0.313478  0  4.064733  0  0  0.3303  0  4.076893  0  0  0.231109  0.302273  0  4.056562  0
C  C60  1  0.46449526  0.41641211  0.12267738  1  0  0.187317  0  3.687747  0  0.528595  0  0.159184  0  3.945639  0  0  0.172487  0  3.956551  0  0  0.05934  0.150285  0  3.938552  0
C  C61  1  0.58358598  0.53551534  0.37732431  1  0  0.187527  0  3.687461  0  0.528005  0  0.159399  0  3.945383  0  0  0.172702  0  3.956287  0  0  0.059408  0.150497  0  3.938297  0
C  C62  1  0.53551020  0.58358154  0.87732318  1  0  0.187376  0  3.687527  0  0.528152  0  0.159307  0  3.945402  0  0  0.172618  0  3.956302  0  0  0.059415  0.150404  0  3.938318  0
C  C63  1  0.41641991  0.46449625  0.62268108  1  0  0.187334  0  3.687743  0  0.528118  0  0.15926  0  3.945623  0  0  0.172566  0  3.956529  0  0  0.059401  0.150356  0  3.938543  0
C  C64  1  0.59650873  0.51275153  0.11148776  1  0  -0.182373  0  3.712234  0  -0.003397  0  -0.198426  0  3.966928  0  0  -0.209496  0  3.986775  0  0  -0.096117  -0.19161  0  3.954293  0
C  C65  1  0.48725044  0.40349976  0.38851279  1  0  -0.182475  0  3.712081  0  -0.003365  0  -0.198508  0  3.966796  0  0  -0.209593  0  3.986615  0  0  -0.096172  -0.191698  0  3.954172  0
C  C66  1  0.40349648  0.48724099  0.88851085  1  0  -0.182425  0  3.71209  0  -0.003328  0  -0.198517  0  3.966772  0  0  -0.209601  0  3.986597  0  0  -0.096159  -0.191694  0  3.95414  0
C  C67  1  0.51275740  0.59651071  0.61149079  1  0  -0.182354  0  3.712054  0  -0.003422  0  -0.198417  0  3.966761  0  0  -0.209503  0  3.986595  0  0  -0.096168  -0.191604  0  3.95413  0
C  C68  1  0.03905926  0.50477572  0.12084729  1  0  -0.200248  0  3.662047  0  -0.22825  0  -0.233208  0  3.93464  0  0  -0.231586  0  3.941578  0  0  -0.146643  -0.234217  0  3.929817  0
C  C69  1  0.49521800  0.96094794  0.37915145  1  0  -0.200138  0  3.66188  0  -0.227745  0  -0.233084  0  3.934421  0  0  -0.231458  0  3.941349  0  0  -0.146571  -0.234075  0  3.929573  0
C  C70  1  0.96094315  0.49521903  0.87915439  1  0  -0.200185  0  3.661918  0  -0.228499  0  -0.233111  0  3.934465  0  0  -0.231493  0  3.941405  0  0  -0.146586  -0.234127  0  3.929653  0
C  C71  1  0.50478318  0.03905687  0.62084765  1  0  -0.200168  0  3.661934  0  -0.228096  0  -0.233125  0  3.934545  0  0  -0.231504  0  3.941483  0  0  -0.146574  -0.234128  0  3.929711  0
S  S72  1  0.05616462  0.49738758  0.23310516  1  0  0.030475  0  2.460362  0  0.157233  0  0.015085  0  2.821996  0  0  0.011946  0  2.819843  0  0  0.030073  0.017133  0  2.82328  0
S  S73  1  0.50260601  0.94383953  0.26689525  1  0  0.030535  0  2.460316  0  0.157167  0  0.01514  0  2.821937  0  0  0.012003  0  2.819771  0  0  0.030135  0.017189  0  2.823218  0
S  S74  1  0.94383519  0.50261053  0.76689718  1  0  0.030529  0  2.460343  0  0.15713  0  0.015113  0  2.821943  0  0  0.011979  0  2.81979  0  0  0.030091  0.017164  0  2.823232  0
S  S75  1  0.49739274  0.05616415  0.73310364  1  0  0.030576  0  2.460324  0  0.157141  0  0.015176  0  2.821925  0  0  0.01204  0  2.819765  0  0  0.030141  0.017226  0  2.823216  0
S  S76  1  0.16418072  0.66098949  0.08898060  1  0  0.034465  0  2.460696  0  0.156839  0  0.023015  0  2.816861  0  0  0.020554  0  2.813593  0  0  0.032303  0.02448  0  2.819013  0
S  S77  1  0.33900121  0.83582738  0.41101863  1  0  0.03445  0  2.460469  0  0.156627  0  0.023001  0  2.816628  0  0  0.020534  0  2.813362  0  0  0.032262  0.024459  0  2.818782  0
S  S78  1  0.83582340  0.33900303  0.91101918  1  0  0.03447  0  2.460591  0  0.156903  0  0.023002  0  2.816747  0  0  0.020537  0  2.81348  0  0  0.032274  0.02447  0  2.8189  0
S  S79  1  0.66099651  0.16418189  0.58898116  1  0  0.034426  0  2.460578  0  0.15678  0  0.022985  0  2.81675  0  0  0.020519  0  2.813488  0  0  0.032286  0.024447  0  2.818905  0
I  I80  1  0.90387855  0.30125144  0.41568426  1  0  -0.515268  0  1.415427  0  -0.535852  0  -0.473263  0  1.817699  0  0  -0.491368  0  1.784456  0  0  -0.23784  -0.45951  0  1.83867  0
I  I81  1  0.69874639  0.09612300  0.08431747  1  0  -0.51524  0  1.415353  0  -0.53588  0  -0.473279  0  1.817679  0  0  -0.491358  0  1.784401  0  0  -0.23785  -0.459506  0  1.83864  0
I  I82  1  0.09611934  0.69875336  0.58431527  1  0  -0.515271  0  1.415417  0  -0.535879  0  -0.473258  0  1.817687  0  0  -0.491367  0  1.784444  0  0  -0.237851  -0.459503  0  1.83866  0
I  I83  1  0.30124587  0.90388627  0.91568633  1  0  -0.515257  0  1.415419  0  -0.535829  0  -0.473286  0  1.817731  0  0  -0.491359  0  1.784454  0  0  -0.237854  -0.459499  0  1.838665  0
N  N84  1  0.98726001  0.68204986  0.35073044  1  0  -0.376093  0  3.367746  0  -1.223834  0  -0.303937  0  3.653042  0  0  -0.318588  0  3.658122  0  0  -0.363367  -0.295231  0  3.649814  0
N  N85  1  0.31794193  0.01273834  0.14926888  1  0  -0.376009  0  3.367569  0  -1.223757  0  -0.30398  0  3.653016  0  0  -0.318618  0  3.658062  0  0  -0.363393  -0.295266  0  3.649784  0
N  N86  1  0.01274026  0.31795048  0.64927083  1  0  -0.376127  0  3.367771  0  -1.223781  0  -0.303924  0  3.653023  0  0  -0.318576  0  3.658107  0  0  -0.363373  -0.295228  0  3.649806  0
N  N87  1  0.68204707  0.98725520  0.85073005  1  0  -0.376026  0  3.367718  0  -1.223807  0  -0.303851  0  3.653022  0  0  -0.318489  0  3.658072  0  0  -0.363381  -0.295144  0  3.649802  0
N  N88  1  0.92121815  0.72656071  0.20902048  1  0  -0.383483  0  3.073661  0  -1.228904  0  -0.339389  0  3.33586  0  0  -0.356719  0  3.350124  0  0  -0.320913  -0.327791  0  3.326134  0
N  N89  1  0.27342751  0.07878475  0.29097703  1  0  -0.383367  0  3.074094  0  -1.22853  0  -0.339256  0  3.336206  0  0  -0.356589  0  3.350466  0  0  -0.320841  -0.327656  0  3.326488  0
N  N90  1  0.07878095  0.27343401  0.79097851  1  0  -0.383471  0  3.073782  0  -1.228857  0  -0.339384  0  3.33592  0  0  -0.356711  0  3.350183  0  0  -0.320892  -0.327785  0  3.326195  0
N  N91  1  0.72657102  0.92121780  0.70902240  1  0  -0.38344  0  3.074026  0  -1.22877  0  -0.339358  0  3.336128  0  0  -0.356689  0  3.350391  0  0  -0.320873  -0.327754  0  3.326409  0
N  N92  1  0.45391704  0.69928025  0.08665459  1  0  -0.371292  0  3.364866  0  -1.219322  0  -0.302107  0  3.659476  0  0  -0.316341  0  3.664244  0  0  -0.363848  -0.293728  0  3.656324  0
N  N93  1  0.30071442  0.54608806  0.41334656  1  0  -0.371093  0  3.364607  0  -1.219379  0  -0.30194  0  3.659242  0  0  -0.316177  0  3.66402  0  0  -0.363802  -0.29357  0  3.656106  0
N  N94  1  0.54608623  0.30071338  0.91334521  1  0  -0.371138  0  3.364517  0  -1.2194  0  -0.302029  0  3.659222  0  0  -0.316261  0  3.66398  0  0  -0.36385  -0.29365  0  3.656069  0
N  N95  1  0.69928614  0.45391900  0.58665513  1  0  -0.371284  0  3.364886  0  -1.219387  0  -0.302093  0  3.659475  0  0  -0.316313  0  3.664247  0  0  -0.363844  -0.293721  0  3.656339  0
N  N96  1  0.33180787  0.45732385  0.11548465  1  0  -0.38283  0  3.071838  0  -1.240236  0  -0.339925  0  3.331537  0  0  -0.357217  0  3.345567  0  0  -0.32164  -0.328434  0  3.322082  0
N  N97  1  0.54267236  0.66819998  0.38451490  1  0  -0.382798  0  3.071667  0  -1.239667  0  -0.339879  0  3.331342  0  0  -0.357168  0  3.345366  0  0  -0.321564  -0.328386  0  3.321889  0
N  N98  1  0.66819736  0.54266867  0.88451521  1  0  -0.382742  0  3.071726  0  -1.2396  0  -0.339857  0  3.331406  0  0  -0.357149  0  3.345434  0  0  -0.321619  -0.328363  0  3.321951  0
N  N99  1  0.45733086  0.33180934  0.61548709  1  0  -0.382709  0  3.071849  0  -1.239703  0  -0.339812  0  3.331538  0  0  -0.357107  0  3.345572  0  0  -0.321569  -0.328319  0  3.322085  0
