# generated using pymatgen
data_CuPH9C8(NO)4
_symmetry_space_group_name_H-M   'P 1'
_cell_length_a   7.35232326
_cell_length_b   7.65110372
_cell_length_c   10.67815991
_cell_angle_alpha   93.40043131
_cell_angle_beta   108.43288497
_cell_angle_gamma   90.51247871
_symmetry_Int_Tables_number   1
_chemical_formula_structural   CuPH9C8(NO)4
_chemical_formula_sum   'Cu2 P2 H18 C16 N8 O8'
_cell_volume   568.61777092
_cell_formula_units_Z   2
loop_
 _symmetry_equiv_pos_site_id
 _symmetry_equiv_pos_as_xyz
  1  'x, y, z'
loop_
 _atom_site_type_symbol
 _atom_site_label
 _atom_site_symmetry_multiplicity
 _atom_site_fract_x
 _atom_site_fract_y
 _atom_site_fract_z
 _atom_site_occupancy
 _atom_site_hle17_ddec_charge
 _atom_site_hle17_ddec_spin_density
 _atom_site_hle17_ddec_sum_bond_order
 _atom_site_hle17_magmom
 _atom_site_hse06_10hf_ddec_charge
 _atom_site_hse06_10hf_ddec_spin_density
 _atom_site_hse06_10hf_ddec_sum_bond_order
 _atom_site_hse06_10hf_magmom
 _atom_site_hse06_ddec_charge
 _atom_site_hse06_ddec_spin_density
 _atom_site_hse06_ddec_sum_bond_order
 _atom_site_hse06_magmom
 _atom_site_pbe_cm5_charge
 _atom_site_pbe_ddec_charge
 _atom_site_pbe_ddec_spin_density
 _atom_site_pbe_ddec_sum_bond_order
 _atom_site_pbe_magmom
Cu  Cu0  1  0.99999984  0.50000370  0.00000107  1  0.981194  0.737543  1.760294  0.557  0.967553  0.826573  2.149515  0.675  1.034925  0.890477  2.101905  0.749  0.809436  0.916756  0.776351  2.193243  0.622
Cu  Cu1  1  0.49999967  0.50000040  0.99999967  1  0.902428  -0.719845  1.857893  -0.535  0.896919  -0.821304  2.244593  -0.667  0.978182  -0.888169  2.179999  -0.744  0.78899  0.841072  -0.768117  2.294041  -0.61
P  P2  1  0.25036751  0.15131670  0.99626557  1  1.524302  0.001328  4.672856  0.002  1.38688  0.000529  5.176964  0.002  1.440849  0.000463  5.137475  0.001  0.370827  1.34889  0.0006  5.20303  0.002
P  P3  1  0.74963179  0.84868712  0.00373661  1  1.523981  0.001329  4.673262  0.002  1.386512  0.000531  5.177386  0.002  1.440465  0.000461  5.137917  0.001  0.370678  1.348529  0.000599  5.203468  0.002
H  H4  1  0.06241953  0.05843056  0.80203049  1  0.425415  3.6e-05  0.803801  0.0  0.407281  -5.8e-05  0.860443  0.0  0.41578  -4.7e-05  0.85067  0.0  0.345064  0.4012  -5.4e-05  0.867511  0.0
H  H5  1  0.93757726  0.94158370  0.19796778  1  0.425506  3.6e-05  0.803762  0.0  0.40737  -5.8e-05  0.8604  0.0  0.415858  -4.7e-05  0.850634  0.0  0.345079  0.401286  -5.4e-05  0.867477  0.0
H  H6  1  0.23067026  0.71816412  0.84353227  1  0.43162  4.5e-05  0.830851  0.0  0.411308  4.1e-05  0.89396  0.0  0.420985  3.3e-05  0.879858  0.0  0.305061  0.404412  4.5e-05  0.903603  0.0
H  H7  1  0.76932615  0.28183962  0.15646179  1  0.431588  4.5e-05  0.830806  0.0  0.411245  4.1e-05  0.894005  0.0  0.420915  3.3e-05  0.879914  0.0  0.305065  0.404349  4.5e-05  0.903564  0.0
H  H8  1  0.23607217  0.53912591  0.76536973  1  0.410858  8.7e-05  0.868988  0.0  0.383831  5.6e-05  0.939117  0.0  0.394945  4.8e-05  0.922602  0.0  0.29683  0.375726  6.3e-05  0.9512  0.0
H  H9  1  0.76393015  0.46088301  0.23462205  1  0.410751  8.7e-05  0.868996  0.0  0.383756  5.7e-05  0.939201  0.0  0.394866  4.9e-05  0.922689  0.0  0.296784  0.375649  6.3e-05  0.951285  0.0
H  H10  1  0.18679434  0.92500984  0.11720245  1  0.148865  -0.001409  0.969414  -0.002  0.154932  -0.00041  1.036507  -0.001  0.157666  -0.000244  1.035973  0.0  0.108974  0.153003  -0.000529  1.036918  -0.001
H  H11  1  0.81319913  0.07499133  0.88279462  1  0.148916  -0.001408  0.969353  -0.002  0.15492  -0.00041  1.03652  -0.001  0.157651  -0.000243  1.035987  0.0  0.108959  0.152992  -0.000529  1.03693  -0.001
H  H12  1  0.42463362  0.92068791  0.11322375  1  0.168943  0.000832  0.952478  0.001  0.179436  0.000377  1.007333  0.001  0.182758  0.000249  1.006788  0.0  0.113543  0.177138  0.000499  1.007696  0.001
H  H13  1  0.57535980  0.07931195  0.88677326  1  0.168956  0.000833  0.952447  0.001  0.179455  0.000377  1.007266  0.001  0.182769  0.000249  1.006741  0.0  0.113558  0.177155  0.000499  1.007629  0.001
H  H14  1  0.11467667  0.22117122  0.25425227  1  0.102662  4.7e-05  0.973941  0.0  0.111027  -2.4e-05  1.039763  0.0  0.113627  -2.6e-05  1.038442  0.0  0.097982  0.10909  -2e-05  1.040794  0.0
H  H15  1  0.88531233  0.77882481  0.74575114  1  0.10278  4.4e-05  0.974032  0.0  0.111181  -2.4e-05  1.039764  0.0  0.113753  -2.7e-05  1.038485  0.0  0.098055  0.109248  -2e-05  1.040798  0.0
H  H16  1  0.67463191  0.01698077  0.30360674  1  0.09718  2.9e-05  0.967467  0.0  0.106675  3e-05  1.029149  0.0  0.109731  1.8e-05  1.027701  0.0  0.097004  0.104494  2.6e-05  1.030214  0.0
H  H17  1  0.32536003  0.98301775  0.69638804  1  0.097114  2.9e-05  0.967534  0.0  0.106652  3e-05  1.029174  0.0  0.109712  1.8e-05  1.027721  0.0  0.096993  0.104471  2.6e-05  1.03024  0.0
H  H18  1  0.22974841  0.35817987  0.48180121  1  0.097613  6e-05  0.936134  0.0  0.109045  6.4e-05  0.993148  0.0  0.111968  4.5e-05  0.991424  0.0  0.10386  0.106864  7.5e-05  0.994642  0.0
H  H19  1  0.77025931  0.64181872  0.51820448  1  0.097594  6.2e-05  0.936115  0.0  0.109007  6.4e-05  0.993145  0.0  0.111929  4.5e-05  0.991424  0.0  0.103845  0.106826  7.5e-05  0.994639  0.0
H  H20  1  0.79282821  0.16175666  0.53056826  1  0.091338  -2.9e-05  0.946218  0.0  0.101273  -6.5e-05  1.006106  0.0  0.10444  -4.5e-05  1.004277  0.0  0.099721  0.099039  -8.1e-05  1.007456  0.0
H  H21  1  0.20717505  0.83823784  0.46942320  1  0.091345  -2.8e-05  0.946223  0.0  0.101249  -6.5e-05  1.006143  0.0  0.104415  -4.5e-05  1.004315  0.0  0.099712  0.099013  -8.1e-05  1.007494  0.0
C  C22  1  0.31529841  0.00747483  0.13010386  1  -0.503069  -5.6e-05  3.66259  0.0  -0.519526  -0.00024  3.890472  0.0  -0.531785  -9.5e-05  3.898699  0.0  -0.16982  -0.510629  -0.000482  3.88473  -0.001
C  C23  1  0.68469798  0.99252766  0.86989577  1  -0.503112  -6.4e-05  3.662637  0.0  -0.519429  -0.000242  3.890418  0.0  -0.531685  -9.5e-05  3.898646  0.0  -0.169783  -0.510534  -0.000484  3.884677  -0.001
C  C24  1  0.38562499  0.10393585  0.26428651  1  0.163047  -0.0019  3.738497  -0.002  0.173159  -1.7e-05  3.986709  0.0  0.175572  7.2e-05  4.012039  0.0  -0.006454  0.171441  -0.000156  3.969562  0.0
C  C25  1  0.61436536  0.89605757  0.73571804  1  0.163228  -0.001914  3.738152  -0.002  0.173255  -1.6e-05  3.986461  0.0  0.175671  7.2e-05  4.011784  0.0  -0.006451  0.171536  -0.000156  3.969325  0.0
C  C26  1  0.26215435  0.20274428  0.31549333  1  -0.135041  -0.001246  3.719765  -0.001  -0.158552  -0.000218  3.977866  0.0  -0.162904  -0.000127  4.000831  0.0  -0.10006  -0.155289  -0.000324  3.962053  0.0
C  C27  1  0.73784894  0.79725038  0.68451126  1  -0.135256  -0.001222  3.719668  -0.001  -0.158766  -0.000219  3.977789  0.0  -0.163106  -0.000128  4.000758  0.0  -0.100139  -0.155506  -0.000324  3.961988  0.0
C  C28  1  0.57793330  0.09337897  0.34259072  1  -0.124708  -0.000167  3.73303  0.0  -0.147694  -0.000116  3.990574  0.0  -0.152429  -9.2e-05  4.013885  0.0  -0.096269  -0.144387  -0.000263  3.974833  0.0
C  C29  1  0.42205851  0.90661566  0.65740576  1  -0.124736  -0.000155  3.733094  0.0  -0.147748  -0.000116  3.990656  0.0  -0.152483  -9.2e-05  4.013965  0.0  -0.096264  -0.144436  -0.000263  3.974912  0.0
C  C30  1  0.32718659  0.28243584  0.44297214  1  -0.078189  0.001202  3.735783  0.001  -0.102423  0.000408  3.993094  0.0  -0.103493  0.000303  4.014143  0.0  -0.0869  -0.1016  0.00058  3.978523  0.001
C  C31  1  0.67281249  0.71756144  0.55702975  1  -0.07817  0.001182  3.735729  0.001  -0.102388  0.000408  3.993064  0.0  -0.103452  0.000303  4.014099  0.0  -0.086888  -0.101563  0.00058  3.978494  0.001
C  C32  1  0.64419629  0.17417482  0.46946217  1  -0.082073  -0.000913  3.74748  -0.001  -0.102758  -0.000181  3.998505  0.0  -0.104289  -6.6e-05  4.020517  0.0  -0.086739  -0.101695  -0.000291  3.983602  0.0
C  C33  1  0.35580708  0.82582240  0.53053691  1  -0.082038  -0.000923  3.747404  -0.001  -0.102683  -0.000181  3.998423  0.0  -0.104212  -6.6e-05  4.020438  0.0  -0.08672  -0.101616  -0.000291  3.983515  0.0
C  C34  1  0.51849507  0.26709797  0.52207259  1  0.001193  -0.003431  3.812269  -0.003  0.010575  -0.0004  4.052141  0.0  0.00776  -0.000228  4.076642  0.0  -0.008462  0.012845  -0.000604  4.035397  -0.001
C  C35  1  0.48151227  0.73289003  0.47792421  1  0.001302  -0.003425  3.812277  -0.003  0.01064  -0.0004  4.052117  0.0  0.007824  -0.000227  4.076618  0.0  -0.008411  0.012909  -0.000605  4.035374  -0.001
C  C36  1  0.58547898  0.34137983  0.65830529  1  0.262877  -0.000198  3.788322  0.0  0.249697  0.000252  4.057188  0.0  0.25803  0.000287  4.073335  0.0  0.22115  0.243411  0.000317  4.046958  0.001
C  C37  1  0.41453018  0.65861877  0.34170259  1  0.262737  -0.00019  3.788231  0.0  0.249651  0.000252  4.056971  0.0  0.257985  0.000287  4.073115  0.0  0.221059  0.243366  0.000317  4.046745  0.001
N  N38  1  0.76927703  0.42417435  0.84966077  1  -0.078871  0.063226  3.285701  0.081  -0.058887  0.045637  3.625593  0.062  -0.073485  0.038964  3.646269  0.055  -0.133012  -0.048611  0.049727  3.611142  0.065
N  N39  1  0.23072513  0.57582942  0.15033829  1  -0.078782  0.063211  3.285608  0.081  -0.05885  0.045638  3.625526  0.062  -0.073442  0.038965  3.646196  0.055  -0.132993  -0.048572  0.049728  3.611071  0.065
N  N40  1  0.58974283  0.45322054  0.84552206  1  -0.094403  -0.060437  3.316331  -0.076  -0.075495  -0.044996  3.651034  -0.06  -0.093779  -0.038431  3.675343  -0.054  -0.142392  -0.064108  -0.049066  3.635562  -0.063
N  N41  1  0.41025924  0.54678061  0.15447688  1  -0.0945  -0.060413  3.316414  -0.076  -0.075511  -0.044996  3.651063  -0.06  -0.093799  -0.038432  3.675374  -0.054  -0.1424  -0.064123  -0.049067  3.635588  -0.063
N  N42  1  0.77216536  0.35269616  0.73430860  1  -0.269692  -0.008759  2.898361  -0.01  -0.257213  -0.002014  3.180338  -0.003  -0.263892  -0.001269  3.193157  -0.002  -0.20928  -0.251569  -0.002318  3.170978  -0.003
N  N43  1  0.22784088  0.64730108  0.26569391  1  -0.269678  -0.008767  2.898182  -0.01  -0.257216  -0.002016  3.180138  -0.003  -0.263897  -0.00127  3.192955  -0.002  -0.209261  -0.251578  -0.002319  3.170781  -0.003
N  N44  1  0.47017030  0.40331116  0.72668918  1  -0.286208  0.004886  2.934955  0.006  -0.260513  0.000851  3.206135  0.001  -0.269272  0.00028  3.221977  0.001  -0.205308  -0.254701  0.000919  3.196051  0.001
N  N45  1  0.52983159  0.59668475  0.27330953  1  -0.286161  0.004875  2.934895  0.006  -0.260512  0.000852  3.206034  0.001  -0.269275  0.000282  3.221873  0.001  -0.205295  -0.254704  0.00092  3.195952  0.001
O  O46  1  0.07946780  0.25790922  0.00187798  1  -0.841232  0.059716  2.107019  0.082  -0.800453  0.041784  2.427972  0.06  -0.836589  0.032967  2.407211  0.049  -0.380871  -0.773592  0.047632  2.44081  0.066
O  O47  1  0.92054182  0.74210250  0.99813234  1  -0.841121  0.059714  2.106939  0.082  -0.80033  0.041784  2.427879  0.06  -0.836474  0.032967  2.40713  0.049  -0.38087  -0.773432  0.04763  2.44063  0.066
O  O48  1  0.17589379  0.01410908  0.86662955  1  -0.716119  -0.000615  1.959779  -0.001  -0.644921  -2.7e-05  2.170783  0.0  -0.664731  5.5e-05  2.148913  0.0  -0.377206  -0.631202  -0.000217  2.186198  0.0
O  O49  1  0.82409849  0.98589871  0.13337313  1  -0.716131  -0.000613  1.959962  -0.001  -0.64488  -2.6e-05  2.170878  0.0  -0.664646  5.6e-05  2.148983  0.0  -0.377116  -0.631168  -0.000216  2.186295  0.0
O  O50  1  0.42910878  0.24800380  0.99071592  1  -0.832564  -0.061103  2.085592  -0.082  -0.786342  -0.043742  2.387407  -0.063  -0.826466  -0.034286  2.370722  -0.051  -0.37744  -0.758242  -0.049867  2.398982  -0.069
O  O51  1  0.57089324  0.75199602  0.00928203  1  -0.832479  -0.061098  2.085668  -0.082  -0.786264  -0.043738  2.387526  -0.063  -0.826387  -0.034284  2.37085  -0.051  -0.377433  -0.758163  -0.04986  2.399106  -0.069
O  O52  1  0.19031648  0.59470295  0.83473941  1  -0.825572  -7.7e-05  1.838608  0.0  -0.802645  -0.000157  2.039844  0.0  -0.81761  1.8e-05  2.000615  0.0  -0.579009  -0.790933  -0.000331  2.067423  0.0
O  O53  1  0.80968279  0.40530075  0.16525246  1  -0.825428  -7.5e-05  1.838608  0.0  -0.802484  -0.000158  2.039992  0.0  -0.81745  1.7e-05  2.000816  0.0  -0.578984  -0.790757  -0.000331  2.067476  0.0
