# generated using pymatgen
data_H12RuC22SN4(ClO3)2
_symmetry_space_group_name_H-M   'P 1'
_cell_length_a   10.69131379
_cell_length_b   15.45128209
_cell_length_c   16.90468309
_cell_angle_alpha   85.82757188
_cell_angle_beta   86.69002034
_cell_angle_gamma   77.55741475
_symmetry_Int_Tables_number   1
_chemical_formula_structural   H12RuC22SN4(ClO3)2
_chemical_formula_sum   'H48 Ru4 C88 S4 N16 Cl8 O24'
_cell_volume   2717.20511901
_cell_formula_units_Z   4
loop_
 _symmetry_equiv_pos_site_id
 _symmetry_equiv_pos_as_xyz
  1  'x, y, z'
loop_
 _atom_site_type_symbol
 _atom_site_label
 _atom_site_symmetry_multiplicity
 _atom_site_fract_x
 _atom_site_fract_y
 _atom_site_fract_z
 _atom_site_occupancy
 _atom_site_pbe_bader_charge
 _atom_site_pbe_bader_spin_density
 _atom_site_pbe_cm5_charge
 _atom_site_pbe_ddec_charge
 _atom_site_pbe_ddec_spin_density
 _atom_site_pbe_ddec_sum_bond_order
 _atom_site_pbe_magmom
H  H0  1  0.61066027  0.87665382  0.66341613  1  0.087252  -2e-05  0.105655  0.116723  -1.9e-05  0.995341  0.0
H  H1  1  0.38963350  0.12328035  0.33616491  1  0.083351  -2.2e-05  0.105562  0.116387  -2.1e-05  0.994937  0.0
H  H2  1  0.65453354  0.86377946  0.56029771  1  0.082937  -2.2e-05  0.109955  0.121045  -3.5e-05  0.977656  0.0
H  H3  1  0.34619276  0.13608195  0.43937596  1  0.067059  -2.4e-05  0.109981  0.120773  -3.7e-05  0.977419  0.0
H  H4  1  0.77231189  0.82498755  0.63358093  1  0.047828  -1.8e-05  0.098547  0.09903  5e-06  0.992796  0.0
H  H5  1  0.22815613  0.17499489  0.36633180  1  0.05004  -2e-05  0.098594  0.098915  3e-06  0.992607  0.0
H  H6  1  0.71474819  0.78623991  0.76105968  1  0.102902  2.1e-05  0.111194  0.141028  2.8e-05  1.00591  0.0
H  H7  1  0.28533976  0.21405591  0.23876677  1  0.104802  2.1e-05  0.111612  0.141221  2.8e-05  1.005251  0.0
H  H8  1  0.63954164  0.54945774  0.88698406  1  0.079817  -6.3e-05  0.099214  0.118103  -5.8e-05  1.009361  0.0
H  H9  1  0.36008038  0.45112908  0.11311100  1  0.085011  -6.1e-05  0.099005  0.118265  -5.6e-05  1.009674  0.0
H  H10  1  0.56308494  0.50395944  0.76363203  1  0.177776  0.000171  0.108417  0.125454  7.3e-05  1.033189  0.0
H  H11  1  0.43731749  0.49620622  0.23645050  1  0.171508  0.000179  0.108187  0.124979  9.2e-05  1.034377  0.0
H  H12  1  0.86032880  0.64845553  0.57582903  1  0.067712  1e-05  0.093202  0.095897  3.6e-05  1.017517  0.0
H  H13  1  0.14060921  0.35181619  0.42445938  1  0.073682  1.1e-05  0.0933  0.096292  3.7e-05  1.017152  0.0
H  H14  1  0.89522518  0.54429601  0.52934124  1  0.094067  0.000205  0.102037  0.113885  0.000186  1.030405  0.0
H  H15  1  0.10524857  0.45591387  0.47109823  1  0.093327  0.000206  0.102221  0.114176  0.000185  1.0313  0.0
H  H16  1  0.83647278  0.64435144  0.47200687  1  0.076762  -0.000132  0.097626  0.103076  -0.000236  1.036246  0.0
H  H17  1  0.16406680  0.35591775  0.52837293  1  0.069221  -0.000137  0.097972  0.103551  -0.000237  1.036482  0.0
H  H18  1  0.86141428  0.77608167  0.49187755  1  0.091376  -0.000281  0.10827  0.133137  -0.000298  1.033076  0.0
H  H19  1  0.13931698  0.22404284  0.50809575  1  0.085958  -0.000287  0.108159  0.132567  -0.000303  1.033282  0.0
H  H20  1  0.14432757  0.92396481  0.40380285  1  0.10167  -4.1e-05  0.105264  0.126571  1.8e-05  0.993394  0.0
H  H21  1  0.85687480  0.07574732  0.59609353  1  0.100655  -3.9e-05  0.105201  0.126454  1.9e-05  0.993201  0.0
H  H22  1  0.31358727  0.78530938  0.41510383  1  0.107429  7.4e-05  0.114863  0.127898  -4e-06  0.978183  0.0
H  H23  1  0.68741754  0.21436718  0.58495808  1  0.117976  8e-05  0.114888  0.127903  0.0  0.978755  0.0
H  H24  1  0.16376809  0.86210382  0.04091644  1  0.070137  -0.000146  0.097737  0.104125  -0.000263  1.026584  0.0
H  H25  1  0.83553815  0.13701771  0.95871840  1  0.061859  -0.000166  0.097425  0.103395  -0.000285  1.028384  0.0
H  H26  1  0.10484763  0.95471554  0.97430815  1  0.107332  0.000198  0.104446  0.117108  0.000153  1.025633  0.0
H  H27  1  0.89481496  0.04443525  0.02516709  1  0.099596  0.000198  0.103911  0.115522  0.000151  1.027436  0.0
H  H28  1  0.13752059  0.84434898  0.93982482  1  0.044495  8e-06  0.091989  0.093711  3.5e-05  1.020139  0.0
H  H29  1  0.86164950  0.15475995  0.05985902  1  0.057099  9e-06  0.092093  0.09292  3.8e-05  1.020273  0.0
H  H30  1  0.13453847  0.72609543  0.03279660  1  0.117739  -0.000206  0.106927  0.13201  -0.000227  1.039546  0.0
H  H31  1  0.86403970  0.27319317  0.96708864  1  0.108753  -0.000224  0.106569  0.131089  -0.000244  1.041032  0.0
H  H32  1  0.84623157  0.58911265  0.13376736  1  0.099732  -6e-05  0.10879  0.132445  5e-06  0.979082  0.0
H  H33  1  0.15153687  0.41126585  0.86677254  1  0.094345  -6.5e-05  0.108662  0.13166  0.0  0.979889  0.0
H  H34  1  0.68056949  0.72883420  0.11515129  1  0.119875  -1.7e-05  0.113401  0.124379  -0.000115  0.987004  0.0
H  H35  1  0.31779100  0.27169017  0.88501858  1  0.127219  -1.9e-05  0.113399  0.124525  -0.000118  0.987028  0.0
H  H36  1  0.25019223  0.63911983  0.94268925  1  0.068761  -1.9e-05  0.093797  0.093065  1.6e-05  1.018465  0.0
H  H37  1  0.74902963  0.36115089  0.05694632  1  0.027544  -1.9e-05  0.093237  0.092424  1.6e-05  1.020408  0.0
H  H38  1  0.37751063  0.62109852  0.01079204  1  0.095407  -0.000154  0.108152  0.121623  -0.000243  0.984765  0.0
H  H39  1  0.62146344  0.37905402  0.98910165  1  0.093116  -0.000177  0.107676  0.121382  -0.000278  0.987565  0.0
H  H40  1  0.41076834  0.58915066  0.91020053  1  0.073467  -2.7e-05  0.101025  0.108619  -1.4e-05  1.005681  0.0
H  H41  1  0.58861525  0.41094328  0.08978864  1  0.065811  -2.9e-05  0.100562  0.108634  -1.7e-05  1.005422  0.0
H  H42  1  0.27993555  0.66001016  0.80926555  1  0.074899  -1.9e-05  0.111754  0.141505  -1e-06  0.999572  0.0
H  H43  1  0.72014521  0.33995983  0.19046272  1  0.076444  -1.7e-05  0.111893  0.141663  1e-06  0.999123  0.0
H  H44  1  0.31806231  0.87858196  0.64325837  1  0.104709  -3.2e-05  0.104306  0.127817  -1.7e-05  0.991394  0.0
H  H45  1  0.68237339  0.12122785  0.35645057  1  0.104073  -3.3e-05  0.104246  0.127673  -1.8e-05  0.991621  0.0
H  H46  1  0.41085299  0.94832567  0.74842136  1  0.14162  0.00022  0.110941  0.125362  0.00013  1.006013  0.0
H  H47  1  0.58919188  0.05159179  0.25138386  1  0.141848  0.000221  0.111079  0.125578  0.000131  1.005132  0.0
Ru  Ru48  1  0.56158831  0.53759169  0.45728814  1  1.348411  1.217851  0.812244  0.863854  1.316683  3.96084  1.201
Ru  Ru49  1  0.43916730  0.46209491  0.54275674  1  1.33816  1.216463  0.811641  0.86107  1.315283  3.962136  1.199
Ru  Ru50  1  0.43865305  0.97202412  0.05007340  1  1.338367  1.204074  0.81828  0.861529  1.302564  3.988867  1.188
Ru  Ru51  1  0.56052943  0.02835706  0.94968922  1  1.339046  1.202525  0.817952  0.860515  1.300874  3.98933  1.187
C  C52  1  0.69774307  0.68223008  0.34602304  1  0.838729  0.025156  0.20917  0.285632  0.018673  4.022564  0.031
C  C53  1  0.30283321  0.31750645  0.65400103  1  0.843677  0.025131  0.20899  0.285522  0.018634  4.022535  0.031
C  C54  1  0.73428054  0.75944107  0.31278332  1  0.252285  -0.113855  0.002836  -0.066302  -0.118892  4.08125  -0.072
C  C55  1  0.26584121  0.24040935  0.68713999  1  0.252611  -0.113743  0.00183  -0.067187  -0.118753  4.081002  -0.072
C  C56  1  0.63164033  0.83512417  0.31362779  1  0.837948  0.00782  0.173462  0.253686  0.004184  4.065566  0.014
C  C57  1  0.36815545  0.16455411  0.68598507  1  0.839318  0.007786  0.174161  0.254452  0.004194  4.063669  0.014
C  C58  1  0.86167999  0.76115308  0.28610002  1  0.076399  -0.070423  0.007408  -0.020512  -0.073945  3.981218  -0.04
C  C59  1  0.13845527  0.23875221  0.71384955  1  0.078272  -0.070235  0.00733  -0.020737  -0.073815  3.980839  -0.04
C  C60  1  0.90102330  0.84020273  0.25433120  1  0.495907  -0.021914  0.106872  0.113631  -0.021865  4.028648  -0.009
C  C61  1  0.09896216  0.15969570  0.74546355  1  0.496313  -0.021906  0.107179  0.11429  -0.021846  4.027289  -0.009
C  C62  1  0.03309697  0.84245901  0.22984769  1  0.515215  -0.023004  0.107839  0.114913  -0.023749  4.029217  -0.011
C  C63  1  0.96692205  0.15758651  0.77010486  1  0.468639  -0.023535  0.107737  0.115564  -0.023728  4.02839  -0.011
C  C64  1  0.13604681  0.76573004  0.23366774  1  0.064787  -0.07564  0.005315  -0.021656  -0.078652  3.995947  -0.043
C  C65  1  0.86423486  0.23446649  0.76664125  1  0.113229  -0.075364  0.005491  -0.02223  -0.079007  3.996675  -0.043
C  C66  1  0.09706401  0.68692360  0.26554256  1  0.501561  -0.020886  0.106596  0.112608  -0.021136  4.035531  -0.009
C  C67  1  0.90329342  0.31324009  0.73471377  1  0.505584  -0.020857  0.107136  0.114056  -0.021091  4.036123  -0.009
C  C68  1  0.96499197  0.68433125  0.28982374  1  0.52176  -0.02479  0.107518  0.113278  -0.025213  4.025078  -0.012
C  C69  1  0.03532952  0.31565046  0.71022485  1  0.516091  -0.024863  0.107598  0.113543  -0.025248  4.026058  -0.012
C  C70  1  0.29785256  0.84506506  0.17224791  1  0.863031  0.029413  0.208181  0.286251  0.021823  4.031756  0.033
C  C71  1  0.70195707  0.15527022  0.82793797  1  0.865798  0.029595  0.209067  0.288686  0.021951  4.032755  0.034
C  C72  1  0.26239253  0.76759718  0.20515510  1  0.196952  -0.111267  0.00309  -0.068712  -0.115965  4.094227  -0.071
C  C73  1  0.73810514  0.23275880  0.79567387  1  0.187896  -0.111411  0.002009  -0.070723  -0.115988  4.096445  -0.071
C  C74  1  0.36482664  0.69244866  0.19928752  1  0.867994  0.006135  0.181946  0.261761  0.003186  4.048298  0.013
C  C75  1  0.63673422  0.30827780  0.80306567  1  0.875354  0.00622  0.182498  0.261626  0.003118  4.046753  0.013
C  C76  1  0.55642212  0.58206992  0.62072058  1  1.470561  -0.010619  0.216939  0.552617  -0.011841  4.120963  -0.007
C  C77  1  0.44426849  0.41775577  0.37925957  1  1.472022  -0.010611  0.216246  0.551984  -0.011838  4.122252  -0.007
C  C78  1  0.59775030  0.61744088  0.69115263  1  -0.005986  0.000418  -0.034906  -0.163252  -0.000301  3.971618  0.0
C  C79  1  0.40275776  0.38258468  0.30877319  1  -0.031758  0.000413  -0.034508  -0.163063  -0.000298  3.971276  0.0
C  C80  1  0.64025581  0.69854986  0.68990199  1  0.495541  -0.002264  0.09588  0.262909  -0.002309  4.02643  -0.002
C  C81  1  0.36020855  0.30150467  0.30993593  1  0.480148  -0.002267  0.096191  0.26303  -0.002309  4.025817  -0.002
C  C82  1  0.67039705  0.83367393  0.62052132  1  0.353525  5.2e-05  -0.134367  -0.17995  3.1e-05  3.882414  0.0
C  C83  1  0.33015835  0.16624508  0.37918289  1  0.371054  5e-05  -0.134486  -0.179454  2.8e-05  3.882501  0.0
C  C84  1  0.68337335  0.72401736  0.75963672  1  0.024504  0.000766  -0.119281  -0.307594  0.000444  3.990733  0.001
C  C85  1  0.31677381  0.27624689  0.24022250  1  0.050789  0.000768  -0.119612  -0.307506  0.000444  3.989697  0.001
C  C86  1  0.68319173  0.66967589  0.82923749  1  0.033969  -0.002657  0.014566  0.181269  -0.00269  4.091304  -0.002
C  C87  1  0.31668045  0.33075597  0.17070534  1  0.011826  -0.00266  0.015174  0.182008  -0.00269  4.090022  -0.002
C  C88  1  0.63936106  0.59073090  0.83202603  1  -0.007071  0.000782  -0.116827  -0.199063  0.000416  4.043329  0.001
C  C89  1  0.36052470  0.40969712  0.16799026  1  -0.016067  0.000781  -0.117266  -0.20052  0.000413  4.044213  0.001
C  C90  1  0.59648470  0.56585159  0.76291829  1  -0.020742  -0.002653  -0.080894  -0.053289  -0.002714  3.977992  -0.002
C  C91  1  0.40383645  0.43434061  0.23707484  1  0.020715  -0.002632  -0.08108  -0.05333  -0.002707  3.977696  -0.002
C  C92  1  0.29444083  0.62607456  0.47220227  1  1.476501  -0.010531  0.212831  0.544642  -0.011706  4.133776  -0.007
C  C93  1  0.70625263  0.37363144  0.52782919  1  1.47909  -0.010543  0.212527  0.545352  -0.011691  4.134253  -0.007
C  C94  1  0.18576890  0.70218149  0.46072819  1  0.046662  0.000649  -0.036491  -0.163274  -0.000188  3.975898  0.001
C  C95  1  0.81496641  0.29762089  0.53926305  1  0.052066  0.000646  -0.03553  -0.163453  -0.000195  3.9767  0.001
C  C96  1  0.05604772  0.69873156  0.48137162  1  0.475741  -0.002904  0.095286  0.269355  -0.002915  4.011437  -0.002
C  C97  1  0.94464889  0.30123992  0.51866395  1  0.47398  -0.002897  0.096136  0.271108  -0.002908  4.007269  -0.002
C  C98  1  0.89672682  0.61491225  0.52143017  1  0.348102  0.000477  -0.146366  -0.180506  0.000292  3.870501  0.0
C  C99  1  0.10392872  0.38526038  0.47887813  1  0.347809  0.000478  -0.147292  -0.182305  0.000294  3.87152  0.0
C  C100  1  0.96098109  0.77709272  0.47602085  1  -0.015125  -0.000306  -0.122148  -0.31355  -0.000828  3.996074  0.0
C  C101  1  0.03976175  0.22290697  0.52388976  1  -0.015411  -0.000357  -0.122227  -0.313795  -0.000879  3.995798  0.0
C  C102  1  0.99435597  0.85686580  0.44911663  1  0.020909  -0.002865  0.016742  0.185214  -0.00301  4.079104  -0.002
C  C103  1  0.00657304  0.14305279  0.55072475  1  0.021136  -0.002871  0.015973  0.18452  -0.003013  4.082109  -0.002
C  C104  1  0.12034093  0.86128600  0.42554429  1  0.052137  0.000735  -0.113062  -0.198189  0.000225  4.032706  0.001
C  C105  1  0.88066074  0.13849765  0.57437201  1  0.059526  0.000731  -0.112245  -0.196763  0.000227  4.033795  0.001
C  C106  1  0.21409493  0.78367131  0.43176809  1  -0.015043  -0.003512  -0.076131  -0.04611  -0.003803  3.96804  -0.002
C  C107  1  0.78684026  0.21606884  0.56820251  1  -0.029384  -0.003516  -0.076801  -0.046753  -0.003802  3.970571  -0.002
C  C108  1  0.70427633  0.88027656  0.04205868  1  1.480741  -0.010596  0.213631  0.546226  -0.011769  4.139024  -0.007
C  C109  1  0.29477439  0.11999583  0.95772366  1  1.459584  -0.010641  0.213348  0.5458  -0.011767  4.138751  -0.007
C  C110  1  0.81140656  0.80564646  0.06114317  1  -0.01056  0.000554  -0.036667  -0.163024  -0.000258  3.969829  0.001
C  C111  1  0.18735897  0.19443938  0.93872689  1  -0.026311  0.000552  -0.035337  -0.160366  -0.000267  3.968494  0.001
C  C112  1  0.94157083  0.80616562  0.03927299  1  0.550122  -0.002735  0.09765  0.273898  -0.002775  4.011859  -0.002
C  C113  1  0.05728046  0.19356061  0.96056438  1  0.547998  -0.002719  0.096909  0.271056  -0.002754  4.01112  -0.002
C  C114  1  0.10273769  0.88519489  0.99037475  1  0.363449  0.000433  -0.145143  -0.178399  0.000278  3.860055  0.0
C  C115  1  0.89660252  0.11402750  0.00924038  1  0.364324  0.000429  -0.144814  -0.175393  0.000275  3.860328  0.0
C  C116  1  0.03453227  0.72734423  0.04921961  1  -0.052223  9.7e-05  -0.122625  -0.313776  -0.000442  3.993265  0.0
C  C117  1  0.96401206  0.27225251  0.95079198  1  -0.010016  3.7e-05  -0.121512  -0.311472  -0.000501  3.992812  0.0
C  C118  1  0.99794873  0.65019123  0.08101518  1  0.044557  -0.002779  0.015149  0.183159  -0.002908  4.084549  -0.002
C  C119  1  0.00026364  0.34961680  0.91924278  1  0.060886  -0.00277  0.015242  0.183302  -0.002891  4.083777  -0.002
C  C120  1  0.87205273  0.64955492  0.10742493  1  0.058244  0.000724  -0.11173  -0.19623  0.000224  4.028351  0.001
C  C121  1  0.12607661  0.35061193  0.89289238  1  -0.0047  0.000725  -0.112273  -0.196173  0.000231  4.02986  0.001
C  C122  1  0.78044922  0.72776566  0.09736160  1  -0.069132  -0.003712  -0.0778  -0.046127  -0.004084  3.981036  -0.002
C  C123  1  0.21796307  0.27252857  0.90276787  1  -0.005016  -0.003668  -0.078201  -0.047302  -0.004058  3.982144  -0.002
C  C124  1  0.44107158  0.89415421  0.89887667  1  1.473448  -0.010655  0.217042  0.554406  -0.011957  4.122436  -0.007
C  C125  1  0.55841594  0.10607804  0.10094241  1  1.469148  -0.010665  0.216651  0.552718  -0.011961  4.12405  -0.007
C  C126  1  0.39480911  0.84545571  0.83884598  1  0.033102  0.000437  -0.034002  -0.164287  -0.000305  3.980169  0.0
C  C127  1  0.60495673  0.15459868  0.16100210  1  0.035125  0.00044  -0.033426  -0.162373  -0.000307  3.979321  0.0
C  C128  1  0.35892527  0.76274580  0.85677415  1  0.518263  -0.002066  0.096982  0.263368  -0.002117  4.029237  -0.001
C  C129  1  0.64081701  0.23732143  0.14307691  1  0.514663  -0.002065  0.096938  0.262861  -0.002116  4.030192  -0.001
C  C130  1  0.35245643  0.63809906  0.94881870  1  0.323941  2.7e-05  -0.138689  -0.182755  1.1e-05  3.887859  0.0
C  C131  1  0.64677692  0.36206604  0.05103444  1  0.375288  1.3e-05  -0.138751  -0.183306  3e-06  3.889664  0.0
C  C132  1  0.30690026  0.72381343  0.79780205  1  0.039051  0.000704  -0.116685  -0.3006  0.000401  3.982094  0.001
C  C133  1  0.69310092  0.27618168  0.20198902  1  0.041979  0.000704  -0.116377  -0.300034  0.000401  3.982269  0.001
C  C134  1  0.29139204  0.76686324  0.72240389  1  0.047837  -0.002368  0.017179  0.182185  -0.002403  4.090849  -0.002
C  C135  1  0.70878542  0.23306230  0.27735689  1  0.045274  -0.002366  0.016782  0.181575  -0.002401  4.09009  -0.002
C  C136  1  0.32987016  0.84685915  0.70277032  1  -0.019991  0.000851  -0.113164  -0.200369  0.000514  4.03294  0.001
C  C137  1  0.67037019  0.15302981  0.29697620  1  -0.008209  0.000851  -0.112958  -0.200171  0.000514  4.032052  0.001
C  C138  1  0.38216767  0.88498878  0.76146448  1  -0.077559  -0.002564  -0.080508  -0.061161  -0.002596  3.988983  -0.002
C  C139  1  0.61780462  0.11496838  0.23834249  1  -0.07844  -0.00256  -0.081077  -0.062248  -0.002594  3.987774  -0.002
S  S140  1  0.90695920  0.98883765  0.20751889  1  1.265404  0.017282  0.404487  0.451936  0.010145  3.326539  0.013
S  S141  1  0.09273571  0.01107954  0.79218785  1  1.263933  0.017306  0.404579  0.452055  0.010151  3.325206  0.013
S  S142  1  0.09201823  0.53781966  0.31012323  1  1.282784  0.017622  0.410351  0.460487  0.010388  3.334175  0.013
S  S143  1  0.90869548  0.46227984  0.69004175  1  1.285002  0.017635  0.410801  0.461386  0.010389  3.331769  0.013
N  N144  1  0.65976270  0.62198862  0.37711063  1  -1.192121  -0.066956  -0.329145  -0.346118  -0.075603  3.155514  -0.067
N  N145  1  0.34145993  0.37750336  0.62295585  1  -1.19611  -0.066864  -0.329024  -0.345845  -0.075585  3.156868  -0.067
N  N146  1  0.54112713  0.89309260  0.31879126  1  -1.110407  -0.067019  -0.317675  -0.37232  -0.066423  2.699282  -0.048
N  N147  1  0.45840293  0.10642872  0.68052784  1  -1.114547  -0.066917  -0.318103  -0.372841  -0.066304  2.697548  -0.048
N  N148  1  0.82107494  0.92004587  0.24382351  1  -1.175107  -0.018933  -0.298886  -0.337557  -0.018017  3.205533  -0.014
N  N149  1  0.17873326  0.07976909  0.75582465  1  -1.173003  -0.018783  -0.299058  -0.33783  -0.017878  3.205033  -0.013
N  N150  1  0.04709436  0.92395729  0.20215701  1  -1.174081  -0.019077  -0.302798  -0.332679  -0.018148  3.179993  -0.014
N  N151  1  0.95272624  0.07611824  0.79776776  1  -1.176084  -0.019165  -0.302802  -0.333149  -0.018236  3.179365  -0.014
N  N152  1  0.17758406  0.60725404  0.27532209  1  -1.196933  -0.020668  -0.298139  -0.335263  -0.019805  3.205337  -0.015
N  N153  1  0.82296593  0.39300635  0.72499073  1  -1.198731  -0.020722  -0.298216  -0.336258  -0.019875  3.204183  -0.015
N  N154  1  0.95151423  0.60223581  0.31612455  1  -1.175935  -0.017305  -0.30159  -0.334827  -0.016304  3.177645  -0.012
N  N155  1  0.04903664  0.39766896  0.68384543  1  -1.179471  -0.017256  -0.30209  -0.335659  -0.016259  3.176863  -0.012
N  N156  1  0.33713215  0.90472606  0.14110060  1  -1.188143  -0.067089  -0.337068  -0.350262  -0.076017  3.173094  -0.068
N  N157  1  0.66189840  0.09575771  0.85872422  1  -1.187544  -0.067219  -0.337614  -0.351614  -0.076171  3.174473  -0.068
N  N158  1  0.45605204  0.63647780  0.18790204  1  -1.144666  -0.065154  -0.31134  -0.369639  -0.064733  2.72979  -0.047
N  N159  1  0.54657588  0.36459994  0.81585366  1  -1.145571  -0.064923  -0.311723  -0.369561  -0.064383  2.729139  -0.047
Cl  Cl160  1  0.73667253  0.70207444  0.91453829  1  -0.21279  -0.000576  0.003046  -0.063317  -0.000644  1.584026  0.0
Cl  Cl161  1  0.26268371  0.29858073  0.08546801  1  -0.212219  -0.000577  0.003172  -0.062924  -0.000645  1.582073  0.0
Cl  Cl162  1  0.87508911  0.95265118  0.44464875  1  -0.210864  -0.000565  0.002766  -0.075899  -0.000486  1.513376  0.0
Cl  Cl163  1  0.12600975  0.04737091  0.55509214  1  -0.213345  -0.00057  0.002956  -0.075785  -0.00049  1.514936  0.0
Cl  Cl164  1  0.11213060  0.55209111  0.08761589  1  -0.214595  -0.000574  0.00454  -0.084758  -0.000514  1.596423  0.0
Cl  Cl165  1  0.88577076  0.44754667  0.91273905  1  -0.214591  -0.000581  0.005244  -0.084168  -0.000513  1.599185  0.0
Cl  Cl166  1  0.22320363  0.71871335  0.65165379  1  -0.19996  -0.000212  0.004873  -0.056101  -0.000336  1.552872  0.0
Cl  Cl167  1  0.77733329  0.28113463  0.34801189  1  -0.202007  -0.000212  0.004847  -0.056026  -0.000336  1.551126  0.0
O  O168  1  0.60112131  0.60162069  0.55103210  1  -1.061567  0.040388  -0.290801  -0.451569  0.026657  2.444902  0.03
O  O169  1  0.39969828  0.39807144  0.44895083  1  -1.061599  0.040372  -0.290949  -0.451416  0.026638  2.44423  0.03
O  O170  1  0.47957053  0.52827493  0.63324954  1  -1.054935  0.043988  -0.293633  -0.450718  0.028953  2.446876  0.032
O  O171  1  0.52109565  0.47156102  0.36676813  1  -1.056164  0.044118  -0.293023  -0.449852  0.029053  2.447337  0.032
O  O172  1  0.63407932  0.74945696  0.62083730  1  -1.069959  -0.000267  -0.177056  -0.143963  -0.000298  2.583775  0.0
O  O173  1  0.36651350  0.25044488  0.37891492  1  -1.066715  -0.00027  -0.177342  -0.144057  -0.0003  2.585016  0.0
O  O174  1  0.40214401  0.63256409  0.43662069  1  -1.069789  0.045618  -0.294246  -0.450366  0.030298  2.437873  0.034
O  O175  1  0.59858701  0.36709577  0.56343796  1  -1.063284  0.045478  -0.294533  -0.450546  0.030183  2.438174  0.033
O  O176  1  0.28192529  0.55859168  0.51892645  1  -1.054793  0.047873  -0.292566  -0.453199  0.032286  2.458072  0.035
O  O177  1  0.71877671  0.44111033  0.48110754  1  -1.062395  0.04787  -0.292514  -0.453348  0.032282  2.457645  0.035
O  O178  1  0.02872329  0.61890658  0.50403576  1  -1.07025  -0.000869  -0.177043  -0.14354  -0.000945  2.599116  -0.001
O  O179  1  0.97193763  0.38112578  0.49619933  1  -1.066597  -0.000865  -0.177412  -0.143607  -0.000941  2.597219  -0.001
O  O180  1  0.59759966  0.88208100  0.08198126  1  -1.059568  0.046122  -0.292818  -0.447697  0.030792  2.438836  0.034
O  O181  1  0.40144347  0.11834060  0.91782569  1  -1.070957  0.046061  -0.293098  -0.447458  0.030701  2.436986  0.034
O  O182  1  0.71702730  0.93725827  0.98441705  1  -1.054409  0.048383  -0.291562  -0.44885  0.032649  2.444966  0.035
O  O183  1  0.28212722  0.06296439  0.01533949  1  -1.054551  0.048567  -0.291451  -0.448931  0.032721  2.445833  0.035
O  O184  1  0.97066843  0.88385142  0.01100932  1  -1.068603  -0.000551  -0.175244  -0.14143  -0.000612  2.591254  0.0
O  O185  1  0.02854641  0.11566251  0.98851311  1  -1.068753  -0.000544  -0.174731  -0.14089  -0.000606  2.590949  0.0
O  O186  1  0.39790696  0.88917776  0.97113847  1  -1.063205  0.037231  -0.289579  -0.45543  0.024622  2.459613  0.028
O  O187  1  0.60144259  0.11114583  0.02865525  1  -1.063844  0.037258  -0.289265  -0.454885  0.024608  2.460274  0.028
O  O188  1  0.51912927  0.94422012  0.87429657  1  -1.055363  0.04253  -0.291643  -0.443024  0.028012  2.417485  0.03
O  O189  1  0.48022437  0.05609362  0.12547179  1  -1.058119  0.042596  -0.291667  -0.442588  0.028058  2.417777  0.03
O  O190  1  0.37994207  0.72436427  0.93083964  1  -1.056488  -0.000226  -0.176602  -0.142932  -0.000251  2.592386  0.0
O  O191  1  0.61967787  0.27569351  0.06902559  1  -1.05832  -0.000224  -0.176667  -0.142409  -0.000248  2.594072  0.0
