# generated using pymatgen
data_AgH4C7NO
_symmetry_space_group_name_H-M   'P 1'
_cell_length_a   7.25489582
_cell_length_b   10.92993663
_cell_length_c   13.25783671
_cell_angle_alpha   113.74609078
_cell_angle_beta   105.02380658
_cell_angle_gamma   91.97452964
_symmetry_Int_Tables_number   1
_chemical_formula_structural   AgH4C7NO
_chemical_formula_sum   'Ag6 H24 C42 N6 O6'
_cell_volume   917.85879732
_cell_formula_units_Z   6
loop_
 _symmetry_equiv_pos_site_id
 _symmetry_equiv_pos_as_xyz
  1  'x, y, z'
loop_
 _atom_site_type_symbol
 _atom_site_label
 _atom_site_symmetry_multiplicity
 _atom_site_fract_x
 _atom_site_fract_y
 _atom_site_fract_z
 _atom_site_occupancy
 _atom_site_hle17_bader_spin_density
 _atom_site_hle17_ddec_charge
 _atom_site_hle17_ddec_spin_density
 _atom_site_hle17_ddec_sum_bond_order
 _atom_site_hle17_magmom
 _atom_site_hse06_10hf_bader_spin_density
 _atom_site_hse06_10hf_ddec_charge
 _atom_site_hse06_10hf_ddec_spin_density
 _atom_site_hse06_10hf_ddec_sum_bond_order
 _atom_site_hse06_10hf_magmom
 _atom_site_hse06_bader_spin_density
 _atom_site_hse06_ddec_charge
 _atom_site_hse06_ddec_spin_density
 _atom_site_hse06_ddec_sum_bond_order
 _atom_site_hse06_magmom
 _atom_site_pbe_bader_spin_density
 _atom_site_pbe_cm5_charge
 _atom_site_pbe_ddec_charge
 _atom_site_pbe_ddec_spin_density
 _atom_site_pbe_ddec_sum_bond_order
 _atom_site_pbe_magmom
Ag  Ag0  1  0.72559526  0.93835432  0.32657142  1  0  0.629288  0  1.440583  0  0  0.532132  0  1.870095  0  0  0.552399  0  1.830934  0  0  0.48716  0.519507  0  1.895973  0
Ag  Ag1  1  0.89884860  0.61158601  0.67350236  1  0  0.629813  0  1.440011  0  0  0.53303  0  1.869776  0  0  0.553151  0  1.83071  0  0  0.487406  0.52018  0  1.895611  0
Ag  Ag2  1  0.94310275  0.63566109  0.16098892  1  0  0.657609  0  1.346713  0  0  0.548772  0  1.777931  0  0  0.573888  0  1.734157  0  0  0.472017  0.53206  0  1.807523  0
Ag  Ag3  1  0.28200990  0.47461880  0.83891531  1  0  0.658081  0  1.347714  0  0  0.549669  0  1.778306  0  0  0.574611  0  1.734807  0  0  0.472122  0.532632  0  1.807977  0
Ag  Ag4  1  0.63137893  0.80170251  0.99575122  1  0  0.672961  0  1.373925  0  0  0.568298  0  1.808789  0  0  0.59388  0  1.759889  0  0  0.476943  0.550281  0  1.842673  0
Ag  Ag5  1  0.13572908  0.80568654  0.00426085  1  0  0.67228  0  1.373213  0  0  0.567749  0  1.808029  0  0  0.593349  0  1.759147  0  0  0.476463  0.549374  0  1.842301  0
H  H6  1  0.13339286  0.59798867  0.35303459  1  0  0.097966  0  0.999386  0  0  0.106373  0  1.06775  0  0  0.10915  0  1.067722  0  0  0.091469  0.104508  0  1.067723  0
H  H7  1  0.28039526  0.24496932  0.64693424  1  0  0.097091  0  0.998874  0  0  0.105896  0  1.067135  0  0  0.108713  0  1.067066  0  0  0.09129  0.104083  0  1.067012  0
H  H8  1  0.29237159  0.58312132  0.53628882  1  0  0.101767  0  0.942161  0  0  0.115807  0  0.996491  0  0  0.117928  0  0.995649  0  0  0.103891  0.114056  0  0.997611  0
H  H9  1  0.25606078  0.04672209  0.46361042  1  0  0.100696  0  0.94142  0  0  0.115478  0  0.995028  0  0  0.117697  0  0.994041  0  0  0.10361  0.113682  0  0.996227  0
H  H10  1  0.11897091  0.96156225  0.72649223  1  0  0.09806  0  0.938435  0  0  0.112863  0  0.992085  0  0  0.115089  0  0.991054  0  0  0.104061  0.111335  0  0.992663  0
H  H11  1  0.89283114  0.23518085  0.27346304  1  0  0.098328  0  0.938809  0  0  0.113341  0  0.992167  0  0  0.115488  0  0.99125  0  0  0.103867  0.111884  0  0.992667  0
H  H12  1  0.96252472  0.97694616  0.54335757  1  0  0.099336  0  0.996964  0  0  0.10875  0  1.063746  0  0  0.111622  0  1.063563  0  0  0.092237  0.106587  0  1.064322  0
H  H13  1  0.91961000  0.43372810  0.45659912  1  0  0.099778  0  0.995997  0  0  0.108541  0  1.063301  0  0  0.11141  0  1.063139  0  0  0.092417  0.106444  0  1.06372  0
H  H14  1  0.01477977  0.42806905  0.96063057  1  0  0.111571  0  0.978098  0  0  0.120459  0  1.041802  0  0  0.123716  0  1.040705  0  0  0.097007  0.118195  0  1.042586  0
H  H15  1  0.55469444  0.46751778  0.03917878  1  0  0.112015  0  0.977501  0  0  0.120477  0  1.041666  0  0  0.123741  0  1.040585  0  0  0.097182  0.118164  0  1.042565  0
H  H16  1  0.96081854  0.22027118  0.77915726  1  0  0.099752  0  0.936917  0  0  0.113249  0  0.993034  0  0  0.115533  0  0.991695  0  0  0.106229  0.111533  0  0.994107  0
H  H17  1  0.68216564  0.44100867  0.22055385  1  0  0.099089  0  0.93687  0  0  0.112777  0  0.992922  0  0  0.115018  0  0.991596  0  0  0.106103  0.111117  0  0.993963  0
H  H18  1  0.54406365  0.39176172  0.59752750  1  0  0.104196  0  0.939823  0  0  0.117412  0  0.994801  0  0  0.119519  0  0.993709  0  0  0.10664  0.115803  0  0.995741  0
H  H19  1  0.44669722  0.79394287  0.40233428  1  0  0.103335  0  0.941259  0  0  0.116769  0  0.995867  0  0  0.118916  0  0.994747  0  0  0.106284  0.115046  0  0.996922  0
H  H20  1  0.59886242  0.59978674  0.77936640  1  0  0.110919  0  0.995354  0  0  0.117393  0  1.064241  0  0  0.121081  0  1.061629  0  0  0.095992  0.11483  0  1.066139  0
H  H21  1  0.31983377  0.82031933  0.22060174  1  0  0.110916  0  0.993837  0  0  0.11738  0  1.062987  0  0  0.121056  0  1.060326  0  0  0.096145  0.114835  0  1.064906  0
H  H22  1  0.40732846  0.98954926  0.97491568  1  0  0.098308  0  1.009337  0  0  0.105514  0  1.079853  0  0  0.108575  0  1.078639  0  0  0.091612  0.103375  0  1.080918  0
H  H23  1  0.93260301  0.01471798  0.02528348  1  0  0.098648  0  1.008871  0  0  0.10555  0  1.079747  0  0  0.108694  0  1.078484  0  0  0.091316  0.10337  0  1.080846  0
H  H24  1  0.19673570  0.16202665  0.97140346  1  0  0.096857  0  0.940049  0  0  0.111032  0  0.993875  0  0  0.113138  0  0.993231  0  0  0.103251  0.109525  0  0.994232  0
H  H25  1  0.72564581  0.19071353  0.02877298  1  0  0.096996  0  0.940232  0  0  0.111334  0  0.994031  0  0  0.113358  0  0.993483  0  0  0.103095  0.109877  0  0.994307  0
H  H26  1  0.36029925  0.34346852  0.34441920  1  0  0.094238  0  0.945952  0  0  0.108286  0  1.001462  0  0  0.110339  0  1.000962  0  0  0.102388  0.1068  0  1.001766  0
H  H27  1  0.51593862  0.99914264  0.65579169  1  0  0.093833  0  0.945761  0  0  0.10797  0  1.001274  0  0  0.110014  0  1.000745  0  0  0.102532  0.106516  0  1.001556  0
H  H28  1  0.57208750  0.17198120  0.34750624  1  0  0.0994  0  0.989198  0  0  0.108344  0  1.056696  0  0  0.111366  0  1.056272  0  0  0.09261  0.106256  0  1.05709  0
H  H29  1  0.72433375  0.82446276  0.65275071  1  0  0.100281  0  0.988773  0  0  0.109497  0  1.055665  0  0  0.112505  0  1.055273  0  0  0.093053  0.107367  0  1.056161  0
C  C30  1  0.03814145  0.78967738  0.43380209  1  0  0.379485  0  3.892587  0  0  0.368076  0  4.139113  0  0  0.388015  0  4.154305  0  0  0.080472  0.354482  0  4.1289  0
C  C31  1  0.10444203  0.35584942  0.56614139  1  0  0.379379  0  3.891408  0  0  0.367191  0  4.139378  0  0  0.387072  0  4.15457  0  0  0.080079  0.353444  0  4.129068  0
C  C32  1  0.13229576  0.67783526  0.43512891  1  0  -0.227095  0  3.754394  0  0  -0.239818  0  4.003615  0  0  -0.252029  0  4.026213  0  0  -0.121394  -0.231931  0  3.988407  0
C  C33  1  0.19723369  0.24267435  0.56480340  1  0  -0.226215  0  3.752861  0  0  -0.23903  0  4.002255  0  0  -0.251266  0  4.024876  0  0  -0.120958  -0.231107  0  3.987033  0
C  C34  1  0.22043416  0.66916325  0.53717160  1  0  -0.052419  0  3.766701  0  0  -0.076164  0  4.013623  0  0  -0.070817  0  4.032293  0  0  -0.083633  -0.079288  0  4.001041  0
C  C35  1  0.18331332  0.13196275  0.46277166  1  0  -0.051614  0  3.765591  0  0  -0.075531  0  4.01277  0  0  -0.070269  0  4.031485  0  0  -0.083801  -0.078742  0  4.000278  0
C  C36  1  0.21691574  0.77142675  0.64390202  1  0  -0.067956  0  3.959573  0  0  -0.041987  0  4.195817  0  0  -0.051987  0  4.218576  0  0  -0.036406  -0.035337  0  4.18036  0
C  C37  1  0.07313370  0.12753038  0.35606780  1  0  -0.066969  0  3.961222  0  0  -0.042126  0  4.199246  0  0  -0.052145  0  4.222052  0  0  -0.03622  -0.035386  0  4.183698  0
C  C38  1  0.12296577  0.88291237  0.64450965  1  0  -0.05229  0  3.77855  0  0  -0.076128  0  4.028267  0  0  -0.07113  0  4.046923  0  0  -0.0832  -0.078834  0  4.015001  0
C  C39  1  0.97874298  0.23847915  0.35544793  1  0  -0.053529  0  3.780117  0  0  -0.077309  0  4.030036  0  0  -0.072277  0  4.048662  0  0  -0.083589  -0.080055  0  4.016666  0
C  C40  1  0.03577817  0.89139581  0.54238876  1  0  -0.223922  0  3.744623  0  0  -0.238905  0  3.995661  0  0  -0.250505  0  4.017522  0  0  -0.119448  -0.231402  0  3.981397  0
C  C41  1  0.99368491  0.34907420  0.45756497  1  0  -0.224072  0  3.743518  0  0  -0.238204  0  3.99506  0  0  -0.249757  0  4.016842  0  0  -0.119356  -0.23056  0  3.980569  0
C  C42  1  0.31277959  0.76510450  0.74809297  1  0  0.336779  0  3.761748  0  0  0.315372  0  4.028398  0  0  0.332628  0  4.042334  0  0  0.201659  0.303194  0  4.019626  0
C  C43  1  0.06467232  0.01695601  0.25186889  1  0  0.335077  0  3.761761  0  0  0.313811  0  4.028858  0  0  0.331043  0  4.042848  0  0  0.201705  0.30166  0  4.020022  0
C  C44  1  0.80931797  0.52916710  0.88442534  1  0  0.39001  0  3.875413  0  0  0.374989  0  4.126738  0  0  0.396338  0  4.138097  0  0  0.0816  0.360729  0  4.118298  0
C  C45  1  0.42528723  0.64470163  0.11547335  1  0  0.390541  0  3.873961  0  0  0.375562  0  4.125175  0  0  0.396863  0  4.136546  0  0  0.082226  0.361305  0  4.116789  0
C  C46  1  0.91481444  0.42036548  0.88047227  1  0  -0.238513  0  3.756385  0  0  -0.250994  0  4.013402  0  0  -0.261847  0  4.032065  0  0  -0.123513  -0.244042  0  4.000859  0
C  C47  1  0.53484547  0.53987993  0.11934309  1  0  -0.238813  0  3.755699  0  0  -0.251145  0  4.013098  0  0  -0.261977  0  4.031727  0  0  -0.123798  -0.24426  0  4.000742  0
C  C48  1  0.88254000  0.30367877  0.77935977  1  0  -0.047509  0  3.771558  0  0  -0.072284  0  4.02225  0  0  -0.0667  0  4.040625  0  0  -0.079852  -0.075584  0  4.009485  0
C  C49  1  0.60357735  0.52418989  0.22043833  1  0  -0.047099  0  3.771236  0  0  -0.071992  0  4.021864  0  0  -0.066391  0  4.040347  0  0  -0.0803  -0.075411  0  4.009118  0
C  C50  1  0.74672929  0.29102373  0.67623259  1  0  -0.042641  0  3.919842  0  0  -0.019952  0  4.153146  0  0  -0.03151  0  4.180283  0  0  -0.028923  -0.012605  0  4.134924  0
C  C51  1  0.57071266  0.61452118  0.32356403  1  0  -0.042727  0  3.91964  0  0  -0.020037  0  4.152886  0  0  -0.031563  0  4.179989  0  0  -0.02876  -0.012642  0  4.13466  0
C  C52  1  0.64824061  0.40057110  0.67678059  1  0  -0.056052  0  3.772993  0  0  -0.07849  0  4.022856  0  0  -0.072286  0  4.038774  0  0  -0.084374  -0.082339  0  4.011916  0
C  C53  1  0.47167066  0.72353465  0.32307513  1  0  -0.055392  0  3.775642  0  0  -0.077998  0  4.02507  0  0  -0.071844  0  4.040956  0  0  -0.084212  -0.081698  0  4.014087  0
C  C54  1  0.67954256  0.51718540  0.77822814  1  0  -0.260232  0  3.798493  0  0  -0.27083  0  4.061677  0  0  -0.279597  0  4.075209  0  0  -0.131995  -0.265388  0  4.052065  0
C  C55  1  0.40162220  0.73880793  0.22167091  1  0  -0.25995  0  3.799709  0  0  -0.270352  0  4.062257  0  0  -0.279145  0  4.07596  0  0  -0.131696  -0.264941  0  4.05259  0
C  C56  1  0.70788257  0.17129410  0.57414892  1  0  0.324521  0  3.753487  0  0  0.307068  0  4.017618  0  0  0.322801  0  4.035355  0  0  0.204609  0.296363  0  4.005746  0
C  C57  1  0.63399360  0.59695205  0.42569220  1  0  0.324399  0  3.75172  0  0  0.307166  0  4.015422  0  0  0.322841  0  4.033164  0  0  0.204821  0.296311  0  4.003768  0
C  C58  1  0.50529691  0.06645518  0.16147174  1  0  0.375911  0  3.896434  0  0  0.364044  0  4.145157  0  0  0.384458  0  4.158563  0  0  0.078794  0.351049  0  4.135172  0
C  C59  1  0.84379050  0.90493462  0.83869472  1  0  0.376962  0  3.896002  0  0  0.365241  0  4.144672  0  0  0.385659  0  4.158061  0  0  0.080258  0.352227  0  4.134697  0
C  C60  1  0.39505941  0.06651624  0.05542657  1  0  -0.251008  0  3.79709  0  0  -0.263842  0  4.054334  0  0  -0.274282  0  4.072901  0  0  -0.126636  -0.257598  0  4.04182  0
C  C61  1  0.83982397  0.01116618  0.94476017  1  0  -0.251782  0  3.794877  0  0  -0.264172  0  4.052124  0  0  -0.274728  0  4.07071  0  0  -0.127061  -0.257899  0  4.03968  0
C  C62  1  0.27841851  0.16332577  0.05340385  1  0  -0.041241  0  3.760616  0  0  -0.062989  0  4.003409  0  0  -0.058387  0  4.02364  0  0  -0.080829  -0.064953  0  3.989006  0
C  C63  1  0.72525002  0.10999686  0.94676113  1  0  -0.04163  0  3.76081  0  0  -0.063611  0  4.003967  0  0  -0.058971  0  4.024283  0  0  -0.080858  -0.065571  0  3.989525  0
C  C64  1  0.26288136  0.26409452  0.15754628  1  0  -0.054523  0  3.939051  0  0  -0.0302  0  4.172539  0  0  -0.041924  0  4.20034  0  0  -0.033138  -0.02319  0  4.153801  0
C  C65  1  0.60550847  0.10677022  0.84269603  1  0  -0.056454  0  3.938219  0  0  -0.032239  0  4.172381  0  0  -0.043951  0  4.200094  0  0  -0.033668  -0.025231  0  4.153667  0
C  C66  1  0.37166543  0.26616272  0.26373519  1  0  -0.054698  0  3.780166  0  0  -0.077372  0  4.026361  0  0  -0.073499  0  4.048236  0  0  -0.083183  -0.079172  0  4.010906  0
C  C67  1  0.60796417  0.00254414  0.73648944  1  0  -0.05155  0  3.77394  0  0  -0.074225  0  4.02043  0  0  -0.070297  0  4.042195  0  0  -0.082906  -0.076087  0  4.005066  0
C  C68  1  0.49009096  0.17053056  0.26548926  1  0  -0.216436  0  3.742199  0  0  -0.231254  0  3.993067  0  0  -0.24295  0  4.015423  0  0  -0.118606  -0.223807  0  3.977919  0
C  C69  1  0.72445326  0.90504948  0.73474354  1  0  -0.21973  0  3.74281  0  0  -0.234911  0  3.994413  0  0  -0.246622  0  4.016755  0  0  -0.1199  -0.227465  0  3.979324  0
C  C70  1  0.14088484  0.36052446  0.15503928  1  0  0.320942  0  3.769752  0  0  0.303007  0  4.031307  0  0  0.31888  0  4.049664  0  0  0.201554  0.292426  0  4.018782  0
C  C71  1  0.48601947  0.20571426  0.84520738  1  0  0.321867  0  3.77037  0  0  0.304028  0  4.03176  0  0  0.319915  0  4.050093  0  0  0.202354  0.293409  0  4.019265  0
N  N72  1  0.39524834  0.76034553  0.83473980  1  0  -0.497  0  2.955863  0  0  -0.445367  0  3.268639  0  0  -0.459705  0  3.265954  0  0  -0.363219  -0.436033  0  3.271372  0
N  N73  1  0.06040446  0.92547227  0.16523285  1  0  -0.494944  0  2.955038  0  0  -0.443136  0  3.267849  0  0  -0.457507  0  3.265215  0  0  -0.362522  -0.433786  0  3.270596  0
N  N74  1  0.66969282  0.07038966  0.48929339  1  0  -0.480293  0  2.914069  0  0  -0.435628  0  3.215446  0  0  -0.450037  0  3.217643  0  0  -0.361464  -0.426399  0  3.214155  0
N  N75  1  0.68070629  0.58125341  0.51071748  1  0  -0.480474  0  2.913615  0  0  -0.435854  0  3.214904  0  0  -0.450226  0  3.217064  0  0  -0.361683  -0.426616  0  3.213716  0
N  N76  1  0.03602940  0.43912651  0.15180295  1  0  -0.488573  0  2.906192  0  0  -0.436885  0  3.202654  0  0  -0.452869  0  3.205698  0  0  -0.359141  -0.426504  0  3.20045  0
N  N77  1  0.38426842  0.28745726  0.84832335  1  0  -0.488417  0  2.906689  0  0  -0.436742  0  3.203005  0  0  -0.45277  0  3.206184  0  0  -0.359336  -0.426319  0  3.200834  0
O  O78  1  0.95863531  0.80007896  0.33714471  1  0  -0.647438  0  2.198235  0  0  -0.558448  0  2.486885  0  0  -0.59262  0  2.481443  0  0  -0.3529  -0.534467  0  2.489895  0
O  O79  1  0.12145964  0.46285703  0.66279849  1  0  -0.647442  0  2.197061  0  0  -0.558337  0  2.486039  0  0  -0.592409  0  2.480612  0  0  -0.352528  -0.533946  0  2.488865  0
O  O80  1  0.83031248  0.63636957  0.98156958  1  0  -0.659165  0  2.236284  0  0  -0.567378  0  2.539848  0  0  -0.599741  0  2.526684  0  0  -0.34992  -0.544478  0  2.547525  0
O  O81  1  0.34910213  0.65475834  0.01831049  1  0  -0.659815  0  2.235384  0  0  -0.567751  0  2.538603  0  0  -0.600174  0  2.525723  0  0  -0.350296  -0.544709  0  2.546094  0
O  O82  1  0.61699485  0.97485210  0.16317713  1  0  -0.640821  0  2.189445  0  0  -0.552704  0  2.478507  0  0  -0.586059  0  2.470821  0  0  -0.350498  -0.529711  0  2.482246  0
O  O83  1  0.95359248  0.81149532  0.83689610  1  0  -0.640832  0  2.189685  0  0  -0.553377  0  2.479557  0  0  -0.586688  0  2.471855  0  0  -0.350803  -0.530324  0  2.483301  0
