# generated using pymatgen
data_Cu3H16C30(NO8)2
_symmetry_space_group_name_H-M   'P 1'
_cell_length_a   8.88158694
_cell_length_b   8.95866010
_cell_length_c   9.73357779
_cell_angle_alpha   96.86546771
_cell_angle_beta   105.32536846
_cell_angle_gamma   95.44057912
_symmetry_Int_Tables_number   1
_chemical_formula_structural   Cu3H16C30(NO8)2
_chemical_formula_sum   'Cu3 H16 C30 N2 O16'
_cell_volume   735.08657115
_cell_formula_units_Z   1
loop_
 _symmetry_equiv_pos_site_id
 _symmetry_equiv_pos_as_xyz
  1  'x, y, z'
loop_
 _atom_site_type_symbol
 _atom_site_label
 _atom_site_symmetry_multiplicity
 _atom_site_fract_x
 _atom_site_fract_y
 _atom_site_fract_z
 _atom_site_occupancy
 _atom_site_hle17_ddec_charge
 _atom_site_hle17_ddec_spin_density
 _atom_site_hle17_ddec_sum_bond_order
 _atom_site_hle17_magmom
 _atom_site_hse06_10hf_ddec_charge
 _atom_site_hse06_10hf_ddec_spin_density
 _atom_site_hse06_10hf_ddec_sum_bond_order
 _atom_site_hse06_10hf_magmom
 _atom_site_hse06_ddec_charge
 _atom_site_hse06_ddec_spin_density
 _atom_site_hse06_ddec_sum_bond_order
 _atom_site_hse06_magmom
 _atom_site_pbe_cm5_charge
 _atom_site_pbe_ddec_charge
 _atom_site_pbe_ddec_spin_density
 _atom_site_pbe_ddec_sum_bond_order
 _atom_site_pbe_magmom
Cu  Cu0  1  0.99999940  0.99999976  0.50000087  1  1.029363  0.716148  1.615584  0.502  1.034407  0.81959  2.010505  0.642  1.124938  0.909848  1.950082  0.74  0.711972  0.964369  0.716904  2.069962  0.551
Cu  Cu1  1  0.03914432  0.62590874  0.41324218  1  0.919017  -0.701552  1.781278  -0.517  0.910883  -0.800719  2.181506  -0.647  1.003084  -0.876713  2.110651  -0.741  0.725274  0.844604  -0.724757  2.240971  -0.569
Cu  Cu2  1  0.96085501  0.37409433  0.58675615  1  0.918982  -0.701554  1.781384  -0.517  0.910801  -0.800718  2.181658  -0.647  1.003026  -0.87671  2.110763  -0.741  0.725278  0.844556  -0.724765  2.24107  -0.569
H  H3  1  0.24309709  0.45077555  0.27659843  1  0.100404  -0.000975  0.941086  -0.002  0.10814  -0.000833  1.001752  -0.002  0.109745  -0.000602  1.000288  -0.001  0.124204  0.106511  -0.000987  1.003294  -0.002
H  H4  1  0.75690200  0.54923328  0.72339645  1  0.100415  -0.000974  0.940938  -0.002  0.108034  -0.000833  1.001772  -0.002  0.109634  -0.000602  1.000319  -0.001  0.124195  0.106404  -0.000987  1.003312  -0.002
H  H5  1  0.52336009  0.48614403  0.26879475  1  0.137937  -0.000642  0.969318  -0.001  0.144762  -0.000549  1.030894  -0.001  0.148845  -0.000361  1.027884  0.0  0.112857  0.141624  -0.000692  1.03357  -0.001
H  H6  1  0.47663825  0.51386030  0.73119734  1  0.13791  -0.00064  0.969295  -0.001  0.144703  -0.000549  1.030916  -0.001  0.148781  -0.000362  1.027912  0.0  0.112854  0.141563  -0.000692  1.033591  -0.001
H  H7  1  0.58826089  0.91043472  0.55211299  1  0.117661  -0.000465  0.954846  0.0  0.126078  -0.000434  1.016937  0.0  0.128777  -0.000321  1.016838  0.0  0.113116  0.124061  -0.00051  1.017426  -0.001
H  H8  1  0.41174021  0.08956479  0.44789253  1  0.117677  -0.000467  0.954868  0.0  0.126092  -0.000434  1.016958  0.0  0.128788  -0.000321  1.016868  0.0  0.113126  0.124074  -0.00051  1.017446  -0.001
H  H9  1  0.30687551  0.85313906  0.55536982  1  0.0975  -0.001258  0.964477  -0.003  0.102691  -0.001006  1.032284  -0.002  0.104826  -0.000706  1.028908  -0.002  0.121951  0.100936  -0.001213  1.034759  -0.002
H  H10  1  0.69312247  0.14686284  0.44463319  1  0.097546  -0.001256  0.964442  -0.003  0.102713  -0.001005  1.032258  -0.002  0.104863  -0.000706  1.028867  -0.002  0.12197  0.100939  -0.001213  1.034752  -0.002
H  H11  1  0.00696309  0.68394608  0.97621837  1  0.12566  -0.000161  0.925121  0.0  0.134178  -9.2e-05  0.98427  0.0  0.138681  -4.1e-05  0.979615  0.0  0.114948  0.130903  -0.000132  0.987578  0.0
H  H12  1  0.99303490  0.31605584  0.02378259  1  0.125661  -0.000157  0.925127  0.0  0.134222  -9.2e-05  0.984231  0.0  0.138722  -4.1e-05  0.979574  0.0  0.114963  0.130948  -0.000132  0.987539  0.0
H  H13  1  0.25946774  0.11217873  0.20977849  1  0.109327  0.000162  0.94631  0.0  0.117395  0.000167  1.011335  0.0  0.121228  9.6e-05  1.007952  0.0  0.108802  0.114616  0.00022  1.014162  0.0
H  H14  1  0.74053685  0.88782076  0.79022272  1  0.109297  0.000161  0.94631  0.0  0.117365  0.000167  1.011344  0.0  0.121199  9.6e-05  1.007958  0.0  0.108787  0.114578  0.000221  1.014182  0.0
H  H15  1  0.28078833  0.96784829  0.77824831  1  0.119549  -0.000182  0.949608  0.0  0.127129  -0.000134  1.015521  0.0  0.130853  -9.7e-05  1.011927  0.0  0.112122  0.12448  -0.000162  1.018239  0.0
H  H16  1  0.71921123  0.03214906  0.22175144  1  0.119503  -0.000177  0.949665  0.0  0.127077  -0.000135  1.015585  0.0  0.130799  -9.7e-05  1.011993  0.0  0.112107  0.124425  -0.000162  1.018302  0.0
H  H17  1  0.53293121  0.29175584  0.92404958  1  0.4022  -3.4e-05  0.797469  0.0  0.383989  -8e-06  0.856401  0.0  0.393406  -1.2e-05  0.846782  0.0  0.341165  0.377444  -1e-05  0.863096  0.0
H  H18  1  0.46707188  0.70823467  0.07594401  1  0.402175  -3.2e-05  0.797548  0.0  0.383972  -8e-06  0.856464  0.0  0.393393  -1.2e-05  0.84684  0.0  0.341209  0.377423  -1e-05  0.863163  0.0
C  C19  1  0.32455394  0.54975885  0.33694693  1  0.135268  0.007248  3.656531  0.007  0.105925  0.000431  3.916682  0.001  0.114844  0.001701  3.936213  0.003  0.05145  0.10027  -0.00058  3.903675  0.0
C  C20  1  0.67544441  0.45024543  0.66304824  1  0.135304  0.00724  3.656467  0.007  0.106019  0.000431  3.916687  0.001  0.114939  0.001701  3.936218  0.003  0.051477  0.100365  -0.00058  3.903682  0.0
C  C21  1  0.48010555  0.57153939  0.33212380  1  -0.136111  -0.010344  3.6913  -0.011  -0.159038  -0.003564  3.939155  -0.004  -0.164825  -0.00329  3.958191  -0.004  -0.080792  -0.156058  -0.003631  3.927713  -0.004
C  C22  1  0.51989298  0.42846606  0.66786950  1  -0.135985  -0.010342  3.691173  -0.011  -0.158884  -0.003564  3.939027  -0.004  -0.164668  -0.00329  3.958055  -0.004  -0.080767  -0.1559  -0.003631  3.927586  -0.004
C  C23  1  0.57659945  0.70359304  0.40851263  1  0.015099  0.007077  3.72101  0.007  0.031822  0.002015  3.94809  0.002  0.029786  0.002424  3.965759  0.003  0.010405  0.033164  0.001594  3.938152  0.002
C  C24  1  0.42339835  0.29640778  0.59148610  1  0.015179  0.007075  3.720943  0.007  0.031853  0.002015  3.947968  0.002  0.029822  0.002424  3.965626  0.003  0.010409  0.033189  0.001593  3.938041  0.002
C  C25  1  0.51500905  0.80740937  0.49014591  1  -0.121071  -0.011061  3.688967  -0.012  -0.139434  -0.004695  3.927331  -0.006  -0.145915  -0.004028  3.947708  -0.005  -0.074672  -0.136466  -0.005085  3.91604  -0.006
C  C26  1  0.48499108  0.19259134  0.50985644  1  -0.121136  -0.011052  3.688989  -0.012  -0.139502  -0.004695  3.927374  -0.006  -0.145983  -0.004028  3.94775  -0.005  -0.074715  -0.136528  -0.005084  3.916078  -0.006
C  C27  1  0.35972207  0.77614027  0.49264445  1  0.132202  0.007076  3.660063  0.007  0.105695  0.000423  3.910565  0.001  0.115083  0.001708  3.929202  0.002  0.049253  0.099524  -0.00055  3.898812  0.0
C  C28  1  0.64027708  0.22386161  0.50735781  1  0.13212  0.007061  3.660075  0.007  0.105641  0.000422  3.910573  0.001  0.115017  0.001707  3.929204  0.002  0.0492  0.099486  -0.000551  3.898831  0.0
C  C29  1  0.74579764  0.73425627  0.40867812  1  0.671001  0.001974  3.822659  0.003  0.635028  0.001547  4.112748  0.002  0.678648  0.001517  4.099574  0.002  0.227857  0.604498  0.001632  4.120887  0.002
C  C30  1  0.25420034  0.26574568  0.59132079  1  0.670634  0.001972  3.822974  0.003  0.634857  0.001547  4.112766  0.002  0.678474  0.001516  4.099595  0.002  0.227793  0.604335  0.001632  4.120906  0.002
C  C31  1  0.13699995  0.81428068  0.86180469  1  -0.068172  -0.012752  3.72851  -0.014  -0.041342  -0.00737  3.962363  -0.009  -0.054402  -0.00525  3.9855  -0.006  -0.01488  -0.032801  -0.008722  3.947116  -0.01
C  C32  1  0.86299882  0.18571895  0.13819618  1  -0.068084  -0.012757  3.728402  -0.014  -0.041227  -0.007371  3.962251  -0.009  -0.05429  -0.005249  3.98539  -0.006  -0.014855  -0.032688  -0.008721  3.947007  -0.01
C  C33  1  0.08390263  0.78765344  0.98092065  1  -0.038812  0.000705  3.647834  0.001  -0.078073  -0.000184  3.893505  0.0  -0.071714  6e-06  3.90959  0.0  -0.062744  -0.081687  -5.8e-05  3.882496  0.0
C  C34  1  0.91609847  0.21234612  0.01908179  1  -0.038919  0.000699  3.647866  0.001  -0.078237  -0.000182  3.893551  0.0  -0.071869  4e-06  3.909631  0.0  -0.062775  -0.081851  -5.8e-05  3.882548  0.0
C  C35  1  0.12584690  0.89540608  0.10603687  1  -0.069704  0.008058  3.746742  0.009  -0.042863  0.004744  3.979938  0.005  -0.055858  0.003178  4.004344  0.004  -0.016275  -0.033627  0.004979  3.962673  0.006
C  C36  1  0.87415537  0.10459345  0.89396482  1  -0.069559  0.00805  3.746738  0.009  -0.042687  0.004742  3.979893  0.005  -0.055686  0.00318  4.004304  0.004  -0.016218  -0.033452  0.004979  3.962633  0.006
C  C37  1  0.22644473  0.02724974  0.11355080  1  -0.040165  0.001082  3.673158  0.001  -0.0796  0.000452  3.920311  0.0  -0.073053  0.000403  3.93656  0.0  -0.06578  -0.08437  5.9e-05  3.909663  0.0
C  C38  1  0.77355656  0.97275094  0.88645285  1  -0.040097  0.001095  3.673228  0.001  -0.079549  0.000456  3.920386  0.0  -0.072996  0.0004  3.936631  0.0  -0.065781  -0.084313  5.9e-05  3.909746  0.0
C  C39  1  0.28613244  0.05092377  0.99712714  1  -0.084651  -0.000976  3.767051  -0.001  -0.059671  -0.000319  4.005768  0.0  -0.07206  -0.000259  4.029925  0.0  -0.018559  -0.051514  -0.000391  3.989687  0.0
C  C40  1  0.71386712  0.94907361  0.00287056  1  -0.084777  -0.000971  3.767236  -0.001  -0.059788  -0.000323  4.005986  0.0  -0.07218  -0.000258  4.030141  0.0  -0.018569  -0.051629  -0.000391  3.989901  0.0
C  C41  1  0.23940873  0.94587821  0.87039838  1  -0.031095  0.000956  3.64064  0.001  -0.07495  -0.000191  3.89406  0.0  -0.068131  -7e-06  3.910379  0.0  -0.06679  -0.079564  -0.000533  3.883356  0.0
C  C42  1  0.76058986  0.05412027  0.12960333  1  -0.031021  0.000936  3.64052  0.001  -0.074869  -0.000187  3.893934  0.0  -0.068048  -8e-06  3.91025  0.0  -0.066762  -0.079483  -0.000533  3.883235  0.0
C  C43  1  0.08030806  0.70323789  0.72453915  1  0.673556  0.004337  3.840329  0.009  0.636341  -0.001575  4.130764  0.001  0.678137  -0.000868  4.120724  0.001  0.221153  0.607216  -0.002098  4.136373  0.001
C  C44  1  0.91969034  0.29675945  0.27546341  1  0.673425  0.004333  3.840686  0.009  0.636175  -0.001575  4.131177  0.001  0.67797  -0.000869  4.121147  0.001  0.221123  0.607054  -0.002099  4.13679  0.001
C  C45  1  0.39848730  0.18951881  0.01386467  1  0.649393  -0.000128  3.814189  0.0  0.603786  -9.6e-05  4.10958  0.0  0.636378  -5.5e-05  4.101978  0.0  0.234036  0.581356  -9.2e-05  4.114334  0.0
C  C46  1  0.60152187  0.81049403  0.98615263  1  0.649528  -0.000132  3.814036  0.0  0.603877  -9.6e-05  4.109476  0.0  0.636475  -5.4e-05  4.101878  0.0  0.234005  0.58144  -9.2e-05  4.114228  0.0
C  C47  1  0.06103897  0.86586678  0.22984652  1  0.635923  -0.001304  3.918355  -0.004  0.595367  0.000387  4.221323  -0.002  0.634907  0.00018  4.215242  -0.001  0.203851  0.568571  0.000337  4.221718  -0.002
C  C48  1  0.93896176  0.13413050  0.77015556  1  0.6359  -0.001299  3.918593  -0.004  0.595344  0.000388  4.221561  -0.002  0.634886  0.00018  4.215476  -0.001  0.203868  0.568552  0.000337  4.221965  -0.002
N  N49  1  0.26573839  0.64988570  0.41655618  1  -0.284288  -0.084765  3.319357  -0.106  -0.239465  -0.057871  3.613432  -0.077  -0.272654  -0.047011  3.638068  -0.066  -0.341668  -0.218968  -0.061596  3.59837  -0.079
N  N50  1  0.73426094  0.35011736  0.58344318  1  -0.284332  -0.084753  3.319473  -0.106  -0.239475  -0.05787  3.61349  -0.077  -0.272669  -0.047009  3.638127  -0.066  -0.341672  -0.218983  -0.061595  3.598425  -0.079
O  O51  1  0.81818227  0.61821018  0.41129050  1  -0.565915  -0.08136  2.114871  -0.109  -0.553338  -0.048672  2.405282  -0.072  -0.598322  -0.036648  2.395481  -0.057  -0.303364  -0.521034  -0.054784  2.411071  -0.077
O  O52  1  0.18181571  0.38179182  0.58870533  1  -0.565695  -0.081364  2.114892  -0.109  -0.553169  -0.048674  2.405204  -0.072  -0.598156  -0.036649  2.395402  -0.057  -0.303284  -0.520867  -0.054783  2.410985  -0.077
O  O53  1  0.79667553  0.87141609  0.40901983  1  -0.591273  0.066799  2.134124  0.085  -0.567999  0.044491  2.42776  0.063  -0.607727  0.034642  2.413671  0.051  -0.307322  -0.539395  0.048002  2.437369  0.065
O  O54  1  0.20332362  0.12858582  0.59098038  1  -0.591194  0.066804  2.134277  0.085  -0.567964  0.044492  2.427794  0.063  -0.607704  0.034642  2.413729  0.051  -0.30731  -0.539361  0.048  2.437408  0.065
O  O55  1  0.01338061  0.57431525  0.73082205  1  -0.590213  -0.03786  2.086347  -0.052  -0.558045  -0.024796  2.352269  -0.037  -0.592645  -0.018266  2.338595  -0.029  -0.308043  -0.533348  -0.02885  2.361503  -0.041
O  O56  1  0.98662226  0.42568083  0.26918141  1  -0.590167  -0.037845  2.086416  -0.052  -0.558027  -0.02479  2.352384  -0.037  -0.592623  -0.018261  2.338713  -0.029  -0.308029  -0.533325  -0.028842  2.361621  -0.041
O  O57  1  0.10334590  0.75038875  0.61137971  1  -0.635759  -0.082738  2.163939  -0.112  -0.62432  -0.051754  2.477846  -0.077  -0.665805  -0.038176  2.462809  -0.06  -0.313784  -0.593188  -0.059389  2.486621  -0.084
O  O58  1  0.89665036  0.24960981  0.38862043  1  -0.635698  -0.082726  2.164113  -0.112  -0.624234  -0.051753  2.478038  -0.077  -0.665718  -0.038175  2.462986  -0.06  -0.313787  -0.593101  -0.059387  2.486796  -0.084
O  O59  1  0.98896674  0.73622553  0.22281017  1  -0.594124  -0.01932  2.048824  -0.025  -0.566352  -0.011484  2.304622  -0.016  -0.599658  -0.00794  2.294955  -0.012  -0.316777  -0.539745  -0.01471  2.308994  -0.02
O  O60  1  0.01103594  0.26376944  0.77719106  1  -0.594106  -0.019318  2.048896  -0.025  -0.566345  -0.01148  2.30471  -0.016  -0.599646  -0.007937  2.295033  -0.012  -0.316765  -0.539742  -0.014703  2.309083  -0.02
O  O61  1  0.08937346  0.97665881  0.33442460  1  -0.625406  0.084495  2.104461  0.108  -0.605225  0.051896  2.406201  0.074  -0.649299  0.039863  2.398766  0.06  -0.326089  -0.572437  0.054319  2.409434  0.075
O  O62  1  0.91062610  0.02333850  0.66557721  1  -0.625438  0.084501  2.10454  0.108  -0.605259  0.051897  2.406305  0.074  -0.649353  0.039864  2.398906  0.06  -0.326122  -0.572473  0.054318  2.409546  0.075
O  O63  1  0.45834243  0.19825991  0.90006490  1  -0.531022  6.1e-05  2.084972  0.0  -0.485019  7.7e-05  2.293032  0.0  -0.506107  5.6e-05  2.28223  0.0  -0.324274  -0.470197  8.5e-05  2.300544  0.0
O  O64  1  0.54166378  0.80172819  0.09993325  1  -0.5308  5.8e-05  2.085303  0.0  -0.484799  7.6e-05  2.29341  0.0  -0.50589  5.7e-05  2.282607  0.0  -0.324209  -0.469974  8.5e-05  2.300912  0.0
O  O65  1  0.43755584  0.28740210  0.12075990  1  -0.548581  -0.000238  1.939895  0.0  -0.511632  -8.6e-05  2.150907  0.0  -0.531473  -5.1e-05  2.142646  0.0  -0.286614  -0.497533  -0.000152  2.15671  0.0
O  O66  1  0.56244025  0.71258872  0.87922281  1  -0.54895  -0.000234  1.939295  0.0  -0.511979  -8.6e-05  2.150315  0.0  -0.531828  -5.1e-05  2.142054  0.0  -0.286735  -0.497874  -0.000152  2.156115  0.0
