# generated using pymatgen
data_V2CuH3C4(NO3)2
_symmetry_space_group_name_H-M   'P 1'
_cell_length_a   8.72386094
_cell_length_b   13.33003919
_cell_length_c   14.38126634
_cell_angle_alpha   90.00003194
_cell_angle_beta   90.00116339
_cell_angle_gamma   89.99984427
_symmetry_Int_Tables_number   1
_chemical_formula_structural   V2CuH3C4(NO3)2
_chemical_formula_sum   'V16 Cu8 H24 C32 N16 O48'
_cell_volume   1672.38895001
_cell_formula_units_Z   8
loop_
 _symmetry_equiv_pos_site_id
 _symmetry_equiv_pos_as_xyz
  1  'x, y, z'
loop_
 _atom_site_type_symbol
 _atom_site_label
 _atom_site_symmetry_multiplicity
 _atom_site_fract_x
 _atom_site_fract_y
 _atom_site_fract_z
 _atom_site_occupancy
 _atom_site_pbe_bader_charge
 _atom_site_pbe_bader_spin_density
 _atom_site_pbe_cm5_charge
 _atom_site_pbe_ddec_charge
 _atom_site_pbe_ddec_spin_density
 _atom_site_pbe_ddec_sum_bond_order
 _atom_site_pbe_magmom
V  V0  1  0.68788975  0.62197746  0.51901850  1  2.108906  -0.000168  1.444189  1.976331  -0.000627  3.460821  -0.002
V  V1  1  0.18789574  0.37803052  0.98098163  1  2.108871  -0.003922  1.444193  1.976414  -0.003283  3.46076  -0.006
V  V2  1  0.31210814  0.12197550  0.48097420  1  2.109516  0.000601  1.444194  1.976194  0.00095  3.460879  0.003
V  V3  1  0.81210566  0.87802671  0.01901607  1  2.108829  -0.003372  1.444232  1.976353  -0.00288  3.460952  -0.006
V  V4  1  0.31210990  0.37802501  0.48097705  1  2.108838  -0.000599  1.444117  1.976194  -0.00095  3.460933  -0.003
V  V5  1  0.81211078  0.62197345  0.01901253  1  2.109037  0.003371  1.444253  1.976467  0.00288  3.460853  0.006
V  V6  1  0.68788807  0.87801872  0.51902065  1  2.10873  0.000167  1.444247  1.976382  0.000626  3.460708  0.002
V  V7  1  0.18789169  0.12197051  0.98098017  1  2.108892  0.003923  1.444272  1.976529  0.003283  3.460808  0.006
V  V8  1  0.52383274  0.38281695  0.28044316  1  2.118651  -0.020565  1.449743  2.015765  -0.015743  3.441825  -0.026
V  V9  1  0.02383129  0.61717677  0.21955886  1  2.11858  -0.02109  1.449693  2.015697  -0.016157  3.441766  -0.027
V  V10  1  0.47616635  0.88282165  0.71955802  1  2.118648  -0.027326  1.449746  2.015841  -0.02067  3.441954  -0.033
V  V11  1  0.97617005  0.11717757  0.78043871  1  2.118865  0.026698  1.449684  2.015752  0.020181  3.442047  0.033
V  V12  1  0.47617378  0.61717877  0.71955795  1  2.118908  0.027322  1.449713  2.015884  0.020668  3.441718  0.033
V  V13  1  0.97617065  0.38282195  0.78043391  1  2.118883  -0.026699  1.449666  2.015809  -0.020182  3.441905  -0.033
V  V14  1  0.52382642  0.11718157  0.28044657  1  2.118655  0.020562  1.44977  2.015757  0.015741  3.441995  0.026
V  V15  1  0.02382271  0.88281665  0.21955893  1  2.118639  0.021088  1.44962  2.015589  0.016156  3.442105  0.027
Cu  Cu16  1  0.91177524  0.45428980  0.40188342  1  1.148188  -0.539962  0.766019  1.013097  -0.695476  2.254917  -0.538
Cu  Cu17  1  0.41177690  0.54570549  0.09809974  1  1.148176  -0.53787  0.766009  1.013103  -0.692589  2.254762  -0.536
Cu  Cu18  1  0.08821782  0.95429362  0.59811085  1  1.148164  0.539024  0.766029  1.013203  0.694305  2.254952  0.537
Cu  Cu19  1  0.58821442  0.04570029  0.90189779  1  1.148078  -0.536439  0.766023  1.013009  -0.69073  2.254928  -0.535
Cu  Cu20  1  0.08822096  0.54571418  0.59811074  1  1.148217  -0.539032  0.765967  1.013021  -0.694312  2.255116  -0.537
Cu  Cu21  1  0.58821816  0.45430074  0.90189650  1  1.148068  0.536436  0.765993  1.013037  0.690732  2.254828  0.535
Cu  Cu22  1  0.91177265  0.04569760  0.40188331  1  1.148048  0.539958  0.766073  1.013156  0.69547  2.25496  0.538
Cu  Cu23  1  0.41177376  0.95429693  0.09810124  1  1.148172  0.537864  0.766019  1.013091  0.69258  2.254724  0.536
H  H24  1  0.14245364  0.41293646  0.22790164  1  0.219281  -0.001639  0.1368  0.117195  -0.000833  1.006213  -0.001
H  H25  1  0.64245741  0.58705630  0.27209906  1  0.219204  -0.001634  0.136834  0.117248  -0.000839  1.006118  -0.001
H  H26  1  0.85755105  0.91295252  0.77209678  1  0.219646  0.001528  0.136823  0.11712  0.000719  1.006338  0.001
H  H27  1  0.35754750  0.08705291  0.72790057  1  0.219585  -0.001528  0.136818  0.117199  -0.000725  1.0061  -0.001
H  H28  1  0.85754829  0.58706076  0.77210086  1  0.219245  -0.001529  0.136804  0.117182  -0.000719  1.006109  -0.001
H  H29  1  0.35755141  0.41295067  0.72790274  1  0.219769  0.001527  0.136808  0.117174  0.000725  1.006139  0.001
H  H30  1  0.14244630  0.08704470  0.22790364  1  0.219592  0.001639  0.136771  0.117128  0.000833  1.006299  0.001
H  H31  1  0.64244756  0.91295257  0.27209637  1  0.219768  0.001634  0.136834  0.117237  0.000839  1.00627  0.001
H  H32  1  0.24075794  0.24999010  0.15995756  1  0.163784  -0.0  0.129715  0.134727  -0.0  1.009068  0.0
H  H33  1  0.74075872  0.75000549  0.34004296  1  0.163772  -0.0  0.129753  0.134804  -0.0  1.008899  0.0
H  H34  1  0.75923941  0.75000787  0.84004355  1  0.163714  -0.0  0.129704  0.134709  -0.0  1.009007  0.0
H  H35  1  0.25924207  0.25000223  0.65995884  1  0.163824  -0.0  0.129736  0.134817  -0.0  1.008899  0.0
H  H36  1  0.73842984  0.41284002  0.59431880  1  0.201224  -0.001932  0.139423  0.120516  -0.00095  0.982217  -0.002
H  H37  1  0.23842901  0.58715362  0.90567986  1  0.201152  -0.001975  0.139468  0.12052  -0.000968  0.982102  -0.002
H  H38  1  0.26156912  0.91285617  0.40568309  1  0.201152  0.001942  0.139436  0.120482  0.000961  0.982054  0.002
H  H39  1  0.76157475  0.08715213  0.09432186  1  0.201144  -0.001965  0.139459  0.120498  -0.000959  0.982098  -0.002
H  H40  1  0.26157324  0.58715945  0.40568092  1  0.201256  -0.001941  0.13946  0.120575  -0.00096  0.98216  -0.002
H  H41  1  0.76157178  0.41285185  0.09431777  1  0.201192  0.001965  0.13947  0.120538  0.000959  0.982018  0.002
H  H42  1  0.73842593  0.08714330  0.59431733  1  0.201098  0.001934  0.139434  0.120457  0.000951  0.982032  0.002
H  H43  1  0.23842604  0.91285409  0.90568273  1  0.201178  0.001976  0.139448  0.120506  0.000969  0.982062  0.002
H  H44  1  0.66588450  0.24999287  0.67360549  1  0.113651  0.0  0.122551  0.136021  -0.0  0.986556  0.0
H  H45  1  0.16588149  0.75000315  0.82639298  1  0.113398  -0.0  0.122548  0.136044  -0.0  0.986517  0.0
H  H46  1  0.33411514  0.75000810  0.32639771  1  0.11374  0.0  0.122584  0.136086  -0.0  0.986546  0.0
H  H47  1  0.83411816  0.25000308  0.17360744  1  0.113393  0.0  0.122537  0.136038  0.0  0.986534  0.0
C  C48  1  0.10804862  0.34009575  0.25540455  1  0.384523  -0.002017  0.096545  0.180212  -0.001801  3.821367  -0.001
C  C49  1  0.60805230  0.65989932  0.24459364  1  0.384481  -0.002056  0.0965  0.180114  -0.001813  3.821166  -0.001
C  C50  1  0.89195065  0.84011099  0.74459452  1  0.385084  0.001872  0.09664  0.180441  0.001703  3.82118  0.001
C  C51  1  0.39195230  0.15989513  0.75540742  1  0.38413  -0.001935  0.096596  0.180269  -0.001742  3.82099  -0.001
C  C52  1  0.89194988  0.65990297  0.74459656  1  0.38574  -0.001871  0.09656  0.18025  -0.001704  3.821217  -0.001
C  C53  1  0.39195422  0.34010540  0.75540747  1  0.383942  0.001936  0.096609  0.180266  0.001742  3.820998  0.001
C  C54  1  0.10804555  0.15988698  0.25540589  1  0.384993  0.002017  0.096641  0.1804  0.001802  3.82115  0.001
C  C55  1  0.60804505  0.84011109  0.24459091  1  0.385125  0.002055  0.096611  0.180266  0.001813  3.821079  0.001
C  C56  1  0.16095021  0.24999244  0.21799646  1  0.164134  2e-06  -0.046258  -0.138584  1e-06  3.852887  0.0
C  C57  1  0.66094561  0.75000179  0.28200169  1  0.164341  3e-06  -0.046211  -0.138494  1e-06  3.852819  0.0
C  C58  1  0.83904828  0.75000479  0.78200465  1  0.162919  0.0  -0.046235  -0.138514  1e-06  3.852753  0.0
C  C59  1  0.33905289  0.25000143  0.71799734  1  0.165491  0.0  -0.046209  -0.138472  0.0  3.852766  0.0
C  C60  1  0.96974475  0.24999101  0.36238859  1  1.12175  -1e-06  0.259983  0.281456  -0.0  4.04894  0.0
C  C61  1  0.46974230  0.75000417  0.13761267  1  1.121801  -1e-06  0.26015  0.28179  0.0  4.048126  0.0
C  C62  1  0.03025260  0.75000696  0.63761322  1  1.121602  -1e-06  0.260036  0.281618  -0.0  4.049021  0.0
C  C63  1  0.53025964  0.24999830  0.86239053  1  1.121721  0.0  0.260107  0.281806  1e-06  4.048111  0.0
C  C64  1  0.87903978  0.24999337  0.44740280  1  1.133567  -1e-06  0.265445  0.282095  0.0  4.022432  0.0
C  C65  1  0.37903906  0.75000122  0.05259456  1  1.133824  0.0  0.265474  0.282022  0.0  4.022453  0.0
C  C66  1  0.12095643  0.75000611  0.55260109  1  1.133828  -1e-06  0.265541  0.282024  1e-06  4.022552  0.0
C  C67  1  0.62096058  0.24999975  0.94740447  1  1.133797  -0.0  0.265505  0.282123  -0.0  4.02228  0.0
C  C68  1  0.76702579  0.33995948  0.56517132  1  0.469479  -0.001659  0.100835  0.186732  -0.001762  3.807453  -0.001
C  C69  1  0.26702563  0.66003636  0.93482700  1  0.46985  -0.002055  0.100831  0.186813  -0.001968  3.807522  -0.001
C  C70  1  0.23297119  0.83997270  0.43483471  1  0.46835  0.001667  0.100862  0.186885  0.001767  3.807061  0.001
C  C71  1  0.73297209  0.16003491  0.06517128  1  0.468722  -0.002066  0.100852  0.186815  -0.001974  3.807432  -0.001
C  C72  1  0.23297385  0.66003999  0.43483049  1  0.469412  -0.001667  0.100775  0.186722  -0.001769  3.807379  -0.001
C  C73  1  0.73297287  0.33996686  0.06516994  1  0.468624  0.002065  0.100852  0.186825  0.001974  3.807334  0.001
C  C74  1  0.76702387  0.16002902  0.56516779  1  0.468498  0.001659  0.100867  0.186996  0.00176  3.807277  0.001
C  C75  1  0.26702755  0.83996682  0.93483053  1  0.468955  0.002054  0.100855  0.186811  0.001967  3.807554  0.001
C  C76  1  0.72747769  0.24999205  0.60809425  1  0.081162  -1e-06  -0.046183  -0.111294  1e-06  3.834109  0.0
C  C77  1  0.22748031  0.75000461  0.89190289  1  0.081652  -0.0  -0.046086  -0.111205  1e-06  3.834075  0.0
C  C78  1  0.27251851  0.75000742  0.39190825  1  0.081218  -0.0  -0.046134  -0.11127  1e-06  3.833997  0.0
C  C79  1  0.77251819  0.25000011  0.10809892  1  0.082524  1e-06  -0.046043  -0.1111  1e-06  3.834016  0.0
N  N80  1  0.01080505  0.33922640  0.32806654  1  -1.200427  -0.062821  -0.316603  -0.299691  -0.042599  3.522307  -0.055
N  N81  1  0.51080286  0.66076285  0.17192629  1  -1.200377  -0.062093  -0.31649  -0.299553  -0.041918  3.521545  -0.054
N  N82  1  0.98919766  0.83923917  0.67193601  1  -1.200835  0.062825  -0.316616  -0.299659  0.042604  3.52232  0.055
N  N83  1  0.48919830  0.16076153  0.82807478  1  -1.20048  -0.062139  -0.316472  -0.299565  -0.041956  3.521796  -0.054
N  N84  1  0.98919460  0.66077382  0.67193666  1  -1.200478  -0.062818  -0.316635  -0.299789  -0.042599  3.522309  -0.055
N  N85  1  0.48920137  0.33924113  0.82807622  1  -1.200443  0.062144  -0.316453  -0.299534  0.041959  3.521429  0.054
N  N86  1  0.01079969  0.16075731  0.32806510  1  -1.200851  0.062819  -0.316526  -0.29949  0.042598  3.522286  0.055
N  N87  1  0.51079790  0.83924319  0.17192703  1  -1.200748  0.062094  -0.31645  -0.299456  0.041918  3.521794  0.054
N  N88  1  0.84355019  0.33886712  0.48411843  1  -1.181287  -0.072287  -0.312429  -0.26389  -0.048673  3.503957  -0.063
N  N89  1  0.34354059  0.66113129  0.01588128  1  -1.181878  -0.07216  -0.312456  -0.263905  -0.048553  3.504366  -0.062
N  N90  1  0.15645138  0.83888427  0.51588412  1  -1.181602  0.07214  -0.312496  -0.263949  0.048563  3.50405  0.063
N  N91  1  0.65646057  0.16112602  0.98411631  1  -1.181675  -0.07198  -0.312399  -0.263872  -0.048418  3.50395  -0.062
N  N92  1  0.15645060  0.66113161  0.51588477  1  -1.18121  -0.072138  -0.312416  -0.263898  -0.048561  3.503999  -0.063
N  N93  1  0.65646249  0.33887643  0.98411566  1  -1.181719  0.071982  -0.312431  -0.263973  0.048419  3.503982  0.062
N  N94  1  0.84354482  0.16111595  0.48411977  1  -1.181598  0.07229  -0.312504  -0.264192  0.048678  3.504191  0.063
N  N95  1  0.34353678  0.83887570  0.01588202  1  -1.182038  0.072161  -0.312478  -0.263981  0.048555  3.50431  0.062
O  O96  1  0.69141158  0.42394422  0.31610101  1  -0.883479  -0.009652  -0.611532  -0.838268  -0.006075  1.693228  -0.009
O  O97  1  0.19141140  0.57604920  0.18390099  1  -0.883474  -0.009358  -0.611536  -0.838288  -0.005884  1.693081  -0.009
O  O98  1  0.30859881  0.92394545  0.68389115  1  -0.883454  -0.008744  -0.611591  -0.838338  -0.005507  1.69337  -0.006
O  O99  1  0.80860272  0.07605407  0.81610977  1  -0.883503  0.009241  -0.611555  -0.838296  0.005813  1.693298  0.007
O  O100  1  0.30859953  0.57605150  0.68388897  1  -0.883437  0.00875  -0.611561  -0.838347  0.005511  1.693209  0.006
O  O101  1  0.80859742  0.42393601  0.81610012  1  -0.883424  -0.009236  -0.611566  -0.838298  -0.00581  1.693229  -0.007
O  O102  1  0.69140428  0.07604352  0.31610718  1  -0.883525  0.009657  -0.611526  -0.838332  0.006078  1.6932  0.009
O  O103  1  0.19140380  0.92395141  0.18389830  1  -0.88338  0.009364  -0.611473  -0.838255  0.005888  1.693135  0.009
O  O104  1  0.84138002  0.54736988  0.49454592  1  -0.94423  -0.089037  -0.626167  -0.898012  -0.057748  1.983298  -0.079
O  O105  1  0.34137094  0.45262102  0.00546488  1  -0.94452  -0.091278  -0.626288  -0.898175  -0.059599  1.983811  -0.08
O  O106  1  0.15860442  0.04738247  0.50545509  1  -0.94431  0.090361  -0.626093  -0.897983  0.05859  1.983183  0.08
O  O107  1  0.65863245  0.95262557  0.99454190  1  -0.944273  -0.089865  -0.626292  -0.898072  -0.058704  1.9837  -0.078
O  O108  1  0.15861619  0.45262734  0.50545797  1  -0.94426  -0.09036  -0.626115  -0.897922  -0.058589  1.983261  -0.08
O  O109  1  0.65864017  0.54737470  0.99454110  1  -0.944351  0.08985  -0.626287  -0.89808  0.058695  1.983766  0.078
O  O110  1  0.84138949  0.95262226  0.49455228  1  -0.944134  0.089044  -0.626179  -0.898072  0.057753  1.983204  0.079
O  O111  1  0.34137063  0.04738215  0.00546408  1  -0.944467  0.091284  -0.626255  -0.898157  0.059604  1.983748  0.08
O  O112  1  0.97499794  0.55904935  0.31925273  1  -0.935886  -0.056194  -0.635828  -0.858861  -0.037854  1.874174  -0.052
O  O113  1  0.47499363  0.44094432  0.18075347  1  -0.935783  -0.056043  -0.635809  -0.858866  -0.037728  1.874065  -0.052
O  O114  1  0.02501396  0.05905852  0.68074133  1  -0.936172  0.056014  -0.635781  -0.858928  0.037734  1.87429  0.052
O  O115  1  0.52501095  0.94094525  0.81925331  1  -0.93588  -0.055937  -0.635835  -0.858934  -0.037663  1.874277  -0.052
O  O116  1  0.02501316  0.44094787  0.68074074  1  -0.936299  -0.056011  -0.635822  -0.858942  -0.037733  1.874344  -0.052
O  O117  1  0.52502206  0.55905590  0.81925251  1  -0.936106  0.055942  -0.635806  -0.858978  0.037666  1.874281  0.052
O  O118  1  0.97498798  0.94093570  0.31925561  1  -0.935779  0.056194  -0.635812  -0.858884  0.037853  1.874438  0.052
O  O119  1  0.47498755  0.05906247  0.18075337  1  -0.935684  0.056045  -0.635821  -0.858867  0.037728  1.874131  0.052
O  O120  1  0.62119993  0.59364155  0.63419014  1  -1.033299  0.00229  -0.691713  -0.978304  0.001361  1.909404  0.002
O  O121  1  0.12120769  0.40635155  0.86580222  1  -1.033204  -0.00197  -0.691704  -0.978367  -0.001243  1.909352  -0.001
O  O122  1  0.37879578  0.09364166  0.36580464  1  -1.033315  0.001861  -0.691745  -0.978249  0.001216  1.909509  0.001
O  O123  1  0.87878672  0.90635593  0.13419759  1  -1.033373  0.002176  -0.691689  -0.97824  0.001332  1.909346  0.002
O  O124  1  0.37879971  0.40635117  0.36580750  1  -1.033197  -0.001861  -0.691739  -0.978324  -0.001216  1.909492  -0.001
O  O125  1  0.87880571  0.59364343  0.13419125  1  -1.033235  -0.002177  -0.691703  -0.978291  -0.001333  1.909348  -0.002
O  O126  1  0.62120043  0.90635331  0.63419439  1  -1.033204  -0.00229  -0.691692  -0.978274  -0.001361  1.909316  -0.002
O  O127  1  0.12120146  0.09364054  0.86580422  1  -1.033303  0.00197  -0.691768  -0.978394  0.001242  1.909387  0.001
O  O128  1  0.55269262  0.60791608  0.44269267  1  -0.811139  -0.029512  -0.580182  -0.754002  -0.018629  1.576739  -0.025
O  O129  1  0.05269126  0.39208059  0.05729997  1  -0.811069  -0.029345  -0.580166  -0.753992  -0.018526  1.576735  -0.024
O  O130  1  0.44729271  0.10791018  0.55730002  1  -0.811566  0.029444  -0.580213  -0.753901  0.018588  1.576901  0.025
O  O131  1  0.94731008  0.89208534  0.94270608  1  -0.811009  -0.029535  -0.580239  -0.753991  -0.018667  1.576808  -0.025
O  O132  1  0.44729899  0.39208039  0.55730913  1  -0.811047  -0.029454  -0.580119  -0.753897  -0.018593  1.576798  -0.025
O  O133  1  0.94730953  0.60792188  0.94269071  1  -0.811147  0.02954  -0.580201  -0.754074  0.018671  1.57671  0.025
O  O134  1  0.55269891  0.89208404  0.44269692  1  -0.811048  0.029503  -0.580224  -0.753998  0.018624  1.576915  0.025
O  O135  1  0.05269415  0.10791563  0.05729364  1  -0.810981  0.029338  -0.58024  -0.754011  0.018522  1.576789  0.024
O  O136  1  0.75378001  0.74999578  0.51804615  1  -1.051011  -0.0  -0.697316  -0.989514  0.0  1.913174  0.0
O  O137  1  0.25378084  0.24999933  0.98195062  1  -1.051126  -0.0  -0.697307  -0.989588  0.0  1.912852  0.0
O  O138  1  0.24621963  0.24999994  0.48195358  1  -1.051078  0.0  -0.697229  -0.989375  0.0  1.913075  0.0
O  O139  1  0.74622339  0.75000239  0.01804562  1  -1.051086  0.0  -0.697268  -0.989552  0.0  1.913022  0.0
O  O140  1  0.53373658  0.24999737  0.26171883  1  -1.047559  0.0  -0.706562  -1.033114  0.0  1.944217  0.0
O  O141  1  0.03373978  0.74999784  0.23828192  1  -1.047419  -0.0  -0.706543  -1.03308  -0.0  1.944144  0.0
O  O142  1  0.46626536  0.74999910  0.73827880  1  -1.047491  0.0  -0.706532  -1.033148  0.0  1.944031  0.0
O  O143  1  0.96626444  0.24999938  0.76171919  1  -1.047211  -0.0  -0.70652  -1.033085  0.0  1.944012  0.0
