# generated using pymatgen
data_ZnH12C14(NO)4
_symmetry_space_group_name_H-M   'P 1'
_cell_length_a   7.81979279
_cell_length_b   9.80456015
_cell_length_c   11.50498951
_cell_angle_alpha   78.10066799
_cell_angle_beta   72.65157446
_cell_angle_gamma   82.36207355
_symmetry_Int_Tables_number   1
_chemical_formula_structural   ZnH12C14(NO)4
_chemical_formula_sum   'Zn2 H24 C28 N8 O8'
_cell_volume   821.45122921
_cell_formula_units_Z   2
loop_
 _symmetry_equiv_pos_site_id
 _symmetry_equiv_pos_as_xyz
  1  'x, y, z'
loop_
 _atom_site_type_symbol
 _atom_site_label
 _atom_site_symmetry_multiplicity
 _atom_site_fract_x
 _atom_site_fract_y
 _atom_site_fract_z
 _atom_site_occupancy
 _atom_site_hle17_bader_spin_density
 _atom_site_hle17_ddec_charge
 _atom_site_hle17_ddec_spin_density
 _atom_site_hle17_ddec_sum_bond_order
 _atom_site_hle17_magmom
 _atom_site_hse06_10hf_bader_spin_density
 _atom_site_hse06_10hf_ddec_charge
 _atom_site_hse06_10hf_ddec_spin_density
 _atom_site_hse06_10hf_ddec_sum_bond_order
 _atom_site_hse06_10hf_magmom
 _atom_site_hse06_bader_spin_density
 _atom_site_hse06_ddec_charge
 _atom_site_hse06_ddec_spin_density
 _atom_site_hse06_ddec_sum_bond_order
 _atom_site_hse06_magmom
 _atom_site_pbe_bader_spin_density
 _atom_site_pbe_cm5_charge
 _atom_site_pbe_ddec_charge
 _atom_site_pbe_ddec_spin_density
 _atom_site_pbe_ddec_sum_bond_order
 _atom_site_pbe_magmom
Zn  Zn0  1  0.55212004  0.43324249  0.20315180  1  0  1.012533  0  1.868586  0  0  0.821899  0  2.346612  0  0  0.867955  0  2.291799  0  0  0.703869  0.790094  0  2.383846  0
Zn  Zn1  1  0.44789852  0.56675407  0.79684989  1  0  1.012608  0  1.868508  0  0  0.821924  0  2.346585  0  0  0.867999  0  2.291772  0  0  0.703891  0.790125  0  2.383822  0
H  H2  1  0.98568498  0.17053215  0.30565997  1  0  0.311269  0  0.860831  0  0  0.301077  0  0.906298  0  0  0.30764  0  0.902148  0  0  0.334699  0.296285  0  0.909585  0
H  H3  1  0.01428879  0.82950454  0.69431689  1  0  0.311158  0  0.861072  0  0  0.301002  0  0.906498  0  0  0.307566  0  0.902343  0  0  0.334635  0.296208  0  0.909785  0
H  H4  1  0.85853103  0.64655539  0.44403907  1  0  0.299035  0  0.860778  0  0  0.293055  0  0.90127  0  0  0.298693  0  0.898282  0  0  0.341603  0.288951  0  0.903658  0
H  H5  1  0.14145291  0.35343928  0.55597137  1  0  0.299081  0  0.860762  0  0  0.293062  0  0.901281  0  0  0.298701  0  0.898294  0  0  0.341652  0.288957  0  0.903669  0
H  H6  1  0.96086986  0.25137128  0.90964399  1  0  0.094954  0  0.955614  0  0  0.103771  0  1.020752  0  0  0.106907  0  1.019083  0  0  0.101944  0.101474  0  1.022103  0
H  H7  1  0.03913673  0.74862242  0.09035640  1  0  0.094928  0  0.955769  0  0  0.103744  0  1.020882  0  0  0.106875  0  1.019212  0  0  0.10194  0.101447  0  1.022226  0
H  H8  1  0.82993634  0.91625341  0.21756142  1  0  0.085569  0  0.954204  0  0  0.094165  0  1.017648  0  0  0.098353  0  1.014239  0  0  0.094217  0.091045  0  1.020353  0
H  H9  1  0.17007836  0.08372356  0.78243880  1  0  0.085608  0  0.953997  0  0  0.094177  0  1.017464  0  0  0.09839  0  1.014026  0  0  0.09424  0.091044  0  1.020185  0
H  H10  1  0.24676937  0.96348616  0.19174797  1  0  0.082189  0  0.966975  0  0  0.08876  0  1.03449  0  0  0.092745  0  1.031658  0  0  0.090241  0.085812  0  1.036655  0
H  H11  1  0.75322093  0.03649601  0.80826118  1  0  0.082143  0  0.967103  0  0  0.088673  0  1.034651  0  0  0.092654  0  1.031821  0  0  0.090236  0.085725  0  1.036814  0
H  H12  1  0.70343609  0.79556915  0.93627366  1  0  0.086328  0  1.004024  0  0  0.091906  0  1.075848  0  0  0.094254  0  1.076213  0  0  0.093422  0.090127  0  1.075911  0
H  H13  1  0.29656072  0.20442595  0.06372171  1  0  0.086352  0  1.004034  0  0  0.091958  0  1.075823  0  0  0.094306  0  1.076189  0  0  0.093436  0.090178  0  1.075886  0
H  H14  1  0.28983947  0.16599461  0.35829871  1  0  0.096631  0  0.921331  0  0  0.110584  0  0.97398  0  0  0.113177  0  0.970954  0  0  0.141193  0.108554  0  0.976367  0
H  H15  1  0.71016602  0.83402728  0.64169774  1  0  0.096658  0  0.921515  0  0  0.110611  0  0.974162  0  0  0.113201  0  0.971142  0  0  0.141208  0.10858  0  0.976548  0
H  H16  1  0.93915374  0.38269470  0.15089486  1  0  0.113897  0  0.989319  0  0  0.12399  0  1.046229  0  0  0.126544  0  1.04552  0  0  0.125475  0.122071  0  1.046928  0
H  H17  1  0.06086581  0.61733254  0.84909249  1  0  0.113909  0  0.989271  0  0  0.123892  0  1.046304  0  0  0.126438  0  1.045614  0  0  0.125388  0.121972  0  1.047002  0
H  H18  1  0.23233927  0.53655088  0.10531997  1  0  0.125629  0  0.965054  0  0  0.131451  0  1.027894  0  0  0.134605  0  1.025768  0  0  0.123882  0.129126  0  1.029562  0
H  H19  1  0.76766354  0.46346337  0.89466167  1  0  0.125635  0  0.964942  0  0  0.131514  0  1.027726  0  0  0.134669  0  1.0256  0  0  0.123876  0.129188  0  1.029394  0
H  H20  1  0.74166018  0.67336313  0.25373954  1  0  0.09927  0  0.941565  0  0  0.110743  0  1.000254  0  0  0.112587  0  0.998298  0  0  0.142374  0.109288  0  1.001739  0
H  H21  1  0.25834347  0.32663753  0.74626916  1  0  0.099247  0  0.941595  0  0  0.110723  0  1.000293  0  0  0.112569  0  0.998337  0  0  0.142352  0.109269  0  1.001778  0
H  H22  1  0.77932233  0.41300666  0.59296138  1  0  0.130894  0  1.004645  0  0  0.135075  0  1.072762  0  0  0.139539  0  1.068747  0  0  0.117969  0.131703  0  1.07595  0
H  H23  1  0.22065834  0.58699242  0.40704390  1  0  0.13091  0  1.004482  0  0  0.135125  0  1.072569  0  0  0.139591  0  1.068555  0  0  0.117942  0.131745  0  1.075759  0
H  H24  1  0.62296431  0.27587846  0.46801214  1  0  0.1113  0  0.933493  0  0  0.123654  0  0.98646  0  0  0.126185  0  0.985169  0  0  0.121974  0.121782  0  0.987551  0
H  H25  1  0.37702179  0.72411861  0.53198964  1  0  0.111383  0  0.933457  0  0  0.123733  0  0.986421  0  0  0.126264  0  0.985128  0  0  0.121983  0.121862  0  0.987514  0
C  C26  1  0.76250062  0.19076769  0.15019779  1  0  0.632427  0  3.923104  0  0  0.583585  0  4.219932  0  0  0.616892  0  4.213405  0  0  0.198788  0.561072  0  4.223343  0
C  C27  1  0.23749070  0.80921671  0.84980732  1  0  0.632398  0  3.923225  0  0  0.583542  0  4.22006  0  0  0.616853  0  4.213526  0  0  0.198761  0.561032  0  4.223473  0
C  C28  1  0.88478967  0.09300668  0.07146376  1  0  -0.053424  0  3.739066  0  0  -0.030655  0  3.9691  0  0  -0.037468  0  3.992955  0  0  -0.01486  -0.026112  0  3.95282  0
C  C29  1  0.11520802  0.90696712  0.92854413  1  0  -0.053431  0  3.739196  0  0  -0.030731  0  3.969297  0  0  -0.037557  0  3.993157  0  0  -0.01492  -0.026192  0  3.953019  0
C  C30  1  0.97995733  0.14134553  0.94863930  1  0  -0.059838  0  3.725528  0  0  -0.084621  0  3.97862  0  0  -0.084966  0  3.998822  0  0  -0.081439  -0.084183  0  3.964833  0
C  C31  1  0.02003419  0.85863771  0.05136856  1  0  -0.059849  0  3.725567  0  0  -0.084573  0  3.978652  0  0  -0.084902  0  3.998836  0  0  -0.081513  -0.084129  0  3.964867  0
C  C32  1  0.90585835  0.95111332  0.12191341  1  0  -0.077898  0  3.749504  0  0  -0.098927  0  3.998487  0  0  -0.100512  0  4.019057  0  0  -0.087493  -0.097749  0  3.984511  0
C  C33  1  0.09414209  0.04886039  0.87809563  1  0  -0.077871  0  3.749306  0  0  -0.098815  0  3.998237  0  0  -0.10041  0  4.018798  0  0  -0.087483  -0.097623  0  3.98426  0
C  C34  1  0.43916254  0.72225808  0.14493046  1  0  0.640467  0  3.921742  0  0  0.591485  0  4.216879  0  0  0.625418  0  4.208698  0  0  0.198922  0.568643  0  4.221425  0
C  C35  1  0.56084381  0.27773871  0.85507040  1  0  0.640241  0  3.921943  0  0  0.591375  0  4.216935  0  0  0.625309  0  4.208753  0  0  0.198854  0.568532  0  4.221481  0
C  C36  1  0.47193545  0.86587111  0.07050740  1  0  -0.058978  0  3.750331  0  0  -0.035362  0  3.97849  0  0  -0.04232  0  4.001622  0  0  -0.021633  -0.030811  0  3.962786  0
C  C37  1  0.52808253  0.13411707  0.92949653  1  0  -0.05875  0  3.750054  0  0  -0.03522  0  3.978214  0  0  -0.042172  0  4.00134  0  0  -0.021621  -0.030669  0  3.962511  0
C  C38  1  0.35798682  0.98114194  0.10794052  1  0  -0.081195  0  3.768443  0  0  -0.102298  0  4.017298  0  0  -0.104437  0  4.039688  0  0  -0.093918  -0.100542  0  4.002146  0
C  C39  1  0.64201065  0.01884868  0.89206233  1  0  -0.081168  0  3.768624  0  0  -0.102193  0  4.017474  0  0  -0.104331  0  4.03986  0  0  -0.093921  -0.100439  0  4.002324  0
C  C40  1  0.61460708  0.88605820  0.96229158  1  0  -0.076072  0  3.745743  0  0  -0.100511  0  3.997624  0  0  -0.101827  0  4.020614  0  0  -0.094871  -0.099733  0  3.982218  0
C  C41  1  0.38538996  0.11393380  0.03770333  1  0  -0.076105  0  3.745504  0  0  -0.100532  0  3.997389  0  0  -0.101849  0  4.020376  0  0  -0.09487  -0.099753  0  3.981981  0
C  C42  1  0.23190018  0.24898360  0.30002857  1  0  0.195914  0  3.691955  0  0  0.134714  0  3.966321  0  0  0.148419  0  3.97869  0  0  0.13988  0.125878  0  3.957637  0
C  C43  1  0.76810244  0.75103561  0.69995846  1  0  0.195753  0  3.692089  0  0  0.134578  0  3.966478  0  0  0.148283  0  3.978849  0  0  0.139885  0.125744  0  3.957795  0
C  C44  1  0.05235617  0.36414364  0.18915112  1  0  0.001332  0  3.670002  0  0  -0.034661  0  3.928743  0  0  -0.034152  0  3.948631  0  0  0.004887  -0.034934  0  3.915466  0
C  C45  1  0.94764733  0.63588654  0.81084628  1  0  0.001217  0  3.670069  0  0  -0.034661  0  3.92887  0  0  -0.034147  0  3.948753  0  0  0.004848  -0.034934  0  3.91559  0
C  C46  1  0.19777677  0.43890252  0.16762438  1  0  0.01362  0  3.690783  0  0  -0.01916  0  3.95191  0  0  -0.016689  0  3.969253  0  0  0.004444  -0.020962  0  3.940649  0
C  C47  1  0.80223623  0.56111984  0.83235818  1  0  0.013612  0  3.691061  0  0  -0.019217  0  3.952164  0  0  -0.016747  0  3.969507  0  0  0.004603  -0.021017  0  3.940901  0
C  C48  1  0.73048326  0.58390952  0.32805142  1  0  0.214248  0  3.676009  0  0  0.154185  0  3.944399  0  0  0.167701  0  3.958188  0  0  0.148226  0.145486  0  3.934703  0
C  C49  1  0.26951361  0.41608647  0.67194728  1  0  0.214231  0  3.676057  0  0  0.154137  0  3.944424  0  0  0.167659  0  3.958217  0  0  0.14824  0.145436  0  3.934729  0
C  C50  1  0.75678006  0.44445788  0.50201204  1  0  -0.025234  0  3.672051  0  0  -0.066339  0  3.94557  0  0  -0.065089  0  3.963299  0  0  -0.005354  -0.067142  0  3.933747  0
C  C51  1  0.24319674  0.55554299  0.49800165  1  0  -0.025241  0  3.672342  0  0  -0.066387  0  3.945827  0  0  -0.065142  0  3.963565  0  0  -0.005278  -0.067179  0  3.933996  0
C  C52  1  0.67205177  0.37912228  0.44241439  1  0  0.010351  0  3.734718  0  0  -0.026844  0  4.006236  0  0  -0.025563  0  4.027004  0  0  -0.001999  -0.027732  0  3.992275  0
C  C53  1  0.32791912  0.62088396  0.55759719  1  0  0.010198  0  3.73512  0  0  -0.02701  0  4.006652  0  0  -0.025723  0  4.027424  0  0  -0.002035  -0.027902  0  3.992693  0
N  N54  1  0.30825385  0.36643559  0.23752539  1  0  -0.383846  0  3.313603  0  0  -0.301503  0  3.617654  0  0  -0.320812  0  3.62831  0  0  -0.357477  -0.28857  0  3.610353  0
N  N55  1  0.69176105  0.63357952  0.76245609  1  0  -0.383778  0  3.31389  0  0  -0.301433  0  3.617954  0  0  -0.320743  0  3.628611  0  0  -0.357569  -0.288503  0  3.610654  0
N  N56  1  0.07509369  0.24569807  0.27338381  1  0  -0.282594  0  3.486871  0  0  -0.21827  0  3.725076  0  0  -0.233902  0  3.742147  0  0  -0.376314  -0.207762  0  3.713465  0
N  N57  1  0.92490612  0.75432512  0.72660847  1  0  -0.282305  0  3.48681  0  0  -0.218049  0  3.725012  0  0  -0.23368  0  3.742084  0  0  -0.3762  -0.207538  0  3.713398  0
N  N58  1  0.65612618  0.46685967  0.33498165  1  0  -0.398422  0  3.349515  0  0  -0.314799  0  3.648152  0  0  -0.33505  0  3.661962  0  0  -0.355964  -0.30113  0  3.638589  0
N  N59  1  0.34387341  0.53313915  0.66502300  1  0  -0.398462  0  3.349533  0  0  -0.314827  0  3.648167  0  0  -0.335103  0  3.662005  0  0  -0.355967  -0.301159  0  3.638608  0
N  N60  1  0.79259666  0.57325565  0.42784580  1  0  -0.273659  0  3.48318  0  0  -0.212312  0  3.72438  0  0  -0.227238  0  3.740085  0  0  -0.377102  -0.202241  0  3.713527  0
N  N61  1  0.20739872  0.42674337  0.57215539  1  0  -0.273587  0  3.483467  0  0  -0.212153  0  3.724629  0  0  -0.22708  0  3.740339  0  0  -0.377124  -0.202083  0  3.713771  0
O  O62  1  0.72057916  0.31295710  0.09174461  1  0  -0.640305  0  2.034442  0  0  -0.561904  0  2.298704  0  0  -0.590502  0  2.284534  0  0  -0.326947  -0.541887  0  2.3076  0
O  O63  1  0.27942422  0.68704191  0.90825396  1  0  -0.640364  0  2.034663  0  0  -0.56191  0  2.298892  0  0  -0.590506  0  2.284718  0  0  -0.326956  -0.541896  0  2.307791  0
O  O64  1  0.71180237  0.15452749  0.26601840  1  0  -0.652157  0  1.861809  0  0  -0.612322  0  2.079035  0  0  -0.633243  0  2.067969  0  0  -0.351842  -0.597471  0  2.086146  0
O  O65  1  0.28820337  0.84546286  0.73398789  1  0  -0.652108  0  1.86176  0  0  -0.612261  0  2.07899  0  0  -0.633186  0  2.067923  0  0  -0.351808  -0.597409  0  2.086098  0
O  O66  1  0.55911748  0.62401779  0.10590155  1  0  -0.658419  0  2.038496  0  0  -0.58137  0  2.312279  0  0  -0.609612  0  2.297486  0  0  -0.342152  -0.561896  0  2.32149  0
O  O67  1  0.44088898  0.37597889  0.89410190  1  0  -0.658307  0  2.038464  0  0  -0.581296  0  2.312227  0  0  -0.60954  0  2.297438  0  0  -0.342097  -0.561823  0  2.321438  0
O  O68  1  0.30431703  0.70435239  0.23707154  1  0  -0.635911  0  1.927137  0  0  -0.592393  0  2.152536  0  0  -0.614389  0  2.143019  0  0  -0.338654  -0.576685  0  2.158738  0
O  O69  1  0.69570698  0.29563129  0.76293869  1  0  -0.635845  0  1.927295  0  0  -0.592352  0  2.152642  0  0  -0.614354  0  2.143132  0  0  -0.338604  -0.576649  0  2.158847  0
