# generated using pymatgen
data_NiH10(C6S)2
_symmetry_space_group_name_H-M   'P 1'
_cell_length_a   6.28665670
_cell_length_b   12.06652165
_cell_length_c   15.16468025
_cell_angle_alpha   95.09323769
_cell_angle_beta   89.99949945
_cell_angle_gamma   89.99981276
_symmetry_Int_Tables_number   1
_chemical_formula_structural   NiH10(C6S)2
_chemical_formula_sum   'Ni4 H40 C48 S8'
_cell_volume   1145.82136227
_cell_formula_units_Z   4
loop_
 _symmetry_equiv_pos_site_id
 _symmetry_equiv_pos_as_xyz
  1  'x, y, z'
loop_
 _atom_site_type_symbol
 _atom_site_label
 _atom_site_symmetry_multiplicity
 _atom_site_fract_x
 _atom_site_fract_y
 _atom_site_fract_z
 _atom_site_occupancy
 _atom_site_hle17_bader_spin_density
 _atom_site_hle17_ddec_charge
 _atom_site_hle17_ddec_spin_density
 _atom_site_hle17_ddec_sum_bond_order
 _atom_site_hle17_magmom
 _atom_site_hse06_10hf_bader_spin_density
 _atom_site_hse06_10hf_ddec_charge
 _atom_site_hse06_10hf_ddec_spin_density
 _atom_site_hse06_10hf_ddec_sum_bond_order
 _atom_site_hse06_10hf_magmom
 _atom_site_hse06_bader_spin_density
 _atom_site_hse06_ddec_charge
 _atom_site_hse06_ddec_spin_density
 _atom_site_hse06_ddec_sum_bond_order
 _atom_site_hse06_magmom
 _atom_site_pbe_bader_spin_density
 _atom_site_pbe_cm5_charge
 _atom_site_pbe_ddec_charge
 _atom_site_pbe_ddec_spin_density
 _atom_site_pbe_ddec_sum_bond_order
 _atom_site_pbe_magmom
Ni  Ni0  1  0.06815583  0.49960994  0.24973859  1  0  0.102397  0  2.756077  0  0  0.103121  0  3.25256  0  0  0.147069  0  3.187562  0  0  0.292248  0.0877  0  3.291115  0
Ni  Ni1  1  0.56815608  0.50037865  0.25025279  1  0  0.102379  0  2.756128  0  0  0.103104  0  3.252573  0  0  0.147032  0  3.187571  0  0  0.292218  0.087689  0  3.291117  0
Ni  Ni2  1  0.93186405  0.50038257  0.75026214  1  0  0.102539  0  2.755986  0  0  0.103239  0  3.252465  0  0  0.147185  0  3.187452  0  0  0.292256  0.087835  0  3.291034  0
Ni  Ni3  1  0.43186539  0.49961546  0.74974539  1  0  0.10237  0  2.756225  0  0  0.103121  0  3.252677  0  0  0.147076  0  3.18769  0  0  0.292256  0.087707  0  3.291232  0
H  H4  1  0.27575144  0.48385234  0.06731971  1  0  0.096197  0  0.945136  0  0  0.105516  0  1.011474  0  0  0.109208  0  1.007641  0  0  0.09849  0.102458  0  1.014795  0
H  H5  1  0.77570800  0.51614094  0.43267513  1  0  0.096166  0  0.945231  0  0  0.105574  0  1.011493  0  0  0.109264  0  1.00767  0  0  0.098495  0.102513  0  1.014796  0
H  H6  1  0.72427003  0.51615192  0.93268630  1  0  0.096178  0  0.945269  0  0  0.105509  0  1.01161  0  0  0.109205  0  1.007769  0  0  0.098451  0.102452  0  1.014927  0
H  H7  1  0.22424507  0.48386168  0.56733211  1  0  0.0961  0  0.945199  0  0  0.105525  0  1.011448  0  0  0.109224  0  1.007599  0  0  0.098448  0.102455  0  1.01477  0
H  H8  1  0.26334362  0.40819613  0.91020972  1  0  0.081759  0  1.007044  0  0  0.090722  0  1.076702  0  0  0.09347  0  1.074467  0  0  0.084307  0.088556  0  1.078651  0
H  H9  1  0.76330840  0.59180105  0.58978322  1  0  0.081641  0  1.007066  0  0  0.090622  0  1.076734  0  0  0.09337  0  1.0745  0  0  0.084283  0.088481  0  1.078661  0
H  H10  1  0.73664603  0.59182382  0.08979191  1  0  0.081664  0  1.007017  0  0  0.090613  0  1.076732  0  0  0.093363  0  1.074495  0  0  0.084264  0.088458  0  1.078672  0
H  H11  1  0.23660649  0.40820897  0.41022048  1  0  0.081813  0  1.006899  0  0  0.090775  0  1.076545  0  0  0.093522  0  1.074312  0  0  0.08434  0.088612  0  1.078494  0
H  H12  1  0.30050284  0.20530611  0.86954486  1  0  0.085312  0  0.970692  0  0  0.093934  0  1.036689  0  0  0.096384  0  1.037002  0  0  0.0937  0.092261  0  1.036419  0
H  H13  1  0.80050189  0.79469013  0.63044656  1  0  0.08542  0  0.970528  0  0  0.094046  0  1.036501  0  0  0.096502  0  1.036798  0  0  0.093751  0.09237  0  1.036232  0
H  H14  1  0.69945341  0.79471197  0.13044742  1  0  0.085565  0  0.970463  0  0  0.094065  0  1.036546  0  0  0.096527  0  1.036822  0  0  0.09374  0.09239  0  1.036282  0
H  H15  1  0.19943527  0.20532230  0.36955332  1  0  0.085575  0  0.970311  0  0  0.094126  0  1.03635  0  0  0.096574  0  1.036658  0  0  0.093768  0.092451  0  1.03608  0
H  H16  1  0.36480810  0.07744631  0.98811625  1  0  0.077508  0  0.96664  0  0  0.089797  0  1.027155  0  0  0.092461  0  1.025917  0  0  0.094589  0.08786  0  1.028165  0
H  H17  1  0.86483416  0.92254394  0.51187196  1  0  0.077478  0  0.966774  0  0  0.089786  0  1.027273  0  0  0.092452  0  1.026029  0  0  0.094614  0.087832  0  1.028301  0
H  H18  1  0.63515769  0.92256158  0.01186622  1  0  0.07749  0  0.966702  0  0  0.089704  0  1.027305  0  0  0.092367  0  1.026068  0  0  0.09457  0.087765  0  1.028315  0
H  H19  1  0.13517617  0.07745512  0.48812452  1  0  0.077488  0  0.966738  0  0  0.08979  0  1.027249  0  0  0.092457  0  1.026006  0  0  0.094613  0.087851  0  1.028262  0
H  H20  1  0.37403298  0.15331133  0.14606118  1  0  0.092854  0  0.960001  0  0  0.104954  0  1.020753  0  0  0.107532  0  1.020142  0  0  0.097716  0.103031  0  1.021358  0
H  H21  1  0.87405243  0.84667337  0.35392951  1  0  0.092905  0  0.959993  0  0  0.104964  0  1.020805  0  0  0.107562  0  1.020167  0  0  0.097713  0.103044  0  1.021412  0
H  H22  1  0.62596781  0.84667833  0.85392356  1  0  0.092842  0  0.959881  0  0  0.104873  0  1.020738  0  0  0.107493  0  1.020075  0  0  0.097671  0.10295  0  1.021344  0
H  H23  1  0.12600244  0.15331917  0.64607253  1  0  0.092892  0  0.959896  0  0  0.104897  0  1.020774  0  0  0.107524  0  1.020106  0  0  0.097706  0.102977  0  1.02138  0
H  H24  1  0.88040293  0.20421830  0.06668432  1  0  0.099283  0  0.942564  0  0  0.111764  0  0.998975  0  0  0.114367  0  0.998648  0  0  0.100705  0.109915  0  0.99918  0
H  H25  1  0.38042693  0.79575662  0.43331502  1  0  0.099202  0  0.942659  0  0  0.111655  0  0.999109  0  0  0.11426  0  0.99878  0  0  0.10069  0.109811  0  0.999311  0
H  H26  1  0.11958990  0.79576849  0.93332070  1  0  0.099212  0  0.942605  0  0  0.111691  0  0.999024  0  0  0.11429  0  0.998711  0  0  0.100662  0.109838  0  0.999233  0
H  H27  1  0.61960885  0.20423656  0.56667849  1  0  0.099199  0  0.942655  0  0  0.111673  0  0.999088  0  0  0.114278  0  0.99876  0  0  0.100675  0.109825  0  0.999292  0
H  H28  1  0.87455277  0.00678378  0.10359256  1  0  0.079626  0  0.966869  0  0  0.092619  0  1.025875  0  0  0.09494  0  1.02527  0  0  0.096647  0.090894  0  1.026445  0
H  H29  1  0.37457930  0.99319566  0.39642289  1  0  0.079717  0  0.96695  0  0  0.092716  0  1.025922  0  0  0.095035  0  1.025315  0  0  0.096668  0.090994  0  1.02649  0
H  H30  1  0.12542575  0.99320570  0.89642118  1  0  0.079664  0  0.966913  0  0  0.092669  0  1.025888  0  0  0.094992  0  1.025282  0  0  0.096665  0.090945  0  1.026457  0
H  H31  1  0.62544853  0.00679425  0.60357307  1  0  0.079704  0  0.966976  0  0  0.092707  0  1.025943  0  0  0.095034  0  1.025339  0  0  0.096668  0.090986  0  1.026509  0
H  H32  1  0.79514145  0.96273229  0.25692156  1  0  0.082539  0  0.967229  0  0  0.094532  0  1.028217  0  0  0.097061  0  1.027433  0  0  0.097068  0.092707  0  1.028813  0
H  H33  1  0.29513989  0.03726991  0.24310207  1  0  0.082602  0  0.967017  0  0  0.094599  0  1.027997  0  0  0.097128  0  1.027205  0  0  0.097066  0.09277  0  1.028612  0
H  H34  1  0.20484661  0.03727308  0.74309705  1  0  0.082622  0  0.967128  0  0  0.09462  0  1.028094  0  0  0.097147  0  1.027306  0  0  0.097088  0.092786  0  1.028723  0
H  H35  1  0.70486408  0.96272424  0.75689743  1  0  0.082656  0  0.967156  0  0  0.094639  0  1.028127  0  0  0.097164  0  1.027336  0  0  0.097055  0.092816  0  1.028728  0
H  H36  1  0.73681814  0.11649551  0.37578321  1  0  0.085614  0  0.944702  0  0  0.100321  0  0.99753  0  0  0.102803  0  0.997136  0  0  0.099462  0.098516  0  0.997918  0
H  H37  1  0.23681297  0.88351985  0.12422951  1  0  0.085703  0  0.944735  0  0  0.100389  0  0.997564  0  0  0.102872  0  0.997171  0  0  0.099526  0.098587  0  0.997952  0
H  H38  1  0.26318424  0.88351968  0.62422870  1  0  0.085696  0  0.944752  0  0  0.100384  0  0.997581  0  0  0.102867  0  0.997188  0  0  0.099514  0.098579  0  0.997968  0
H  H39  1  0.76319100  0.11647509  0.87576806  1  0  0.08571  0  0.94474  0  0  0.100404  0  0.997563  0  0  0.102887  0  0.99717  0  0  0.09953  0.098601  0  0.997951  0
H  H40  1  0.75249863  0.31305464  0.33978760  1  0  0.095809  0  0.947148  0  0  0.105353  0  1.012808  0  0  0.108966  0  1.008865  0  0  0.098866  0.102308  0  1.016244  0
H  H41  1  0.25249572  0.68695452  0.16020954  1  0  0.095819  0  0.947188  0  0  0.105347  0  1.012891  0  0  0.108958  0  1.008951  0  0  0.098864  0.102301  0  1.016318  0
H  H42  1  0.24752283  0.68695865  0.66021364  1  0  0.095853  0  0.947188  0  0  0.105403  0  1.01285  0  0  0.109014  0  1.008912  0  0  0.098889  0.102355  0  1.016275  0
H  H43  1  0.74752415  0.31303789  0.83978657  1  0  0.095886  0  0.94712  0  0  0.105425  0  1.012786  0  0  0.109037  0  1.008845  0  0  0.098899  0.102377  0  1.016212  0
C  C44  1  0.32128127  0.32278665  0.11665248  1  0  0.065347  0  3.755959  0  0  0.095149  0  3.991184  0  0  0.097833  0  4.015803  0  0  -0.015219  0.094026  0  3.973908  0
C  C45  1  0.82127110  0.67720398  0.38333874  1  0  0.065441  0  3.75589  0  0  0.095152  0  3.991255  0  0  0.097837  0  4.015881  0  0  -0.015255  0.094025  0  3.973981  0
C  C46  1  0.67873861  0.67720744  0.88334438  1  0  0.065324  0  3.75581  0  0  0.095088  0  3.991107  0  0  0.097769  0  4.015738  0  0  -0.015206  0.093969  0  3.973827  0
C  C47  1  0.17874559  0.32279768  0.61666251  1  0  0.065148  0  3.756146  0  0  0.094883  0  3.991489  0  0  0.097558  0  4.016135  0  0  -0.015398  0.093766  0  3.974203  0
C  C48  1  0.29280393  0.39470327  0.04978330  1  0  -0.101981  0  3.74711  0  0  -0.122408  0  3.989806  0  0  -0.12587  0  4.013059  0  0  -0.091198  -0.120028  0  3.974063  0
C  C49  1  0.79277857  0.60528911  0.45020944  1  0  -0.101825  0  3.747019  0  0  -0.12232  0  3.989705  0  0  -0.125786  0  4.012955  0  0  -0.091102  -0.119923  0  3.973956  0
C  C50  1  0.70721435  0.60529922  0.95021799  1  0  -0.101982  0  3.747399  0  0  -0.122439  0  3.990102  0  0  -0.125902  0  4.013358  0  0  -0.09122  -0.120059  0  3.974363  0
C  C51  1  0.20719836  0.39471590  0.54979265  1  0  -0.101655  0  3.746843  0  0  -0.122155  0  3.989493  0  0  -0.125615  0  4.012743  0  0  -0.090994  -0.119763  0  3.973736  0
C  C52  1  0.28521501  0.35170014  0.96163660  1  0  -0.069427  0  3.774488  0  0  -0.078265  0  4.013941  0  0  -0.082026  0  4.03919  0  0  -0.096501  -0.075621  0  3.996739  0
C  C53  1  0.78519477  0.64829617  0.53835621  1  0  -0.069401  0  3.774286  0  0  -0.078261  0  4.013787  0  0  -0.082022  0  4.039038  0  0  -0.096556  -0.075638  0  3.996566  0
C  C54  1  0.71478419  0.64830978  0.03836248  1  0  -0.069231  0  3.774511  0  0  -0.078053  0  4.013919  0  0  -0.081818  0  4.039171  0  0  -0.096469  -0.075419  0  3.996705  0
C  C55  1  0.21475989  0.35171466  0.46164622  1  0  -0.069505  0  3.774142  0  0  -0.07833  0  4.013635  0  0  -0.082094  0  4.03888  0  0  -0.096606  -0.075686  0  3.996423  0
C  C56  1  0.30766161  0.23742523  0.93893165  1  0  -0.072827  0  3.786331  0  0  -0.086005  0  4.031172  0  0  -0.08842  0  4.055407  0  0  -0.095156  -0.083988  0  4.014338  0
C  C57  1  0.80766393  0.76257099  0.56105908  1  0  -0.073092  0  3.786076  0  0  -0.086283  0  4.03096  0  0  -0.088698  0  4.055199  0  0  -0.095246  -0.084267  0  4.014128  0
C  C58  1  0.69231691  0.76258291  0.06106205  1  0  -0.073257  0  3.786297  0  0  -0.086324  0  4.031157  0  0  -0.088733  0  4.055398  0  0  -0.095156  -0.084307  0  4.014325  0
C  C59  1  0.19230186  0.23744059  0.43894008  1  0  -0.073372  0  3.785846  0  0  -0.086516  0  4.030788  0  0  -0.088926  0  4.055015  0  0  -0.095347  -0.084495  0  4.013953  0
C  C60  1  0.34251686  0.16642528  0.00527785  1  0  -0.086998  0  3.80089  0  0  -0.099219  0  4.050181  0  0  -0.102014  0  4.072053  0  0  -0.100188  -0.097511  0  4.035214  0
C  C61  1  0.84252869  0.83356693  0.49471141  1  0  -0.086858  0  3.800796  0  0  -0.099082  0  4.05006  0  0  -0.10188  0  4.071943  0  0  -0.10019  -0.097362  0  4.0351  0
C  C62  1  0.65746484  0.83358025  0.99471043  1  0  -0.086955  0  3.800763  0  0  -0.099098  0  4.050003  0  0  -0.101897  0  4.07189  0  0  -0.100218  -0.09739  0  4.035033  0
C  C63  1  0.15747687  0.16643632  0.50528663  1  0  -0.086754  0  3.800763  0  0  -0.098958  0  4.049984  0  0  -0.101756  0  4.07187  0  0  -0.100104  -0.097255  0  4.03502  0
C  C64  1  0.34857782  0.20862198  0.09408568  1  0  -0.101109  0  3.752515  0  0  -0.120979  0  3.994738  0  0  -0.123294  0  4.016696  0  0  -0.093187  -0.11877  0  3.979058  0
C  C65  1  0.84858545  0.79136774  0.40590407  1  0  -0.101222  0  3.75228  0  0  -0.121039  0  3.994508  0  0  -0.123368  0  4.016461  0  0  -0.09319  -0.118833  0  3.978831  0
C  C66  1  0.65142456  0.79137527  0.90590410  1  0  -0.101012  0  3.752028  0  0  -0.120819  0  3.994256  0  0  -0.123163  0  4.016201  0  0  -0.093119  -0.118612  0  3.978576  0
C  C67  1  0.15144556  0.20863225  0.59409642  1  0  -0.101135  0  3.752236  0  0  -0.120917  0  3.994474  0  0  -0.123269  0  4.016421  0  0  -0.093164  -0.11871  0  3.978796  0
C  C68  1  0.81607775  0.27044412  0.20093813  1  0  0.066056  0  3.750622  0  0  0.095566  0  3.986107  0  0  0.098121  0  4.010951  0  0  -0.014643  0.094397  0  3.968855  0
C  C69  1  0.31608913  0.72954748  0.29905910  1  0  0.066083  0  3.750518  0  0  0.095537  0  3.986072  0  0  0.098109  0  4.010888  0  0  -0.014679  0.094367  0  3.968823  0
C  C70  1  0.18393258  0.72955170  0.79906212  1  0  0.066234  0  3.750616  0  0  0.095748  0  3.986041  0  0  0.098323  0  4.010859  0  0  -0.014583  0.094578  0  3.968787  0
C  C71  1  0.68393393  0.27044664  0.70093974  1  0  0.066188  0  3.750399  0  0  0.095715  0  3.98583  0  0  0.098285  0  4.010651  0  0  -0.014604  0.094545  0  3.968581  0
C  C72  1  0.85059790  0.18432472  0.13431376  1  0  -0.100864  0  3.745594  0  0  -0.119877  0  3.987244  0  0  -0.122331  0  4.009369  0  0  -0.091036  -0.117586  0  3.971437  0
C  C73  1  0.35061681  0.81565700  0.36569004  1  0  -0.100864  0  3.745904  0  0  -0.119832  0  3.987567  0  0  -0.122292  0  4.009686  0  0  -0.091097  -0.117543  0  3.971769  0
C  C74  1  0.14939334  0.81566538  0.86569079  1  0  -0.100878  0  3.745734  0  0  -0.119874  0  3.987384  0  0  -0.122338  0  4.009503  0  0  -0.091058  -0.117581  0  3.971575  0
C  C75  1  0.64940466  0.18433545  0.63430804  1  0  -0.100843  0  3.74577  0  0  -0.119881  0  3.987452  0  0  -0.122341  0  4.009577  0  0  -0.091072  -0.117587  0  3.971645  0
C  C76  1  0.84522480  0.07389022  0.15515229  1  0  -0.08043  0  3.784788  0  0  -0.093201  0  4.035215  0  0  -0.096315  0  4.057887  0  0  -0.096888  -0.091116  0  4.019523  0
C  C77  1  0.34524812  0.92609501  0.34485964  1  0  -0.080393  0  3.785202  0  0  -0.093145  0  4.035587  0  0  -0.096257  0  4.058261  0  0  -0.096727  -0.091055  0  4.019884  0
C  C78  1  0.15475372  0.92610334  0.84485839  1  0  -0.080363  0  3.78489  0  0  -0.093139  0  4.035299  0  0  -0.096255  0  4.057972  0  0  -0.096748  -0.09105  0  4.019604  0
C  C79  1  0.65477017  0.07389661  0.65513839  1  0  -0.080348  0  3.785084  0  0  -0.093091  0  4.035433  0  0  -0.096214  0  4.058114  0  0  -0.096697  -0.091008  0  4.01974  0
C  C80  1  0.80218362  0.04901503  0.24145105  1  0  -0.071192  0  3.793367  0  0  -0.08718  0  4.044983  0  0  -0.088831  0  4.068028  0  0  -0.093366  -0.085702  0  4.028901  0
C  C81  1  0.30219425  0.95098283  0.25856505  1  0  -0.07152  0  3.793447  0  0  -0.087539  0  4.0451  0  0  -0.089183  0  4.068135  0  0  -0.093594  -0.086067  0  4.02902  0
C  C82  1  0.19779649  0.95098686  0.75856076  1  0  -0.071486  0  3.793468  0  0  -0.087474  0  4.045089  0  0  -0.089117  0  4.068124  0  0  -0.093586  -0.086005  0  4.02901  0
C  C83  1  0.69780495  0.04901217  0.74143582  1  0  -0.071671  0  3.793778  0  0  -0.087652  0  4.04536  0  0  -0.089292  0  4.068395  0  0  -0.093634  -0.086176  0  4.029279  0
C  C84  1  0.76831565  0.13505824  0.30789963  1  0  -0.073628  0  3.785096  0  0  -0.084789  0  4.032362  0  0  -0.087581  0  4.055696  0  0  -0.094192  -0.08287  0  4.016322  0
C  C85  1  0.26832351  0.86494783  0.19210915  1  0  -0.073552  0  3.785184  0  0  -0.08466  0  4.032406  0  0  -0.087455  0  4.055745  0  0  -0.094113  -0.082742  0  4.016367  0
C  C86  1  0.23167878  0.86494940  0.69210921  1  0  -0.073611  0  3.785229  0  0  -0.084756  0  4.032482  0  0  -0.08755  0  4.055817  0  0  -0.094158  -0.082836  0  4.016437  0
C  C87  1  0.73168046  0.13504878  0.80788917  1  0  -0.073556  0  3.785284  0  0  -0.08471  0  4.032514  0  0  -0.087502  0  4.055848  0  0  -0.094165  -0.082789  0  4.016469  0
C  C88  1  0.77664898  0.24551591  0.28810446  1  0  -0.105636  0  3.755494  0  0  -0.126857  0  4.002954  0  0  -0.129936  0  4.025068  0  0  -0.089921  -0.124806  0  3.988234  0
C  C89  1  0.27665882  0.75448664  0.21189617  1  0  -0.105608  0  3.755459  0  0  -0.126829  0  4.002966  0  0  -0.129916  0  4.025081  0  0  -0.089898  -0.124767  0  3.988236  0
C  C90  1  0.22335658  0.75448830  0.71189956  1  0  -0.105731  0  3.755603  0  0  -0.126968  0  4.003089  0  0  -0.130056  0  4.025203  0  0  -0.089969  -0.124899  0  3.988351  0
C  C91  1  0.72335470  0.24550911  0.78810078  1  0  -0.105738  0  3.755447  0  0  -0.126952  0  4.002902  0  0  -0.130038  0  4.025014  0  0  -0.089936  -0.124886  0  3.98817  0
S  S92  1  0.31870142  0.37279360  0.23049345  1  0  -0.12178  0  2.762641  0  0  -0.131712  0  3.212488  0  0  -0.155965  0  3.194151  0  0  -0.139109  -0.122865  0  3.22608  0
S  S93  1  0.81869718  0.62719455  0.26949830  1  0  -0.12178  0  2.762766  0  0  -0.13167  0  3.212609  0  0  -0.155933  0  3.194287  0  0  -0.139056  -0.122825  0  3.226201  0
S  S94  1  0.68131846  0.62719882  0.76950332  1  0  -0.12178  0  2.762748  0  0  -0.131683  0  3.212591  0  0  -0.155944  0  3.194269  0  0  -0.139065  -0.122846  0  3.226199  0
S  S95  1  0.18132429  0.37279800  0.73050441  1  0  -0.121703  0  2.762915  0  0  -0.131614  0  3.212791  0  0  -0.155874  0  3.194477  0  0  -0.13902  -0.122777  0  3.226391  0
S  S96  1  0.81736282  0.41006499  0.17166260  1  0  -0.124434  0  2.751672  0  0  -0.13285  0  3.191483  0  0  -0.157623  0  3.173877  0  0  -0.1432  -0.12377  0  3.204638  0
S  S97  1  0.31735868  0.58992398  0.32832854  1  0  -0.124437  0  2.751627  0  0  -0.132813  0  3.191452  0  0  -0.157593  0  3.17384  0  0  -0.143168  -0.123734  0  3.204607  0
S  S98  1  0.18265865  0.58993161  0.82833506  1  0  -0.124515  0  2.751726  0  0  -0.132941  0  3.19155  0  0  -0.157728  0  3.173942  0  0  -0.143213  -0.123865  0  3.204712  0
S  S99  1  0.68266120  0.41007016  0.67167096  1  0  -0.124531  0  2.751673  0  0  -0.132965  0  3.191493  0  0  -0.157752  0  3.17389  0  0  -0.143235  -0.12389  0  3.204662  0
