# generated using pymatgen
data_ZnH9C10(NO2)3
_symmetry_space_group_name_H-M   'P 1'
_cell_length_a   7.14544204
_cell_length_b   7.42947505
_cell_length_c   12.59127318
_cell_angle_alpha   104.96467509
_cell_angle_beta   93.64816575
_cell_angle_gamma   113.71621985
_symmetry_Int_Tables_number   1
_chemical_formula_structural   ZnH9C10(NO2)3
_chemical_formula_sum   'Zn2 H18 C20 N6 O12'
_cell_volume   580.52971428
_cell_formula_units_Z   2
loop_
 _symmetry_equiv_pos_site_id
 _symmetry_equiv_pos_as_xyz
  1  'x, y, z'
loop_
 _atom_site_type_symbol
 _atom_site_label
 _atom_site_symmetry_multiplicity
 _atom_site_fract_x
 _atom_site_fract_y
 _atom_site_fract_z
 _atom_site_occupancy
 _atom_site_hle17_bader_spin_density
 _atom_site_hle17_ddec_charge
 _atom_site_hle17_ddec_spin_density
 _atom_site_hle17_ddec_sum_bond_order
 _atom_site_hle17_magmom
 _atom_site_hse06_10hf_bader_spin_density
 _atom_site_hse06_10hf_ddec_charge
 _atom_site_hse06_10hf_ddec_spin_density
 _atom_site_hse06_10hf_ddec_sum_bond_order
 _atom_site_hse06_10hf_magmom
 _atom_site_hse06_bader_spin_density
 _atom_site_hse06_ddec_charge
 _atom_site_hse06_ddec_spin_density
 _atom_site_hse06_ddec_sum_bond_order
 _atom_site_hse06_magmom
 _atom_site_pbe_bader_spin_density
 _atom_site_pbe_cm5_charge
 _atom_site_pbe_ddec_charge
 _atom_site_pbe_ddec_spin_density
 _atom_site_pbe_ddec_sum_bond_order
 _atom_site_pbe_magmom
Zn  Zn0  1  0.28051937  0.26839410  0.96091186  1  0  1.151505  0  1.752667  0  0  0.993855  0  2.191992  0  0  1.037805  0  2.136865  0  0  0.688344  0.962932  0  2.229969  0
Zn  Zn1  1  0.71948212  0.73160290  0.03908694  1  0  1.151533  0  1.75259  0  0  0.993881  0  2.191914  0  0  1.037824  0  2.13679  0  0  0.688341  0.96295  0  2.229886  0
H  H2  1  0.62339765  0.32858338  0.05326953  1  0  0.415674  0  0.891495  0  0  0.381369  0  0.965477  0  0  0.393493  0  0.947913  0  0  0.292049  0.372783  0  0.977904  0
H  H3  1  0.37660245  0.67141362  0.94672923  1  0  0.415653  0  0.891523  0  0  0.381334  0  0.965532  0  0  0.393458  0  0.947968  0  0  0.292043  0.37275  0  0.977958  0
H  H4  1  0.66561731  0.32426573  0.92268226  1  0  0.429353  0  0.876106  0  0  0.394066  0  0.946089  0  0  0.406596  0  0.928145  0  0  0.292275  0.385218  0  0.95874  0
H  H5  1  0.33438211  0.67572972  0.07731623  1  0  0.429342  0  0.876116  0  0  0.394029  0  0.946121  0  0  0.40656  0  0.928174  0  0  0.292271  0.385178  0  0.958774  0
H  H6  1  0.15743217  0.88155670  0.97408490  1  0  0.437803  0  0.856117  0  0  0.406369  0  0.919554  0  0  0.417243  0  0.903644  0  0  0.296578  0.398665  0  0.930823  0
H  H7  1  0.84256792  0.11844030  0.02591306  1  0  0.437799  0  0.856123  0  0  0.406367  0  0.91955  0  0  0.417241  0  0.90364  0  0  0.296586  0.398665  0  0.930816  0
H  H8  1  0.30714271  0.89810655  0.88456473  1  0  0.437906  0  0.85768  0  0  0.408112  0  0.9187  0  0  0.418585  0  0.903215  0  0  0.296659  0.400687  0  0.929678  0
H  H9  1  0.69285947  0.10189200  0.11543513  1  0  0.437911  0  0.857666  0  0  0.408123  0  0.918677  0  0  0.418596  0  0.903193  0  0  0.296662  0.400695  0  0.929659  0
H  H10  1  0.07811697  0.31064406  0.27129385  1  0  0.119812  0  0.937206  0  0  0.127157  0  0.998389  0  0  0.131366  0  0.994777  0  0  0.110672  0.124079  0  1.001056  0
H  H11  1  0.92188584  0.68935913  0.72870673  1  0  0.119769  0  0.937234  0  0  0.127113  0  0.998429  0  0  0.131323  0  0.994813  0  0  0.110648  0.124034  0  1.001101  0
H  H12  1  0.99519533  0.30896635  0.46265670  1  0  0.110659  0  0.949531  0  0  0.119719  0  1.012258  0  0  0.123377  0  1.009984  0  0  0.108323  0.117185  0  1.013775  0
H  H13  1  0.00480332  0.69103375  0.53734246  1  0  0.110649  0  0.949522  0  0  0.119692  0  1.012268  0  0  0.123351  0  1.009995  0  0  0.10831  0.11716  0  1.013784  0
H  H14  1  0.49079963  0.25905453  0.70741397  1  0  0.129144  0  0.951381  0  0  0.134961  0  1.017742  0  0  0.139144  0  1.012401  0  0  0.148234  0.131879  0  1.021561  0
H  H15  1  0.50920245  0.74095021  0.29258602  1  0  0.129158  0  0.951378  0  0  0.134957  0  1.017762  0  0  0.139138  0  1.012423  0  0  0.148229  0.131875  0  1.021577  0
H  H16  1  0.52345209  0.18872671  0.53811092  1  0  0.107246  0  0.953131  0  0  0.119105  0  1.011679  0  0  0.121907  0  1.010771  0  0  0.109801  0.117127  0  1.012371  0
H  H17  1  0.47654448  0.81127184  0.46188873  1  0  0.107217  0  0.953184  0  0  0.119102  0  1.011697  0  0  0.121903  0  1.01079  0  0  0.1098  0.117125  0  1.012387  0
H  H18  1  0.60566230  0.19808596  0.35041451  1  0  0.101529  0  0.936264  0  0  0.113402  0  0.993236  0  0  0.116742  0  0.990667  0  0  0.106953  0.110898  0  0.99519  0
H  H19  1  0.39433567  0.80191260  0.64958599  1  0  0.101525  0  0.93626  0  0  0.113408  0  0.993218  0  0  0.116744  0  0.990652  0  0  0.106962  0.110905  0  0.995173  0
C  C20  1  0.40135332  0.26597302  0.18799901  1  0  0.656186  0  3.898174  0  0  0.597798  0  4.202837  0  0  0.632139  0  4.196638  0  0  0.21157  0.574578  0  4.20627  0
C  C21  1  0.59864741  0.73402863  0.81200285  1  0  0.656107  0  3.898291  0  0  0.597664  0  4.203015  0  0  0.632005  0  4.196819  0  0  0.211503  0.574447  0  4.206446  0
C  C22  1  0.34798282  0.25679203  0.30038835  1  0  -0.085116  0  3.753747  0  0  -0.067172  0  3.998575  0  0  -0.077659  0  4.023833  0  0  -0.022139  -0.060494  0  3.981647  0
C  C23  1  0.65201863  0.74320807  0.69961171  1  0  -0.085217  0  3.753884  0  0  -0.067259  0  3.998717  0  0  -0.077747  0  4.023973  0  0  -0.022191  -0.060585  0  3.981793  0
C  C24  1  0.17429062  0.28562190  0.33131303  1  0  -0.039876  0  3.699541  0  0  -0.063072  0  3.95038  0  0  -0.061167  0  3.969661  0  0  -0.076158  -0.064046  0  3.937273  0
C  C25  1  0.82571215  0.71438439  0.66868802  1  0  -0.039838  0  3.699554  0  0  -0.063037  0  3.950384  0  0  -0.061131  0  3.969667  0  0  -0.07612  -0.06401  0  3.937279  0
C  C26  1  0.12717256  0.28318557  0.43669444  1  0  -0.145277  0  3.72358  0  0  -0.169953  0  3.987502  0  0  -0.175543  0  4.007528  0  0  -0.09106  -0.166143  0  3.97348  0
C  C27  1  0.87282884  0.71681762  0.56330530  1  0  -0.145213  0  3.723454  0  0  -0.16988  0  3.987377  0  0  -0.175467  0  4.007401  0  0  -0.091062  -0.16607  0  3.973354  0
C  C28  1  0.25420165  0.24966272  0.51101704  1  0  0.176705  0  3.776613  0  0  0.15201  0  4.032995  0  0  0.158956  0  4.05496  0  0  0.10126  0.147949  0  4.017553  0
C  C29  1  0.74579768  0.75033892  0.48898239  1  0  0.176706  0  3.776614  0  0  0.152014  0  4.032952  0  0  0.158956  0  4.054923  0  0  0.101308  0.147958  0  4.017506  0
C  C30  1  0.05393495  0.25043218  0.75554958  1  0  0.187381  0  3.744699  0  0  0.16985  0  4.025945  0  0  0.175294  0  4.040099  0  0  0.21867  0.166254  0  4.016201  0
C  C31  1  0.94606438  0.74956946  0.24445064  1  0  0.187275  0  3.744852  0  0  0.169778  0  4.026094  0  0  0.175212  0  4.040266  0  0  0.218676  0.166195  0  4.016327  0
C  C32  1  0.33616821  0.25302197  0.70694707  1  0  0.201965  0  3.576608  0  0  0.125787  0  3.84244  0  0  0.140644  0  3.851143  0  0  0.176275  0.116563  0  3.836033  0
C  C33  1  0.66383388  0.74698277  0.29305293  1  0  0.201905  0  3.576682  0  0  0.125712  0  3.842521  0  0  0.140566  0  3.851228  0  0  0.176267  0.11649  0  3.836111  0
C  C34  1  0.90525595  0.24557063  0.83468274  1  0  0.620993  0  3.916355  0  0  0.566926  0  4.216044  0  0  0.600324  0  4.207483  0  0  0.224285  0.544295  0  4.221226  0
C  C35  1  0.09474492  0.75442173  0.16531772  1  0  0.620982  0  3.916381  0  0  0.566882  0  4.216108  0  0  0.60028  0  4.207546  0  0  0.22424  0.544247  0  4.221289  0
C  C36  1  0.42581981  0.21688377  0.48063617  1  0  -0.159614  0  3.748692  0  0  -0.180355  0  4.009716  0  0  -0.186911  0  4.03192  0  0  -0.090322  -0.175982  0  3.994393  0
C  C37  1  0.57418092  0.78311788  0.51936410  1  0  -0.159593  0  3.748735  0  0  -0.18036  0  4.009752  0  0  -0.186918  0  4.031957  0  0  -0.090312  -0.175988  0  3.994426  0
C  C38  1  0.47226446  0.22198194  0.37574634  1  0  -0.035592  0  3.740691  0  0  -0.06289  0  3.996183  0  0  -0.060275  0  4.015662  0  0  -0.078716  -0.064253  0  3.982861  0
C  C39  1  0.52773347  0.77801972  0.62425462  1  0  -0.035566  0  3.740674  0  0  -0.062869  0  3.996161  0  0  -0.06025  0  4.015639  0  0  -0.078734  -0.064233  0  3.982844  0
N  N40  1  0.21146533  0.25056450  0.61973458  1  0  0.014972  0  3.563462  0  0  0.129416  0  3.750203  0  0  0.118072  0  3.772739  0  0  -0.107094  0.13516  0  3.737724  0
N  N41  1  0.78853399  0.74943715  0.38026564  1  0  0.014988  0  3.563512  0  0  0.129499  0  3.750167  0  0  0.118173  0  3.772674  0  0  -0.107062  0.135237  0  3.737692  0
N  N42  1  0.03113267  0.25031810  0.64991474  1  0  -0.237713  0  2.794296  0  0  -0.250418  0  3.055918  0  0  -0.254258  0  3.068223  0  0  -0.197327  -0.247387  0  3.047681  0
N  N43  1  0.96886598  0.74968200  0.35008602  1  0  -0.237645  0  2.794369  0  0  -0.25039  0  3.055975  0  0  -0.254231  0  3.068282  0  0  -0.197329  -0.247365  0  3.047734  0
N  N44  1  0.23913464  0.25243000  0.79289313  1  0  -0.407728  0  3.237035  0  0  -0.34278  0  3.524495  0  0  -0.362739  0  3.537171  0  0  -0.335463  -0.329301  0  3.515461  0
N  N45  1  0.76086468  0.74757165  0.20710789  1  0  -0.40767  0  3.237081  0  0  -0.342741  0  3.524546  0  0  -0.362694  0  3.537222  0  0  -0.335488  -0.329266  0  3.515499  0
O  O46  1  0.61181057  0.38378772  0.98915111  1  0  -0.866858  0  2.050724  0  0  -0.795167  0  2.291613  0  0  -0.819709  0  2.252336  0  0  -0.564428  -0.777762  0  2.318604  0
O  O47  1  0.38818953  0.61620928  0.01084765  1  0  -0.866807  0  2.050726  0  0  -0.795076  0  2.291664  0  0  -0.819622  0  2.252392  0  0  -0.564402  -0.777663  0  2.318642  0
O  O48  1  0.27696498  0.29399872  0.12421460  1  0  -0.621904  0  2.068661  0  0  -0.547274  0  2.327621  0  0  -0.575864  0  2.31673  0  0  -0.313628  -0.527466  0  2.334512  0
O  O49  1  0.72303996  0.70600292  0.87578583  1  0  -0.621861  0  2.06866  0  0  -0.547185  0  2.327603  0  0  -0.575776  0  2.316719  0  0  -0.313578  -0.527376  0  2.334491  0
O  O50  1  0.56764331  0.25260590  0.16515089  1  0  -0.655748  0  2.012167  0  0  -0.594746  0  2.235791  0  0  -0.620389  0  2.225232  0  0  -0.322081  -0.57688  0  2.242579  0
O  O51  1  0.43236022  0.74739574  0.83485028  1  0  -0.655667  0  2.012214  0  0  -0.594646  0  2.235864  0  0  -0.620288  0  2.225306  0  0  -0.322039  -0.576781  0  2.242651  0
O  O52  1  0.96727429  0.23401716  0.92959601  1  0  -0.629  0  2.045661  0  0  -0.556812  0  2.285906  0  0  -0.584063  0  2.273135  0  0  -0.303259  -0.537889  0  2.294256  0
O  O53  1  0.03272097  0.76597520  0.07040186  1  0  -0.629077  0  2.045622  0  0  -0.556858  0  2.285835  0  0  -0.584103  0  2.273056  0  0  -0.303284  -0.537935  0  2.294188  0
O  O54  1  0.73785357  0.25366041  0.80646140  1  0  -0.569701  0  1.979282  0  0  -0.521731  0  2.200869  0  0  -0.545448  0  2.191572  0  0  -0.29868  -0.505296  0  2.206875  0
O  O55  1  0.26214160  0.74633815  0.19353740  1  0  -0.569639  0  1.979333  0  0  -0.521634  0  2.200919  0  0  -0.545348  0  2.191617  0  0  -0.298649  -0.505205  0  2.206929  0
O  O56  1  0.21289771  0.95361795  0.91878216  1  0  -0.844712  0  1.892125  0  0  -0.787565  0  2.099403  0  0  -0.807699  0  2.063915  0  0  -0.581589  -0.773382  0  2.124136  0
O  O57  1  0.78710099  0.04637905  0.08121654  1  0  -0.844718  0  1.892111  0  0  -0.787587  0  2.099414  0  0  -0.80772  0  2.063927  0  0  -0.5816  -0.773405  0  2.124145  0
