# generated using pymatgen
data_Dy2Co3H30C42(NO5)6
_symmetry_space_group_name_H-M   'P 1'
_cell_length_a   15.26065766
_cell_length_b   15.26067167
_cell_length_c   15.44422494
_cell_angle_alpha   89.99999934
_cell_angle_beta   90.00000928
_cell_angle_gamma   120.00014620
_symmetry_Int_Tables_number   1
_chemical_formula_structural   Dy2Co3H30C42(NO5)6
_chemical_formula_sum   'Dy4 Co6 H60 C84 N12 O60'
_cell_volume   3114.89211144
_cell_formula_units_Z   2
loop_
 _symmetry_equiv_pos_site_id
 _symmetry_equiv_pos_as_xyz
  1  'x, y, z'
loop_
 _atom_site_type_symbol
 _atom_site_label
 _atom_site_symmetry_multiplicity
 _atom_site_fract_x
 _atom_site_fract_y
 _atom_site_fract_z
 _atom_site_occupancy
 _atom_site_pbe_bader_charge
 _atom_site_pbe_bader_spin_density
 _atom_site_pbe_cm5_charge
 _atom_site_pbe_ddec_charge
 _atom_site_pbe_ddec_spin_density
 _atom_site_pbe_ddec_sum_bond_order
 _atom_site_pbe_magmom
Dy  Dy0  1  0.33333291  0.66666610  0.25000027  1  2.112056  -0.000442  1.526696  1.837461  -0.000714  2.286939  0.0
Dy  Dy1  1  0.66666701  0.33333393  0.25000029  1  2.112062  -0.000442  1.52668  1.837462  -0.000714  2.286938  0.0
Dy  Dy2  1  0.66666640  0.33333330  0.74999949  1  2.112055  -0.000442  1.526698  1.837454  -0.000714  2.286961  0.0
Dy  Dy3  1  0.33333334  0.66666575  0.75000011  1  2.112022  -0.000442  1.526687  1.83747  -0.000714  2.286928  0.0
Co  Co4  1  0.49999947  0.49999989  0.49999988  1  1.367666  2.678014  0.664181  1.083254  2.887527  2.319474  2.664
Co  Co5  1  0.49999971  0.99999949  0.49999987  1  1.369567  2.678073  0.664215  1.083337  2.887531  2.319367  2.664
Co  Co6  1  0.00000006  0.50000006  0.49999992  1  1.368193  2.677832  0.664172  1.083212  2.88753  2.319554  2.664
Co  Co7  1  0.50000045  0.50000014  0.00000004  1  1.367761  2.678008  0.664159  1.083238  2.88753  2.319504  2.664
Co  Co8  1  0.00000011  0.50000008  0.99999976  1  1.369588  2.678073  0.664153  1.083218  2.887531  2.319529  2.664
Co  Co9  1  0.49999928  0.99999984  0.00000003  1  1.36819  2.677832  0.6642  1.083259  2.887531  2.31949  2.664
H  H10  1  0.53036851  0.36030788  0.55186975  1  0.646074  0.000145  0.293479  0.385856  4.3e-05  0.946378  0.0
H  H11  1  0.24069357  0.28522835  0.35229546  1  0.115951  0.000139  0.11624  0.127571  7e-06  0.989384  0.0
H  H12  1  0.63969147  0.17006063  0.55186976  1  0.64492  0.000147  0.293485  0.385871  4.3e-05  0.946357  0.0
H  H13  1  0.71477204  0.95546673  0.35229484  1  0.129491  0.000139  0.116237  0.127559  7e-06  0.98939  0.0
H  H14  1  0.82993851  0.46963072  0.55186913  1  0.646686  0.000159  0.293483  0.385837  4.3e-05  0.946416  0.0
H  H15  1  0.04453437  0.75930597  0.35229544  1  0.104867  0.000134  0.116239  0.127575  7e-06  0.98938  0.0
H  H16  1  0.46963043  0.63969191  0.55186975  1  0.646028  0.000145  0.293488  0.385885  4.3e-05  0.946336  0.0
H  H17  1  0.75930638  0.71477170  0.35229550  1  0.115773  0.000139  0.116229  0.127539  7e-06  0.989338  0.0
H  H18  1  0.36030851  0.82993944  0.55186974  1  0.644922  0.000147  0.293488  0.385888  4.3e-05  0.946332  0.0
H  H19  1  0.28522752  0.04453369  0.35229546  1  0.129505  0.000139  0.116229  0.127564  7e-06  0.989351  0.0
H  H20  1  0.17006147  0.53036934  0.55186908  1  0.646685  0.000159  0.293484  0.385847  4.3e-05  0.946401  0.0
H  H21  1  0.95546557  0.24069407  0.35229616  1  0.104878  0.000134  0.116231  0.127545  7e-06  0.989332  0.0
H  H22  1  0.36030796  0.53036948  0.94813048  1  0.646029  0.000145  0.293477  0.385838  4.3e-05  0.946399  0.0
H  H23  1  0.28522817  0.24069379  0.14770442  1  0.115948  0.000139  0.116248  0.127577  7e-06  0.989349  0.0
H  H24  1  0.17006183  0.63969209  0.94812982  1  0.644912  0.000147  0.293479  0.385875  4.3e-05  0.946353  0.0
H  H25  1  0.95546605  0.71477182  0.14770447  1  0.129504  0.000139  0.116252  0.127589  7e-06  0.989335  0.0
H  H26  1  0.46963114  0.82993880  0.94813049  1  0.646672  0.000159  0.293482  0.385847  4.3e-05  0.946397  0.0
H  H27  1  0.75930480  0.04453420  0.14770446  1  0.104888  0.000134  0.116248  0.127578  7e-06  0.989328  0.0
H  H28  1  0.63969210  0.46963062  0.94813050  1  0.64603  0.000145  0.293482  0.385842  4.3e-05  0.946398  0.0
H  H29  1  0.71477211  0.75930585  0.14770381  1  0.115767  0.000139  0.116247  0.127567  7e-06  0.989328  0.0
H  H30  1  0.82993824  0.36030801  0.94812987  1  0.644914  0.000147  0.293481  0.385868  4.3e-05  0.946361  0.0
H  H31  1  0.04453385  0.28522820  0.14770440  1  0.129494  0.000139  0.116243  0.127582  7e-06  0.989352  0.0
H  H32  1  0.53036959  0.17006196  0.94813049  1  0.646669  0.000159  0.293489  0.385886  4.3e-05  0.946344  0.0
H  H33  1  0.24069509  0.95546582  0.14770506  1  0.104879  0.000134  0.116251  0.127589  7e-06  0.989355  0.0
H  H34  1  0.46963042  0.63969191  0.44813065  1  0.646028  0.000145  0.293471  0.38585  4.3e-05  0.946389  0.0
H  H35  1  0.75930575  0.71477106  0.64770430  1  0.115762  0.000139  0.116227  0.127557  7e-06  0.989379  0.0
H  H36  1  0.36030888  0.82993905  0.44812999  1  0.644916  0.000147  0.293478  0.385868  4.3e-05  0.946363  0.0
H  H37  1  0.28522831  0.04453295  0.64770491  1  0.129494  0.000139  0.116238  0.127569  7e-06  0.989385  0.0
H  H38  1  0.17006109  0.53036972  0.44813062  1  0.646668  0.000159  0.293477  0.385856  4.3e-05  0.946394  0.0
H  H39  1  0.95546522  0.24069447  0.64770432  1  0.10487  0.000134  0.116233  0.127572  7e-06  0.989361  0.0
H  H40  1  0.53036916  0.36030853  0.44813065  1  0.646032  0.000145  0.293481  0.38588  4.3e-05  0.946349  0.0
H  H41  1  0.24069360  0.28522836  0.64770426  1  0.11576  0.000139  0.116247  0.127581  7e-06  0.989355  0.0
H  H42  1  0.63969211  0.17006128  0.44813002  1  0.644917  0.000147  0.29347  0.38583  4.3e-05  0.946413  0.0
H  H43  1  0.71477245  0.95546636  0.64770494  1  0.129492  0.000139  0.116229  0.127551  7e-06  0.989403  0.0
H  H44  1  0.82993850  0.46963071  0.44813068  1  0.646684  0.000159  0.293466  0.385828  4.3e-05  0.946435  0.0
H  H45  1  0.04453441  0.75930598  0.64770424  1  0.104883  0.000134  0.116221  0.127526  7e-06  0.989322  0.0
H  H46  1  0.63969201  0.46963057  0.05186992  1  0.646026  0.000145  0.293475  0.385838  4.3e-05  0.946401  0.0
H  H47  1  0.71477180  0.75930626  0.85229533  1  0.115947  0.000139  0.116258  0.127611  7e-06  0.989405  0.0
H  H48  1  0.82993815  0.36030797  0.05186929  1  0.644918  0.000147  0.293465  0.385838  4.3e-05  0.946408  0.0
H  H49  1  0.04453393  0.28522823  0.85229528  1  0.12949  0.000139  0.116248  0.127608  7e-06  0.989408  0.0
H  H50  1  0.53036884  0.17006126  0.05186927  1  0.646687  0.000159  0.293485  0.385856  4.3e-05  0.946387  0.0
H  H51  1  0.24069517  0.95546586  0.85229594  1  0.104885  0.000134  0.116246  0.127584  7e-06  0.989326  0.0
H  H52  1  0.36030787  0.53036944  0.05186925  1  0.64603  0.000145  0.293478  0.385829  4.3e-05  0.946419  0.0
H  H53  1  0.28522787  0.24069420  0.85229530  1  0.115963  0.000139  0.116242  0.127558  7e-06  0.989363  0.0
H  H54  1  0.17006173  0.63969205  0.05186988  1  0.644915  0.000147  0.293483  0.385882  4.3e-05  0.946342  0.0
H  H55  1  0.95546612  0.71477186  0.85229470  1  0.129503  0.000139  0.11624  0.127568  7e-06  0.989379  0.0
H  H56  1  0.46963039  0.82993810  0.05186926  1  0.64667  0.000159  0.293474  0.385841  4.3e-05  0.946411  0.0
H  H57  1  0.75930526  0.04453385  0.85229534  1  0.104883  0.000134  0.116241  0.127581  7e-06  0.989337  0.0
H  H58  1  0.09337876  0.18675771  0.25000025  1  0.059399  -5.1e-05  0.101592  0.085473  -1.4e-05  1.006688  0.0
H  H59  1  0.81324202  0.90662129  0.24999966  1  0.059394  -5.1e-05  0.101583  0.085461  -1.4e-05  1.006704  0.0
H  H60  1  0.09338030  0.90662089  0.25000025  1  0.066871  -4.9e-05  0.10161  0.085503  -1.4e-05  1.006686  0.0
H  H61  1  0.90662154  0.81324194  0.25000031  1  0.060809  -5e-05  0.101591  0.085458  -1.4e-05  1.006709  0.0
H  H62  1  0.18675790  0.09337874  0.24999961  1  0.060808  -5e-05  0.101585  0.085464  -1.4e-05  1.006702  0.0
H  H63  1  0.90662027  0.09337980  0.25000032  1  0.066862  -4.9e-05  0.101593  0.085479  -1.4e-05  1.006714  0.0
H  H64  1  0.90662159  0.81324197  0.74999950  1  0.060817  -5e-05  0.101593  0.085475  -1.4e-05  1.006687  0.0
H  H65  1  0.18675833  0.09337839  0.75000010  1  0.060823  -5e-05  0.101596  0.085481  -1.4e-05  1.006681  0.0
H  H66  1  0.90662032  0.09337982  0.74999951  1  0.066864  -4.9e-05  0.101591  0.085475  -1.4e-05  1.006715  0.0
H  H67  1  0.09337843  0.18675811  0.75000009  1  0.059403  -5.1e-05  0.101598  0.085461  -1.4e-05  1.006697  0.0
H  H68  1  0.81324207  0.90662131  0.75000079  1  0.059383  -5.1e-05  0.101588  0.08544  -1.4e-05  1.006734  0.0
H  H69  1  0.09338036  0.90662091  0.75000009  1  0.06686  -4.9e-05  0.101605  0.085478  -1.4e-05  1.006709  0.0
C  C70  1  0.35537386  0.49303791  0.36088055  1  1.575438  -0.007231  0.227742  0.573812  -0.008788  4.18512  -0.005
C  C71  1  0.26633083  0.42785137  0.30412405  1  0.503504  0.003766  0.128959  0.136506  0.001694  3.957458  0.004
C  C72  1  0.21529241  0.32230916  0.30680272  1  0.051793  -0.005648  -0.065787  -0.11692  -0.006122  3.915544  -0.003
C  C73  1  0.50696264  0.86233696  0.36088121  1  1.590831  -0.007256  0.227676  0.573637  -0.008789  4.185293  -0.005
C  C74  1  0.57214859  0.83848096  0.30412408  1  0.447965  0.003754  0.129005  0.136604  0.001693  3.957426  0.004
C  C75  1  0.67769111  0.89298430  0.30680211  1  0.029291  -0.005668  -0.065785  -0.116924  -0.006122  3.915582  -0.003
C  C76  1  0.13766385  0.64462580  0.36088053  1  1.590205  -0.007214  0.227668  0.573624  -0.00879  4.185155  -0.005
C  C77  1  0.16151989  0.73366805  0.30412404  1  0.512417  0.003777  0.128966  0.136542  0.001693  3.957498  0.004
C  C78  1  0.10701682  0.78470720  0.30680271  1  0.062901  -0.005646  -0.065791  -0.116939  -0.006123  3.915615  -0.003
C  C79  1  0.64462636  0.50696317  0.36088057  1  1.575611  -0.007231  0.227763  0.573825  -0.008788  4.185193  -0.005
C  C80  1  0.73366910  0.57214867  0.30412409  1  0.503481  0.003766  0.128967  0.136484  0.001693  3.957482  0.004
C  C81  1  0.78470724  0.67768984  0.30680147  1  0.051719  -0.005649  -0.065773  -0.11685  -0.006121  3.915451  -0.003
C  C82  1  0.49303758  0.13766412  0.36088121  1  1.590831  -0.007256  0.227685  0.573678  -0.00879  4.185189  -0.005
C  C83  1  0.42785096  0.16151946  0.30412472  1  0.447968  0.003754  0.128999  0.136566  0.001693  3.957468  0.004
C  C84  1  0.32231013  0.10701705  0.30680144  1  0.02923  -0.005668  -0.065803  -0.116953  -0.006121  3.915606  -0.003
C  C85  1  0.86233609  0.35537424  0.36088059  1  1.590212  -0.007214  0.227666  0.573641  -0.008789  4.185123  -0.005
C  C86  1  0.83848080  0.26633124  0.30412475  1  0.512327  0.003777  0.128944  0.136475  0.001693  3.957578  0.004
C  C87  1  0.89298104  0.21529229  0.30680278  1  0.062857  -0.005645  -0.065758  -0.116834  -0.006121  3.915554  -0.003
C  C88  1  0.49303726  0.35537342  0.13912000  1  1.575376  -0.007231  0.227772  0.57385  -0.008789  4.185162  -0.005
C  C89  1  0.42785136  0.26633112  0.19587649  1  0.5035  0.003766  0.128984  0.136542  0.001693  3.957447  0.004
C  C90  1  0.32230905  0.21529270  0.19319781  1  0.051529  -0.00565  -0.065782  -0.116906  -0.006122  3.915474  -0.003
C  C91  1  0.86233694  0.50696328  0.13911938  1  1.590632  -0.007256  0.2277  0.573695  -0.008789  4.185283  -0.005
C  C92  1  0.83848089  0.57214914  0.19587587  1  0.447965  0.003754  0.12898  0.136539  0.001693  3.957465  0.004
C  C93  1  0.89298329  0.67768987  0.19319850  1  0.029236  -0.005668  -0.0658  -0.116941  -0.006121  3.915575  -0.003
C  C94  1  0.64462613  0.13766443  0.13911937  1  1.590677  -0.007214  0.227709  0.573689  -0.008789  4.185215  -0.005
C  C95  1  0.73366885  0.16152012  0.19587586  1  0.512006  0.003779  0.128956  0.136532  0.001693  3.95749  0.004
C  C96  1  0.78470724  0.10701932  0.19319720  1  0.062857  -0.005645  -0.065787  -0.11692  -0.006121  3.915529  -0.003
C  C97  1  0.50696198  0.64462595  0.13912000  1  1.575392  -0.007231  0.227722  0.573777  -0.008789  4.185079  -0.005
C  C98  1  0.57214958  0.73366918  0.19587649  1  0.503471  0.003766  0.128987  0.136517  0.001693  3.957514  0.004
C  C99  1  0.67768972  0.78470846  0.19319783  1  0.052008  -0.005648  -0.065789  -0.116886  -0.006121  3.915576  -0.003
C  C100  1  0.13766295  0.49303675  0.13911932  1  1.590631  -0.007256  0.227687  0.573643  -0.008789  4.185265  -0.005
C  C101  1  0.16152005  0.42785117  0.19587517  1  0.447988  0.003754  0.129044  0.136638  0.001693  3.957486  0.004
C  C102  1  0.10701634  0.32230912  0.19319779  1  0.029286  -0.005668  -0.065803  -0.11698  -0.006122  3.915605  -0.003
C  C103  1  0.35537377  0.86233560  0.13911934  1  1.590536  -0.007216  0.227667  0.573606  -0.00879  4.185102  -0.005
C  C104  1  0.26633143  0.83847953  0.19587582  1  0.512033  0.003778  0.12897  0.136566  0.001693  3.957431  0.004
C  C105  1  0.21529322  0.89298278  0.19319779  1  0.062837  -0.005646  -0.065794  -0.116938  -0.006122  3.915588  -0.003
C  C106  1  0.64462611  0.50696215  0.63911985  1  1.57538  -0.007231  0.227657  0.573637  -0.008789  4.185159  -0.005
C  C107  1  0.73366811  0.57214841  0.69587635  1  0.50349  0.003765  0.128986  0.136546  0.001693  3.957512  0.004
C  C108  1  0.78470690  0.67769024  0.69319768  1  0.052  -0.005649  -0.065782  -0.116893  -0.006122  3.915563  -0.003
C  C109  1  0.49303733  0.13766310  0.63911919  1  1.590546  -0.007257  0.227698  0.573693  -0.008789  4.185204  -0.005
C  C110  1  0.42785166  0.16152013  0.69587503  1  0.447957  0.003754  0.129001  0.136583  0.001693  3.957465  0.004
C  C111  1  0.32230952  0.10701642  0.69319765  1  0.029303  -0.005668  -0.06579  -0.116934  -0.006122  3.915566  -0.003
C  C112  1  0.86233612  0.35537425  0.63911922  1  1.590596  -0.007216  0.227672  0.57363  -0.008789  4.185145  -0.005
C  C113  1  0.83848008  0.26633201  0.69587571  1  0.512021  0.003778  0.128962  0.136539  0.001693  3.957493  0.004
C  C114  1  0.89298277  0.21529324  0.69319704  1  0.062893  -0.005646  -0.06577  -0.116917  -0.006122  3.915552  -0.003
C  C115  1  0.35537362  0.49303689  0.63911918  1  1.575441  -0.007231  0.227748  0.573808  -0.008789  4.185049  -0.005
C  C116  1  0.26633087  0.42785139  0.69587631  1  0.503505  0.003766  0.128976  0.136532  0.001694  3.957464  0.004
C  C117  1  0.21529245  0.32230918  0.69319764  1  0.051711  -0.00565  -0.065821  -0.116972  -0.006122  3.915558  -0.003
C  C118  1  0.50696305  0.86233659  0.63911854  1  1.590603  -0.007256  0.227716  0.573722  -0.008789  4.185088  -0.005
C  C119  1  0.57214901  0.83848060  0.69587504  1  0.447998  0.003754  0.129008  0.136547  0.001693  3.957507  0.004
C  C120  1  0.67769153  0.89298394  0.69319767  1  0.029282  -0.005669  -0.065804  -0.116934  -0.006122  3.915615  -0.003
C  C121  1  0.13766388  0.64462582  0.63911916  1  1.590219  -0.007214  0.227661  0.573612  -0.008789  4.185104  -0.005
C  C122  1  0.16151917  0.73366882  0.69587565  1  0.512335  0.003777  0.128969  0.136524  0.001693  3.957524  0.004
C  C123  1  0.10701893  0.78470777  0.69319763  1  0.062852  -0.005645  -0.065781  -0.116849  -0.006121  3.915578  -0.003
C  C124  1  0.50696272  0.64462664  0.86088040  1  1.575611  -0.007232  0.227724  0.573735  -0.008789  4.185208  -0.005
C  C125  1  0.57214899  0.73366856  0.80412392  1  0.503484  0.003765  0.128981  0.136576  0.001693  3.957414  0.004
C  C126  1  0.67769092  0.78470736  0.80680260  1  0.051524  -0.00565  -0.065799  -0.116992  -0.006122  3.915589  -0.003
C  C127  1  0.13766368  0.49303744  0.86088037  1  1.590627  -0.007257  0.227709  0.57372  -0.00879  4.185169  -0.005
C  C128  1  0.16151974  0.42785158  0.80412453  1  0.447999  0.003754  0.129011  0.136607  0.001693  3.957427  0.004
C  C129  1  0.10701575  0.32230850  0.80680255  1  0.029279  -0.005669  -0.06579  -0.117018  -0.006122  3.915667  -0.003
C  C130  1  0.35537384  0.86233563  0.86088039  1  1.590668  -0.007215  0.227743  0.573759  -0.008789  4.185219  -0.005
C  C131  1  0.26633112  0.83847994  0.80412454  1  0.512  0.003779  0.128994  0.136544  0.001693  3.957474  0.004
C  C132  1  0.21529273  0.89298074  0.80680256  1  0.062864  -0.005645  -0.065793  -0.116937  -0.006121  3.91557  -0.003
C  C133  1  0.49303733  0.35537346  0.86087975  1  1.575375  -0.007231  0.22776  0.573831  -0.008789  4.185148  -0.005
C  C134  1  0.42785039  0.26633088  0.80412391  1  0.503421  0.003765  0.128973  0.13651  0.001693  3.957527  0.004
C  C135  1  0.32231025  0.21529160  0.80680192  1  0.051811  -0.005648  -0.065786  -0.116855  -0.006121  3.915637  -0.003
C  C136  1  0.86233702  0.50696331  0.86088043  1  1.590631  -0.007257  0.227685  0.573703  -0.008789  4.185272  -0.005
C  C137  1  0.83848095  0.57214916  0.80412394  1  0.447953  0.003754  0.129002  0.136592  0.001693  3.957421  0.004
C  C138  1  0.89298363  0.67769093  0.80680197  1  0.029263  -0.005668  -0.065801  -0.116934  -0.006122  3.915577  -0.003
C  C139  1  0.64462658  0.13766408  0.86088042  1  1.590279  -0.007214  0.227716  0.57372  -0.008789  4.184985  -0.005
C  C140  1  0.73366929  0.16151977  0.80412458  1  0.512329  0.003777  0.128988  0.136551  0.001693  3.957522  0.004
C  C141  1  0.78470769  0.10701897  0.80680261  1  0.062852  -0.005645  -0.065798  -0.116966  -0.006121  3.915639  -0.003
C  C142  1  0.13465736  0.26931537  0.25000025  1  -0.056874  -0.001319  -0.0695  -0.042501  -0.001441  4.005733  0.0
C  C143  1  0.73068532  0.86534297  0.24999965  1  -0.056884  -0.001319  -0.0695  -0.042521  -0.001442  4.005735  0.0
C  C144  1  0.13465906  0.86534221  0.25000025  1  -0.144675  -0.001351  -0.069506  -0.04254  -0.001442  4.005778  0.0
C  C145  1  0.86534322  0.73068532  0.25000031  1  -0.056825  -0.001319  -0.069505  -0.042523  -0.001442  4.005686  0.0
C  C146  1  0.26931498  0.13465669  0.25000026  1  -0.056821  -0.001319  -0.069502  -0.042515  -0.001442  4.005699  0.0
C  C147  1  0.86534227  0.13465772  0.24999966  1  -0.144687  -0.001351  -0.069496  -0.042526  -0.001442  4.005719  0.0
C  C148  1  0.86534299  0.73068431  0.75000015  1  -0.056867  -0.001319  -0.069498  -0.042539  -0.001442  4.005713  0.0
C  C149  1  0.26931568  0.13465737  0.75000010  1  -0.056893  -0.001319  -0.069513  -0.042563  -0.001442  4.00571  0.0
C  C150  1  0.86534233  0.13465774  0.75000015  1  -0.144672  -0.001351  -0.069497  -0.042489  -0.001442  4.005753  0.0
C  C151  1  0.13465741  0.26931539  0.75000009  1  -0.05688  -0.001319  -0.069489  -0.04244  -0.001441  4.005721  0.0
C  C152  1  0.73068538  0.86534299  0.75000014  1  -0.056878  -0.001319  -0.0695  -0.042466  -0.001442  4.005729  0.0
C  C153  1  0.13465770  0.86534234  0.75000009  1  -0.144696  -0.001351  -0.0695  -0.042514  -0.001442  4.005756  0.0
N  N154  1  0.23933446  0.47866974  0.25000026  1  -1.245548  -0.005681  -0.382932  -0.344662  -0.006514  3.541666  -0.005
N  N155  1  0.52133010  0.76066521  0.25000028  1  -1.245498  -0.005682  -0.382892  -0.344617  -0.006514  3.541571  -0.005
N  N156  1  0.23933483  0.76066401  0.25000026  1  -1.248026  -0.00568  -0.382869  -0.344593  -0.006515  3.54154  -0.005
N  N157  1  0.76066546  0.52133029  0.25000030  1  -1.24554  -0.005682  -0.382888  -0.344586  -0.006514  3.541564  -0.005
N  N158  1  0.47866982  0.23933483  0.25000028  1  -1.245542  -0.005682  -0.382897  -0.344635  -0.006515  3.541581  -0.005
N  N159  1  0.76066547  0.23933565  0.25000030  1  -1.247897  -0.00568  -0.382862  -0.344599  -0.006515  3.541586  -0.005
N  N160  1  0.76066485  0.52132966  0.75000014  1  -1.245505  -0.005682  -0.382902  -0.344639  -0.006515  3.541591  -0.005
N  N161  1  0.47867053  0.23933551  0.75000012  1  -1.245465  -0.005683  -0.382882  -0.344619  -0.006515  3.541596  -0.005
N  N162  1  0.76066448  0.23933539  0.75000014  1  -1.248001  -0.005681  -0.382876  -0.344611  -0.006516  3.541592  -0.005
N  N163  1  0.23933452  0.47866977  0.75000010  1  -1.245555  -0.005682  -0.38291  -0.344642  -0.006514  3.541595  -0.005
N  N164  1  0.52133015  0.76066523  0.74999947  1  -1.245514  -0.005683  -0.382888  -0.34461  -0.006515  3.541582  -0.005
N  N165  1  0.23933489  0.76066403  0.74999945  1  -1.247896  -0.00568  -0.382867  -0.344605  -0.006515  3.541558  -0.005
O  O166  1  0.38870028  0.44825070  0.40721438  1  -1.143765  0.060946  -0.29448  -0.532806  0.03146  2.347139  0.054
O  O167  1  0.38959962  0.58883686  0.35682985  1  -1.16713  -0.00349  -0.362792  -0.624263  -0.004273  2.284307  -0.003
O  O168  1  0.55174986  0.94045158  0.40721439  1  -1.141202  0.06095  -0.294373  -0.532667  0.031461  2.347176  0.054
O  O169  1  0.41116406  0.80076325  0.35683050  1  -1.17857  -0.003496  -0.362853  -0.624296  -0.004273  2.284412  -0.003
O  O170  1  0.05954920  0.61129811  0.40721500  1  -1.148284  0.060954  -0.294409  -0.532681  0.031462  2.347039  0.054
O  O171  1  0.19923734  0.61040121  0.35683048  1  -1.172075  -0.003499  -0.362799  -0.624225  -0.004274  2.28438  -0.003
O  O172  1  0.61129864  0.55174907  0.40721439  1  -1.143811  0.060953  -0.29444  -0.532751  0.031459  2.347175  0.054
O  O173  1  0.61040097  0.41116384  0.35683051  1  -1.167335  -0.00349  -0.36285  -0.624345  -0.004273  2.284364  -0.003
O  O174  1  0.44824971  0.05954885  0.40721568  1  -1.141186  0.060952  -0.294427  -0.53274  0.031462  2.346956  0.054
O  O175  1  0.58883589  0.19923679  0.35683051  1  -1.178572  -0.003497  -0.362785  -0.6242  -0.004274  2.284437  -0.003
O  O176  1  0.94045075  0.38870194  0.40721507  1  -1.148284  0.060954  -0.294407  -0.532677  0.031462  2.347025  0.054
O  O177  1  0.80076260  0.38959883  0.35683053  1  -1.17209  -0.003499  -0.362799  -0.624228  -0.004274  2.284351  -0.003
O  O178  1  0.44825090  0.38870145  0.09278552  1  -1.143794  0.060954  -0.294463  -0.5328  0.031461  2.347106  0.054
O  O179  1  0.58883630  0.38959920  0.14317006  1  -1.16711  -0.00349  -0.362838  -0.624319  -0.004274  2.284445  -0.003
O  O180  1  0.94045097  0.55174982  0.09278556  1  -1.141185  0.060948  -0.294363  -0.532652  0.03146  2.347205  0.054
O  O181  1  0.80076295  0.41116373  0.14317008  1  -1.178367  -0.003496  -0.362851  -0.624301  -0.004273  2.284387  -0.003
O  O182  1  0.61129871  0.05955088  0.09278489  1  -1.148395  0.060952  -0.29449  -0.532751  0.031461  2.3472  0.054
O  O183  1  0.61040042  0.19923754  0.14317007  1  -1.172102  -0.003499  -0.36276  -0.624213  -0.004273  2.284278  -0.003
O  O184  1  0.55174860  0.61129894  0.09278553  1  -1.143696  0.060945  -0.294446  -0.53278  0.03146  2.347114  0.054
O  O185  1  0.41116256  0.61040055  0.14317005  1  -1.167135  -0.00349  -0.362815  -0.624268  -0.004273  2.284347  -0.003
O  O186  1  0.05954891  0.44825020  0.09278549  1  -1.141188  0.060949  -0.294371  -0.532634  0.03146  2.347167  0.054
O  O187  1  0.19923733  0.58883591  0.14317003  1  -1.178368  -0.003496  -0.362847  -0.62429  -0.004273  2.284392  -0.003
O  O188  1  0.38870211  0.94045083  0.09278487  1  -1.148277  0.060955  -0.294406  -0.532681  0.031463  2.347036  0.054
O  O189  1  0.38959844  0.80076221  0.14317005  1  -1.172074  -0.003499  -0.362804  -0.624208  -0.004274  2.284344  -0.003
O  O190  1  0.61129828  0.55174945  0.59278538  1  -1.143796  0.060956  -0.294412  -0.5327  0.031461  2.347029  0.054
O  O191  1  0.61040035  0.41116320  0.64316991  1  -1.167127  -0.00349  -0.362778  -0.624201  -0.004274  2.284371  -0.003
O  O192  1  0.44825114  0.05954875  0.59278601  1  -1.141182  0.060948  -0.294397  -0.532678  0.03146  2.347166  0.054
O  O193  1  0.58883695  0.19923708  0.64316991  1  -1.178301  -0.003496  -0.362839  -0.624304  -0.004274  2.284305  -0.003
O  O194  1  0.94045077  0.38870195  0.59278476  1  -1.148286  0.060953  -0.294411  -0.532682  0.031461  2.347032  0.054
O  O195  1  0.80076264  0.38959885  0.64316992  1  -1.172088  -0.003499  -0.362801  -0.624212  -0.004274  2.284357  -0.003
O  O196  1  0.38870030  0.44825071  0.59278536  1  -1.143772  0.060944  -0.294457  -0.532748  0.03146  2.347163  0.054
O  O197  1  0.38959965  0.58883687  0.64316989  1  -1.167079  -0.00349  -0.362827  -0.624336  -0.004273  2.284265  -0.003
O  O198  1  0.55174998  0.94045018  0.59278408  1  -1.141241  0.060949  -0.294426  -0.532695  0.031461  2.347102  0.054
O  O199  1  0.41116343  0.80076261  0.64316989  1  -1.178284  -0.003496  -0.362819  -0.624292  -0.004274  2.284259  -0.003
O  O200  1  0.05954922  0.61129812  0.59278469  1  -1.148288  0.060954  -0.294414  -0.532686  0.031462  2.347039  0.054
O  O201  1  0.19923737  0.61040122  0.64316987  1  -1.172084  -0.003499  -0.362796  -0.624207  -0.004274  2.284359  -0.003
O  O202  1  0.55174945  0.61129823  0.90721423  1  -1.143802  0.060955  -0.294429  -0.532739  0.031461  2.347077  0.054
O  O203  1  0.41116367  0.61040086  0.85682969  1  -1.167345  -0.00349  -0.362842  -0.624295  -0.004274  2.284466  -0.003
O  O204  1  0.05954900  0.44825023  0.90721484  1  -1.141174  0.060951  -0.294413  -0.53272  0.031462  2.347043  0.054
O  O205  1  0.19923703  0.58883632  0.85683032  1  -1.178386  -0.003497  -0.362841  -0.6243  -0.004274  2.284465  -0.003
O  O206  1  0.38870061  0.94044853  0.90721486  1  -1.148382  0.060951  -0.294487  -0.532779  0.031461  2.347212  0.054
O  O207  1  0.38959889  0.80076187  0.85682969  1  -1.172092  -0.003498  -0.362811  -0.624255  -0.004273  2.284338  -0.003
O  O208  1  0.44825099  0.38870149  0.90721422  1  -1.143788  0.060955  -0.294456  -0.532784  0.031461  2.347103  0.054
O  O209  1  0.58883638  0.38959923  0.85682970  1  -1.167111  -0.00349  -0.36284  -0.624321  -0.004274  2.284455  -0.003
O  O210  1  0.94045106  0.55174986  0.90721426  1  -1.141185  0.060949  -0.29439  -0.532711  0.03146  2.347165  0.054
O  O211  1  0.80076302  0.41116377  0.85682972  1  -1.17837  -0.003496  -0.362829  -0.624286  -0.004274  2.284446  -0.003
O  O212  1  0.61129787  0.05954922  0.90721488  1  -1.148345  0.060953  -0.294403  -0.532692  0.031461  2.347023  0.054
O  O213  1  0.61040153  0.19923785  0.85683035  1  -1.172064  -0.003499  -0.362847  -0.624296  -0.004274  2.284301  -0.003
O  O214  1  0.48964742  0.35581979  0.49999988  1  -1.251248  0.070974  -0.576948  -0.752028  0.036405  2.056319  0.057
O  O215  1  0.64417895  0.13382743  0.49999989  1  -1.251868  0.07098  -0.57695  -0.752013  0.036405  2.056335  0.057
O  O216  1  0.86617172  0.51035237  0.49999991  1  -1.253392  0.070986  -0.576933  -0.751958  0.036405  2.056427  0.057
O  O217  1  0.51035190  0.64417962  0.49999988  1  -1.251171  0.070973  -0.57694  -0.752014  0.036405  2.056301  0.057
O  O218  1  0.35582102  0.86617262  0.49999986  1  -1.25187  0.070982  -0.576967  -0.752073  0.036407  2.056291  0.057
O  O219  1  0.13382787  0.48964807  0.49999985  1  -1.253385  0.070987  -0.576941  -0.751992  0.036405  2.056393  0.057
O  O220  1  0.35581952  0.48964736  0.00000003  1  -1.251188  0.070972  -0.576944  -0.751955  0.036404  2.056367  0.057
O  O221  1  0.13382784  0.64417885  0.00000001  1  -1.251855  0.070981  -0.57694  -0.752035  0.036406  2.056301  0.057
O  O222  1  0.51035234  0.86617234  0.00000004  1  -1.253385  0.070986  -0.576937  -0.751977  0.036404  2.056358  0.057
O  O223  1  0.64417969  0.51035199  0.00000005  1  -1.251182  0.070975  -0.576935  -0.751955  0.036405  2.05637  0.057
O  O224  1  0.86617175  0.35582013  0.00000007  1  -1.251865  0.07098  -0.576931  -0.751989  0.036405  2.056332  0.057
O  O225  1  0.48964753  0.13382767  0.00000004  1  -1.253389  0.070987  -0.576958  -0.752029  0.036405  2.056335  0.057
