# generated using pymatgen
data_AlH15C16O5
_symmetry_space_group_name_H-M   'P 1'
_cell_length_a   6.59598429
_cell_length_b   11.21430232
_cell_length_c   11.21463829
_cell_angle_alpha   86.22425046
_cell_angle_beta   72.64174993
_cell_angle_gamma   72.47185078
_symmetry_Int_Tables_number   1
_chemical_formula_structural   AlH15C16O5
_chemical_formula_sum   'Al2 H30 C32 O10'
_cell_volume   754.73596982
_cell_formula_units_Z   2
loop_
 _symmetry_equiv_pos_site_id
 _symmetry_equiv_pos_as_xyz
  1  'x, y, z'
loop_
 _atom_site_type_symbol
 _atom_site_label
 _atom_site_symmetry_multiplicity
 _atom_site_fract_x
 _atom_site_fract_y
 _atom_site_fract_z
 _atom_site_occupancy
 _atom_site_pbe_bader_charge
 _atom_site_pbe_bader_spin_density
 _atom_site_pbe_cm5_charge
 _atom_site_pbe_ddec_charge
 _atom_site_pbe_ddec_spin_density
 _atom_site_pbe_ddec_sum_bond_order
 _atom_site_pbe_magmom
Al  Al0  1  0.49889943  0.49211057  0.48902958  1  2.501962  0  0.39639  1.630302  0  2.589131  0
Al  Al1  1  0.99067456  0.49993495  0.49373179  1  2.500467  0  0.400727  1.625927  0  2.569522  0
H  H2  1  0.27751833  0.35012758  0.55683582  1  0.638133  0  0.34712  0.419967  0  0.879613  0
H  H3  1  0.80873334  0.53366568  0.33660554  1  0.62349  0  0.349447  0.423667  0  0.86845  0
H  H4  1  0.31626680  0.27260222  0.18117826  1  0.086802  0  0.097478  0.103828  0  1.06646  0
H  H5  1  0.25247160  0.42758165  0.76826503  1  0.116047  0  0.10864  0.128068  0  1.055432  0
H  H6  1  0.26669541  0.22394188  0.37289725  1  0.055496  0  0.10308  0.108418  0  1.064383  0
H  H7  1  0.52025160  0.76337389  0.38540102  1  0.139511  0  0.107947  0.118878  0  1.061102  0
H  H8  1  0.65081808  0.77140062  0.90233023  1  0.023184  0  0.089065  0.118067  0  1.018853  0
H  H9  1  0.83832179  0.65492884  0.78874919  1  0.103358  0  0.100883  0.152031  0  1.039353  0
H  H10  1  0.86841887  0.65530949  0.94059058  1  0.050447  0  0.093892  0.13411  0  0.993978  0
H  H11  1  0.69553944  0.66588926  0.15735199  1  0.041392  0  0.096733  0.132458  0  1.001376  0
H  H12  1  0.40980282  0.69535853  0.23746560  1  0.049282  0  0.093607  0.126655  0  1.03871  0
H  H13  1  0.49507663  0.77616369  0.10020996  1  0.041709  0  0.091644  0.125882  0  1.007785  0
H  H14  1  0.06428562  0.09684500  0.04635907  1  0.025192  0  0.089145  0.119706  0  1.037542  0
H  H15  1  0.22421577  0.09061959  0.15136738  1  0.042687  0  0.089554  0.12692  0  1.024719  0
H  H16  1  0.35650695  0.03976467  0.99320049  1  0.023384  0  0.087845  0.116281  0  1.00073  0
H  H17  1  0.12985532  0.14704058  0.81827784  1  0.044962  0  0.090105  0.122341  0  1.009249  0
H  H18  1  0.03511618  0.29975770  0.76221834  1  0.071418  0  0.093875  0.134627  0  1.014831  0
H  H19  1  0.88829948  0.25658962  0.91020372  1  0.063968  0  0.091214  0.127217  0  1.002921  0
H  H20  1  0.61971596  0.89820439  0.73685742  1  0.015159  0  0.087841  0.115936  0  1.023904  0
H  H21  1  0.73421573  0.76819000  0.63040447  1  0.052384  0  0.100776  0.144141  0  1.046  0
H  H22  1  0.53179136  0.90174004  0.60240725  1  0.057643  0  0.095975  0.140252  0  1.003942  0
H  H23  1  0.42928151  0.12203008  0.61157057  1  0.046844  0  0.095314  0.132639  0  1.006175  0
H  H24  1  0.53602387  0.23030229  0.66399752  1  0.045645  0  0.095615  0.129863  0  1.044038  0
H  H25  1  0.52827106  0.09060487  0.74357028  1  0.039996  0  0.091489  0.123262  0  1.018135  0
H  H26  1  0.85231844  0.09704774  0.26261036  1  0.008859  0  0.090317  0.123492  0  1.030606  0
H  H27  1  0.62451315  0.23073136  0.26621070  1  0.083138  0  0.092761  0.135616  0  1.015904  0
H  H28  1  0.72704400  0.11934702  0.14032239  1  0.043861  0  0.090127  0.121284  0  1.008574  0
H  H29  1  0.87300297  0.86285973  0.14346041  1  0.010637  0  0.090302  0.123066  0  0.989846  0
H  H30  1  0.88072023  0.75574032  0.26815258  1  0.030298  0  0.093017  0.131952  0  1.01567  0
H  H31  1  0.96495108  0.89157179  0.26834573  1  0.041068  0  0.08946  0.123134  0  1.020425  0
C  C32  1  0.85675709  0.26699399  0.49742867  1  1.544967  0  0.272521  0.662319  0  4.048479  0
C  C33  1  0.62009259  0.52136803  0.71800396  1  1.581012  0  0.273232  0.655096  0  4.047501  0
C  C34  1  0.13865079  0.72209063  0.49893460  1  1.543646  0  0.273858  0.652918  0  4.06122  0
C  C35  1  0.35959414  0.47922917  0.26054074  1  1.551528  0  0.268722  0.654414  0  4.069761  0
C  C36  1  0.42181811  0.49148773  0.12100760  1  -0.105585  0  -0.012878  -0.142748  0  3.905274  0
C  C37  1  0.37279751  0.41352066  0.04436119  1  -0.021196  0  -0.010419  0.051778  0  4.029526  0
C  C38  1  0.51521260  0.58546446  0.06721132  1  0.08274  0  -0.003469  0.097059  0  3.910241  0
C  C39  1  0.30705601  0.30547490  0.08904065  1  -0.072272  0  -0.102299  -0.207003  0  3.975124  0
C  C40  1  0.23661264  0.23880972  0.01856931  1  0.017752  0  -0.013191  0.117461  0  3.957385  0
C  C41  1  0.53420868  0.52240410  0.85806476  1  -0.031663  0  -0.012598  -0.160651  0  3.871131  0
C  C42  1  0.59813000  0.58971944  0.93411110  1  -0.031672  0  0.005646  0.119261  0  3.885392  0
C  C43  1  0.39391837  0.44403274  0.91574422  1  -0.032323  0  -0.004925  0.059787  0  3.971995  0
C  C44  1  0.27710136  0.39067504  0.85641408  1  -0.041488  0  -0.101281  -0.210501  0  3.941066  0
C  C45  1  0.19202540  0.29372029  0.90713790  1  -0.019324  0  -0.010002  0.117463  0  3.952695  0
C  C46  1  0.93517619  0.12721068  0.50329484  1  -0.031015  0  -0.012101  -0.143269  0  3.907262  0
C  C47  1  0.16118449  0.06064886  0.44004573  1  0.010268  0  -0.010778  0.047921  0  4.030739  0
C  C48  1  0.78698962  0.06364384  0.56983595  1  0.06469  0  -0.000155  0.105575  0  3.910518  0
C  C49  1  0.31861565  0.12242212  0.37397251  1  -0.031593  0  -0.104533  -0.219402  0  3.989087  0
C  C50  1  0.53631123  0.05945242  0.31170700  1  -0.047878  0  -0.01109  0.11862  0  3.970659  0
C  C51  1  0.07086665  0.86243172  0.50373000  1  0.008912  0  -0.010157  -0.151012  0  3.890283  0
C  C52  1  0.85257243  0.92976900  0.56696015  1  -0.027611  0  0.003528  0.112108  0  3.892629  0
C  C53  1  0.23255518  0.92638758  0.44239906  1  -0.052864  0  -0.007596  0.046923  0  3.999302  0
C  C54  1  0.45922024  0.86415803  0.37974767  1  -0.091623  0  -0.096272  -0.200144  0  3.948421  0
C  C55  1  0.60867987  0.92639667  0.31424727  1  0.016105  0  -0.00805  0.118731  0  3.941405  0
C  C56  1  0.74748233  0.67189206  0.88730878  1  -0.084563  0  -0.243293  -0.41619  0  3.95826  0
C  C57  1  0.52964463  0.68506034  0.14476933  1  -0.045937  0  -0.241011  -0.407915  0  3.989087  0
C  C58  1  0.21647755  0.11079370  0.05546068  1  -0.044912  0  -0.238232  -0.396098  0  3.968434  0
C  C59  1  0.05562941  0.24674285  0.84572231  1  -0.126416  0  -0.238444  -0.40232  0  3.957737  0
C  C60  1  0.67767300  0.86980173  0.63744360  1  -0.031747  0  -0.243943  -0.411265  0  3.944991  0
C  C61  1  0.55882967  0.13122518  0.65041129  1  -0.070457  0  -0.242723  -0.412352  0  3.97421  0
C  C62  1  0.69240276  0.13064321  0.24200227  1  -0.081985  0  -0.240477  -0.405429  0  3.962594  0
C  C63  1  0.84366173  0.85501023  0.24537616  1  -0.039124  0  -0.237935  -0.398473  0  3.961357  0
O  O64  1  0.67334535  0.31670080  0.47240007  1  -1.256792  0  -0.233966  -0.58807  0  2.341702  0
O  O65  1  0.81018306  0.53775525  0.66409354  1  -1.266111  0  -0.234019  -0.584446  0  2.350793  0
O  O66  1  0.00897683  0.66759667  0.47621220  1  -1.265764  0  -0.232818  -0.586678  0  2.354593  0
O  O67  1  0.49900981  0.48747429  0.31559691  1  -1.261179  0  -0.237129  -0.600783  0  2.354259  0
O  O68  1  0.32551663  0.66365258  0.51539424  1  -1.254475  0  -0.228184  -0.569924  0  2.36445  0
O  O69  1  0.16921159  0.46499083  0.31646600  1  -1.26086  0  -0.241715  -0.6041  0  2.343974  0
O  O70  1  0.97784438  0.32849859  0.51807212  1  -1.26707  0  -0.239568  -0.612818  0  2.398326  0
O  O71  1  0.50190717  0.49804136  0.65668716  1  -1.269644  0  -0.228211  -0.584913  0  2.432461  0
O  O72  1  0.24575551  0.43972345  0.54464860  1  -1.446155  0  -0.448423  -0.983937  0  2.214955  0
O  O73  1  0.75282708  0.54345526  0.42714562  1  -1.428744  0  -0.447006  -0.976978  0  2.194726  0
