# generated using pymatgen
data_CdH12C16SN2O5
_symmetry_space_group_name_H-M   'P 1'
_cell_length_a   8.88656330
_cell_length_b   8.88496172
_cell_length_c   22.83796847
_cell_angle_alpha   97.83207250
_cell_angle_beta   97.84163544
_cell_angle_gamma   107.41763516
_symmetry_Int_Tables_number   1
_chemical_formula_structural   CdH12C16SN2O5
_chemical_formula_sum   'Cd4 H48 C64 S4 N8 O20'
_cell_volume   1674.25538147
_cell_formula_units_Z   4
loop_
 _symmetry_equiv_pos_site_id
 _symmetry_equiv_pos_as_xyz
  1  'x, y, z'
loop_
 _atom_site_type_symbol
 _atom_site_label
 _atom_site_symmetry_multiplicity
 _atom_site_fract_x
 _atom_site_fract_y
 _atom_site_fract_z
 _atom_site_occupancy
 _atom_site_hle17_bader_spin_density
 _atom_site_hle17_ddec_charge
 _atom_site_hle17_ddec_spin_density
 _atom_site_hle17_ddec_sum_bond_order
 _atom_site_hle17_magmom
 _atom_site_hse06_10hf_bader_spin_density
 _atom_site_hse06_10hf_ddec_charge
 _atom_site_hse06_10hf_ddec_spin_density
 _atom_site_hse06_10hf_ddec_sum_bond_order
 _atom_site_hse06_10hf_magmom
 _atom_site_hse06_bader_spin_density
 _atom_site_hse06_ddec_charge
 _atom_site_hse06_ddec_spin_density
 _atom_site_hse06_ddec_sum_bond_order
 _atom_site_hse06_magmom
 _atom_site_pbe_bader_spin_density
 _atom_site_pbe_cm5_charge
 _atom_site_pbe_ddec_charge
 _atom_site_pbe_ddec_spin_density
 _atom_site_pbe_ddec_sum_bond_order
 _atom_site_pbe_magmom
Cd  Cd0  1  0.23922409  0.33720555  0.89486727  1  0  1.105345  0  1.66585  0  0  0.911086  0  2.106419  0  0  0.971351  0  2.052866  0  0  0.759705  0.868367  0  2.142966  0
Cd  Cd1  1  0.44266517  0.34449821  0.10523758  1  0  1.105732  0  1.665037  0  0  0.911176  0  2.105507  0  0  0.971491  0  2.051933  0  0  0.75958  0.868413  0  2.142089  0
Cd  Cd2  1  0.59494435  0.19286137  0.60509673  1  0  1.10571  0  1.666063  0  0  0.911461  0  2.106575  0  0  0.971727  0  2.053016  0  0  0.759944  0.868776  0  2.14309  0
Cd  Cd3  1  0.58765362  0.98983951  0.39480633  1  0  1.105103  0  1.666485  0  0  0.910764  0  2.107119  0  0  0.971001  0  2.053583  0  0  0.759665  0.86807  0  2.143654  0
H  H4  1  0.75292683  0.19731077  0.00307607  1  0  0.124649  0  0.965617  0  0  0.132357  0  1.029269  0  0  0.136389  0  1.025687  0  0  0.107953  0.129416  0  1.031935  0
H  H5  1  0.19460999  0.75028831  0.99697216  1  0  0.123996  0  0.966571  0  0  0.131943  0  1.02998  0  0  0.135907  0  1.026515  0  0  0.10784  0.129015  0  1.032661  0
H  H6  1  0.00058555  0.94479048  0.49673924  1  0  0.123957  0  0.966096  0  0  0.132125  0  1.029203  0  0  0.136102  0  1.025734  0  0  0.107878  0.1292  0  1.031861  0
H  H7  1  0.44794016  0.50421314  0.50307267  1  0  0.124086  0  0.965721  0  0  0.131669  0  1.029521  0  0  0.135794  0  1.025828  0  0  0.107606  0.12866  0  1.032283  0
H  H8  1  0.49932124  0.95034282  0.00756510  1  0  0.127147  0  0.948937  0  0  0.136371  0  1.00959  0  0  0.140265  0  1.00661  0  0  0.107833  0.13351  0  1.011847  0
H  H9  1  0.94364715  0.49180221  0.99262116  1  0  0.128014  0  0.949912  0  0  0.136747  0  1.010986  0  0  0.140655  0  1.008008  0  0  0.107994  0.133881  0  1.013242  0
H  H10  1  0.74221005  0.69373270  0.49239709  1  0  0.12794  0  0.948817  0  0  0.136674  0  1.00998  0  0  0.14058  0  1.007005  0  0  0.108013  0.133815  0  1.012232  0
H  H11  1  0.20154501  0.24996553  0.50745870  1  0  0.127334  0  0.949816  0  0  0.136595  0  1.010391  0  0  0.140515  0  1.00739  0  0  0.108313  0.133735  0  1.012642  0
H  H12  1  0.11562499  0.65425631  0.90852091  1  0  0.079874  0  0.969613  0  0  0.089272  0  1.032695  0  0  0.090799  0  1.031706  0  0  0.115095  0.088093  0  1.033503  0
H  H13  1  0.74575409  0.20656600  0.09165174  1  0  0.079775  0  0.969385  0  0  0.088942  0  1.032706  0  0  0.090456  0  1.031748  0  0  0.115484  0.087796  0  1.033434  0
H  H14  1  0.45715230  0.49585232  0.59152408  1  0  0.079992  0  0.969195  0  0  0.089224  0  1.03248  0  0  0.090747  0  1.031499  0  0  0.115319  0.088057  0  1.033263  0
H  H15  1  0.90356852  0.86425464  0.40833087  1  0  0.079734  0  0.969177  0  0  0.089503  0  1.031884  0  0  0.091019  0  1.030912  0  0  0.11547  0.08832  0  1.032688  0
H  H16  1  0.01520474  0.82770740  0.84660812  1  0  0.119579  0  0.98885  0  0  0.123905  0  1.056214  0  0  0.128562  0  1.052858  0  0  0.101629  0.120489  0  1.058841  0
H  H17  1  0.98108696  0.16825941  0.15360892  1  0  0.119477  0  0.989559  0  0  0.124187  0  1.056542  0  0  0.128867  0  1.053109  0  0  0.101818  0.120759  0  1.059178  0
H  H18  1  0.41837935  0.73090475  0.65350788  1  0  0.119558  0  0.9891  0  0  0.124179  0  1.056247  0  0  0.128835  0  1.052847  0  0  0.101742  0.120758  0  1.058876  0
H  H19  1  0.07671228  0.76400967  0.34629296  1  0  0.119634  0  0.988906  0  0  0.124202  0  1.055979  0  0  0.128836  0  1.052616  0  0  0.101925  0.120798  0  1.058623  0
H  H20  1  0.95011475  0.73728431  0.73314011  1  0  0.092454  0  0.929233  0  0  0.10735  0  0.98009  0  0  0.109738  0  0.97933  0  0  0.107448  0.105587  0  0.980703  0
H  H21  1  0.00435382  0.21721452  0.26708887  1  0  0.092463  0  0.929461  0  0  0.107273  0  0.980402  0  0  0.10968  0  0.97962  0  0  0.107701  0.105515  0  0.981015  0
H  H22  1  0.46638434  0.75346437  0.76695669  1  0  0.09201  0  0.929348  0  0  0.106763  0  0.980348  0  0  0.109138  0  0.979589  0  0  0.107507  0.105023  0  0.980956  0
H  H23  1  0.98631852  0.69969990  0.23281530  1  0  0.091947  0  0.929634  0  0  0.10705  0  0.980361  0  0  0.109406  0  0.979651  0  0  0.10748  0.105288  0  0.980977  0
H  H24  1  0.99920187  0.49095562  0.68868244  1  0  0.116509  0  0.995186  0  0  0.12048  0  1.066008  0  0  0.124898  0  1.06283  0  0  0.10239  0.117237  0  1.068458  0
H  H25  1  0.80252621  0.31093872  0.31148916  1  0  0.117375  0  0.995131  0  0  0.121167  0  1.066239  0  0  0.125616  0  1.063027  0  0  0.102866  0.117895  0  1.068723  0
H  H26  1  0.55982033  0.55141716  0.81133838  1  0  0.117054  0  0.994794  0  0  0.121044  0  1.06569  0  0  0.125424  0  1.062598  0  0  0.102896  0.117845  0  1.068084  0
H  H27  1  0.73994146  0.74896093  0.18851505  1  0  0.117035  0  0.996068  0  0  0.121335  0  1.066326  0  0  0.125649  0  1.063266  0  0  0.103022  0.118079  0  1.068814  0
H  H28  1  0.03105091  0.28652308  0.65751270  1  0  0.129021  0  0.953768  0  0  0.140124  0  1.009494  0  0  0.143757  0  1.007631  0  0  0.1144  0.137484  0  1.010966  0
H  H29  1  0.62893479  0.37317705  0.34257990  1  0  0.128263  0  0.954801  0  0  0.139518  0  1.010628  0  0  0.143138  0  1.008822  0  0  0.114117  0.136882  0  1.01209  0
H  H30  1  0.62219652  0.37774872  0.84236454  1  0  0.128678  0  0.953709  0  0  0.139781  0  1.009604  0  0  0.14342  0  1.00774  0  0  0.114197  0.137137  0  1.011097  0
H  H31  1  0.53499149  0.77959555  0.15753603  1  0  0.128608  0  0.954088  0  0  0.139351  0  1.010366  0  0  0.142973  0  1.008526  0  0  0.114308  0.136717  0  1.011843  0
H  H32  1  0.09617625  0.04230032  0.62253041  1  0  0.097856  0  0.968338  0  0  0.111724  0  1.021516  0  0  0.113133  0  1.02152  0  0  0.108262  0.110617  0  1.021595  0
H  H33  1  0.41957798  0.47309495  0.37754371  1  0  0.097762  0  0.968056  0  0  0.111747  0  1.021203  0  0  0.113167  0  1.021197  0  0  0.107924  0.110644  0  1.02129  0
H  H34  1  0.72214082  0.16836414  0.87730445  1  0  0.097718  0  0.969392  0  0  0.112203  0  1.021839  0  0  0.113612  0  1.021853  0  0  0.108313  0.111091  0  1.021912  0
H  H35  1  0.29064697  0.84455054  0.12263157  1  0  0.097814  0  0.968524  0  0  0.111412  0  1.022096  0  0  0.112834  0  1.022115  0  0  0.1078  0.110306  0  1.022164  0
H  H36  1  0.23418023  0.92050126  0.69736952  1  0  0.105052  0  0.959218  0  0  0.111373  0  1.025558  0  0  0.114656  0  1.024701  0  0  0.104376  0.109031  0  1.026295  0
H  H37  1  0.22322788  0.53660155  0.30271692  1  0  0.105062  0  0.958503  0  0  0.111535  0  1.024736  0  0  0.114721  0  1.024047  0  0  0.104533  0.109234  0  1.025392  0
H  H38  1  0.78607796  0.97232780  0.80248920  1  0  0.104744  0  0.958942  0  0  0.111191  0  1.025312  0  0  0.114467  0  1.024461  0  0  0.104272  0.108849  0  1.026029  0
H  H39  1  0.16964063  0.98348482  0.19745698  1  0  0.10502  0  0.959757  0  0  0.111251  0  1.026235  0  0  0.114507  0  1.025444  0  0  0.104323  0.108922  0  1.026921  0
H  H40  1  0.29429363  0.05131368  0.80707448  1  0  0.082007  0  0.921609  0  0  0.094664  0  0.977216  0  0  0.096779  0  0.975881  0  0  0.119911  0.093051  0  0.978297  0
H  H41  1  0.24446089  0.48730996  0.19303585  1  0  0.082301  0  0.920806  0  0  0.094866  0  0.976524  0  0  0.096975  0  0.975208  0  0  0.120012  0.093237  0  0.977608  0
H  H42  1  0.73756692  0.99422774  0.69284266  1  0  0.082939  0  0.921407  0  0  0.095079  0  0.977372  0  0  0.09727  0  0.975961  0  0  0.119955  0.093412  0  0.978488  0
H  H43  1  0.30122818  0.04459061  0.30710325  1  0  0.082457  0  0.921198  0  0  0.095082  0  0.976685  0  0  0.097205  0  0.975335  0  0  0.120052  0.093465  0  0.977776  0
H  H44  1  0.50171190  0.28586535  0.96725410  1  0  0.428858  0  0.868643  0  0  0.398562  0  0.931197  0  0  0.408686  0  0.916628  0  0  0.291407  0.391404  0  0.941474  0
H  H45  1  0.31894154  0.53442677  0.03272984  1  0  0.429387  0  0.868099  0  0  0.398958  0  0.930881  0  0  0.409105  0  0.916279  0  0  0.291462  0.391788  0  0.941179  0
H  H46  1  0.78501116  0.06927792  0.53266826  1  0  0.429533  0  0.86803  0  0  0.399233  0  0.930512  0  0  0.40936  0  0.915936  0  0  0.29168  0.392076  0  0.940792  0
H  H47  1  0.53666210  0.25248195  0.46729440  1  0  0.428546  0  0.869122  0  0  0.398268  0  0.931706  0  0  0.408382  0  0.917139  0  0  0.291396  0.391121  0  0.941976  0
H  H48  1  0.35290215  0.13982732  0.96700629  1  0  0.428028  0  0.863025  0  0  0.398959  0  0.924978  0  0  0.409003  0  0.910479  0  0  0.293741  0.391831  0  0.935256  0
H  H49  1  0.17305629  0.38618573  0.03321980  1  0  0.428656  0  0.861539  0  0  0.399473  0  0.924191  0  0  0.409496  0  0.909718  0  0  0.293785  0.392358  0  0.934452  0
H  H50  1  0.63647106  0.92353802  0.53301422  1  0  0.428576  0  0.862282  0  0  0.399415  0  0.924476  0  0  0.409456  0  0.909981  0  0  0.29379  0.392289  0  0.934752  0
H  H51  1  0.39038049  0.10357027  0.46674060  1  0  0.42818  0  0.862563  0  0  0.399174  0  0.924592  0  0  0.409183  0  0.91016  0  0  0.29404  0.39205  0  0.934861  0
C  C52  1  0.47754227  0.63837142  0.93961263  1  0  0.64979  0  3.964323  0  0  0.599038  0  4.255861  0  0  0.633785  0  4.248971  0  0  0.191203  0.575551  0  4.259543  0
C  C53  1  0.69934910  0.53763540  0.06042801  1  0  0.648495  0  3.965805  0  0  0.59735  0  4.257689  0  0  0.632071  0  4.250837  0  0  0.189888  0.573867  0  4.261349  0
C  C54  1  0.78814794  0.44970014  0.56039041  1  0  0.647929  0  3.967601  0  0  0.59706  0  4.259301  0  0  0.631844  0  4.252447  0  0  0.189992  0.573566  0  4.262945  0
C  C55  1  0.88931177  0.22760896  0.43953511  1  0  0.647208  0  3.966338  0  0  0.596343  0  4.258224  0  0  0.631055  0  4.251369  0  0  0.189576  0.572861  0  4.26187  0
C  C56  1  0.98411018  0.13062557  0.93386585  1  0  0.63483  0  3.986367  0  0  0.584291  0  4.280132  0  0  0.618499  0  4.274238  0  0  0.185083  0.561136  0  4.283139  0
C  C57  1  0.19648854  0.05068787  0.06616468  1  0  0.635876  0  3.981632  0  0  0.585605  0  4.275229  0  0  0.619824  0  4.269299  0  0  0.185627  0.562462  0  4.278263  0
C  C58  1  0.30092873  0.94697557  0.56604514  1  0  0.636228  0  3.981427  0  0  0.586111  0  4.274934  0  0  0.620334  0  4.269012  0  0  0.186197  0.562947  0  4.277964  0
C  C59  1  0.38037772  0.73528669  0.43388485  1  0  0.63613  0  3.983615  0  0  0.58589  0  4.277282  0  0  0.620097  0  4.271389  0  0  0.185494  0.56274  0  4.28029  0
C  C60  1  0.83659280  0.02809489  0.94949229  1  0  -0.158291  0  3.757896  0  0  -0.141518  0  4.030484  0  0  -0.148114  0  4.049965  0  0  -0.02986  -0.137137  0  4.017233  0
C  C61  1  0.07863405  0.88737740  0.05046910  1  0  -0.157845  0  3.756875  0  0  -0.141621  0  4.030114  0  0  -0.148301  0  4.049694  0  0  -0.029932  -0.137244  0  4.016868  0
C  C62  1  0.13765106  0.82911452  0.55040325  1  0  -0.158287  0  3.757557  0  0  -0.1421  0  4.030786  0  0  -0.14878  0  4.050362  0  0  -0.030021  -0.13766  0  4.01746  0
C  C63  1  0.27830247  0.58757562  0.44954412  1  0  -0.158546  0  3.758073  0  0  -0.14232  0  4.031197  0  0  -0.148928  0  4.050719  0  0  -0.029713  -0.13793  0  4.017925  0
C  C64  1  0.73276258  0.07288003  0.98296046  1  0  -0.085108  0  3.732471  0  0  -0.117705  0  4.002703  0  0  -0.116519  0  4.018121  0  0  -0.098924  -0.118264  0  3.992056  0
C  C65  1  0.09028156  0.75009993  0.01708618  1  0  -0.084833  0  3.733451  0  0  -0.117448  0  4.003865  0  0  -0.116218  0  4.019312  0  0  -0.099066  -0.118027  0  3.993207  0
C  C66  1  0.00042253  0.84054975  0.51691953  1  0  -0.083905  0  3.732986  0  0  -0.116679  0  4.003427  0  0  -0.115453  0  4.01885  0  0  -0.098505  -0.117272  0  3.992753  0
C  C67  1  0.32346171  0.48380630  0.48295513  1  0  -0.084303  0  3.731484  0  0  -0.116483  0  4.00172  0  0  -0.115398  0  4.017134  0  0  -0.09846  -0.116992  0  3.991084  0
C  C68  1  0.59681825  0.94203294  0.98446450  1  0  -0.072489  0  3.718431  0  0  -0.104203  0  3.984558  0  0  -0.103155  0  4.000875  0  0  -0.095553  -0.104669  0  3.973305  0
C  C69  1  0.95820247  0.61242931  0.01565430  1  0  -0.073542  0  3.720781  0  0  -0.104982  0  3.986503  0  0  -0.103931  0  4.002752  0  0  -0.095506  -0.105442  0  3.975252  0
C  C70  1  0.86281804  0.70841601  0.51548672  1  0  -0.074009  0  3.721342  0  0  -0.105428  0  3.987434  0  0  -0.104355  0  4.003774  0  0  -0.096017  -0.105894  0  3.976178  0
C  C71  1  0.19290564  0.34749688  0.48440753  1  0  -0.073335  0  3.718411  0  0  -0.105093  0  3.984542  0  0  -0.104084  0  4.000891  0  0  -0.09619  -0.10556  0  3.973278  0
C  C72  1  0.59849107  0.79961209  0.95144991  1  0  -0.1482  0  3.74274  0  0  -0.132307  0  4.013436  0  0  -0.139147  0  4.033517  0  0  -0.028437  -0.127847  0  3.999885  0
C  C73  1  0.84867957  0.64691039  0.04863303  1  0  -0.147723  0  3.742653  0  0  -0.131114  0  4.012333  0  0  -0.137892  0  4.03232  0  0  -0.027736  -0.12667  0  3.998808  0
C  C74  1  0.89734933  0.59905108  0.54856007  1  0  -0.147433  0  3.743759  0  0  -0.131145  0  4.013622  0  0  -0.138102  0  4.033865  0  0  -0.027761  -0.126685  0  4.000068  0
C  C75  1  0.05035676  0.34883034  0.45139999  1  0  -0.14631  0  3.740713  0  0  -0.1306  0  4.011625  0  0  -0.137368  0  4.031597  0  0  -0.028062  -0.126146  0  3.998081  0
C  C76  1  0.08976607  0.62309574  0.85967229  1  0  0.142972  0  3.703373  0  0  0.114596  0  3.948956  0  0  0.120944  0  3.968966  0  0  0.050858  0.110469  0  3.93531  0
C  C77  1  0.76345756  0.22974718  0.14049626  1  0  0.143341  0  3.703793  0  0  0.114825  0  3.949879  0  0  0.12116  0  3.969884  0  0  0.050004  0.110698  0  3.936244  0
C  C78  1  0.48000786  0.51334901  0.64036651  1  0  0.143637  0  3.703215  0  0  0.115306  0  3.948913  0  0  0.121649  0  3.968932  0  0  0.051023  0.111178  0  3.935256  0
C  C79  1  0.87230836  0.83865211  0.35949150  1  0  0.142982  0  3.703502  0  0  0.11421  0  3.949205  0  0  0.12056  0  3.969209  0  0  0.050181  0.1101  0  3.935537  0
C  C80  1  0.03159356  0.71808933  0.82480749  1  0  -0.127006  0  3.717266  0  0  -0.138774  0  3.966469  0  0  -0.145819  0  3.987063  0  0  -0.08575  -0.134149  0  3.952593  0
C  C81  1  0.89332435  0.20658758  0.17539486  1  0  -0.126311  0  3.717782  0  0  -0.138088  0  3.966364  0  0  -0.145128  0  3.986983  0  0  -0.085527  -0.133467  0  3.952493  0
C  C82  1  0.45653865  0.64301213  0.67527514  1  0  -0.126946  0  3.718609  0  0  -0.138853  0  3.96734  0  0  -0.145875  0  3.987921  0  0  -0.085887  -0.134233  0  3.953476  0
C  C83  1  0.96713241  0.78056808  0.32454812  1  0  -0.126969  0  3.717735  0  0  -0.138936  0  3.966983  0  0  -0.145956  0  3.987579  0  0  -0.086272  -0.134334  0  3.953117  0
C  C84  1  0.99804420  0.66871588  0.76249141  1  0  -0.007179  0  3.739797  0  0  -0.024892  0  3.990115  0  0  -0.022253  0  4.009833  0  0  -0.070287  -0.0263  0  3.976423  0
C  C85  1  0.90640416  0.23567305  0.23771430  1  0  -0.007813  0  3.741716  0  0  -0.025492  0  3.992282  0  0  -0.022876  0  4.012028  0  0  -0.070939  -0.026904  0  3.978597  0
C  C86  1  0.48509011  0.65568777  0.73758010  1  0  -0.006958  0  3.741514  0  0  -0.024472  0  3.992064  0  0  -0.021806  0  4.011787  0  0  -0.070345  -0.025922  0  3.978402  0
C  C87  1  0.91777376  0.74741354  0.26222973  1  0  -0.006323  0  3.739705  0  0  -0.024193  0  3.990171  0  0  -0.021524  0  4.00989  0  0  -0.07018  -0.025608  0  3.976495  0
C  C88  1  0.02708979  0.53061537  0.73735576  1  0  -0.14388  0  3.684735  0  0  -0.165415  0  3.938346  0  0  -0.172241  0  3.958773  0  0  -0.081971  -0.160879  0  3.92464  0
C  C89  1  0.79349148  0.28998848  0.26281491  1  0  -0.143285  0  3.686574  0  0  -0.165294  0  3.939822  0  0  -0.172116  0  3.960211  0  0  -0.08259  -0.160738  0  3.926111  0
C  C90  1  0.53924644  0.54263460  0.76267011  1  0  -0.144394  0  3.685097  0  0  -0.166207  0  3.938821  0  0  -0.173039  0  3.959225  0  0  -0.083302  -0.161706  0  3.925119  0
C  C91  1  0.77972217  0.77665799  0.23718366  1  0  -0.145222  0  3.686663  0  0  -0.167284  0  3.940487  0  0  -0.174002  0  3.960927  0  0  -0.083308  -0.16277  0  3.926825  0
C  C92  1  0.09017171  0.44437164  0.77553138  1  0  0.175998  0  3.75909  0  0  0.172163  0  4.002118  0  0  0.178331  0  4.023586  0  0  0.117634  0.168067  0  3.987461  0
C  C93  1  0.66901566  0.31468730  0.22459736  1  0  0.174242  0  3.76443  0  0  0.171705  0  4.005417  0  0  0.177818  0  4.026937  0  0  0.118231  0.167594  0  3.990783  0
C  C94  1  0.56435203  0.41841734  0.72444986  1  0  0.176068  0  3.759706  0  0  0.17263  0  4.00216  0  0  0.178833  0  4.023589  0  0  0.118816  0.168516  0  3.987533  0
C  C95  1  0.69363281  0.83963983  0.27544758  1  0  0.175991  0  3.759604  0  0  0.172191  0  4.002141  0  0  0.178401  0  4.023589  0  0  0.118041  0.168073  0  3.987484  0
C  C96  1  0.12900263  0.29947128  0.75145006  1  0  0.176412  0  3.76602  0  0  0.170053  0  4.011205  0  0  0.176913  0  4.032724  0  0  0.119175  0.165515  0  3.99653  0
C  C97  1  0.54817762  0.37756250  0.24865743  1  0  0.176027  0  3.768822  0  0  0.169767  0  4.013156  0  0  0.176654  0  4.034697  0  0  0.119679  0.165231  0  3.998468  0
C  C98  1  0.62718638  0.29749594  0.74848061  1  0  0.175524  0  3.766442  0  0  0.16946  0  4.011188  0  0  0.176308  0  4.032696  0  0  0.119974  0.164923  0  3.996531  0
C  C99  1  0.54874055  0.87853962  0.25143122  1  0  0.17604  0  3.76632  0  0  0.170754  0  4.010021  0  0  0.177517  0  4.031666  0  0  0.119615  0.166285  0  3.995247  0
C  C100  1  0.09081841  0.23350117  0.68983337  1  0  -0.140813  0  3.670997  0  0  -0.15816  0  3.915056  0  0  -0.165334  0  3.935481  0  0  -0.076657  -0.153482  0  3.901332  0
C  C101  1  0.54369656  0.40078305  0.31026364  1  0  -0.139114  0  3.671671  0  0  -0.157021  0  3.916006  0  0  -0.164203  0  3.936444  0  0  -0.075798  -0.15235  0  3.902292  0
C  C102  1  0.65002238  0.29268182  0.81005886  1  0  -0.138492  0  3.66997  0  0  -0.156039  0  3.914377  0  0  -0.163201  0  3.934786  0  0  -0.07622  -0.151397  0  3.900704  0
C  C103  1  0.48231169  0.83978729  0.18985246  1  0  -0.139134  0  3.673223  0  0  -0.156709  0  3.917278  0  0  -0.163837  0  3.937734  0  0  -0.076111  -0.152073  0  3.903546  0
C  C104  1  0.12771670  0.09601811  0.67011896  1  0  0.009186  0  3.704541  0  0  -0.008533  0  3.949282  0  0  -0.00507  0  3.968403  0  0  -0.063247  -0.010565  0  3.936268  0
C  C105  1  0.42586455  0.45728504  0.32997059  1  0  0.009578  0  3.705079  0  0  -0.008237  0  3.949944  0  0  -0.004765  0  3.969049  0  0  -0.063207  -0.010286  0  3.936933  0
C  C106  1  0.70648876  0.17478753  0.82974320  1  0  0.006924  0  3.707387  0  0  -0.011407  0  3.95242  0  0  -0.007979  0  3.971605  0  0  -0.064705  -0.013419  0  3.939356  0
C  C107  1  0.34475852  0.87658246  0.17018510  1  0  0.007865  0  3.707143  0  0  -0.009649  0  3.951856  0  0  -0.006212  0  3.971008  0  0  -0.063842  -0.01168  0  3.938825  0
C  C108  1  0.20269882  0.02733996  0.71173559  1  0  -0.122655  0  3.729072  0  0  -0.13779  0  3.986392  0  0  -0.144668  0  4.007627  0  0  -0.08398  -0.13339  0  3.97211  0
C  C109  1  0.31570823  0.49080756  0.28836129  1  0  -0.123759  0  3.729199  0  0  -0.139016  0  3.986502  0  0  -0.145879  0  4.0078  0  0  -0.08449  -0.134609  0  3.972199  0
C  C110  1  0.74032915  0.06486913  0.78813755  1  0  -0.121182  0  3.7299  0  0  -0.136289  0  3.986794  0  0  -0.143152  0  4.008064  0  0  -0.083065  -0.131884  0  3.972498  0
C  C111  1  0.27652125  0.95209333  0.21179772  1  0  -0.122011  0  3.730365  0  0  -0.136984  0  3.987373  0  0  -0.143877  0  4.008623  0  0  -0.083467  -0.132563  0  3.973082  0
C  C112  1  0.23700198  0.09971847  0.77220801  1  0  0.135962  0  3.7196  0  0  0.105357  0  3.972499  0  0  0.112272  0  3.991528  0  0  0.050605  0.100932  0  3.959422  0
C  C113  1  0.32771850  0.46482132  0.22789364  1  0  0.136455  0  3.719109  0  0  0.105893  0  3.971931  0  0  0.112834  0  3.990937  0  0  0.050666  0.101473  0  3.958872  0
C  C114  1  0.71475991  0.07723551  0.72769555  1  0  0.134616  0  3.720887  0  0  0.104423  0  3.973677  0  0  0.111293  0  3.99266  0  0  0.050279  0.100041  0  3.960621  0
C  C115  1  0.34937347  0.98697652  0.27223704  1  0  0.135082  0  3.719896  0  0  0.104493  0  3.972874  0  0  0.111427  0  3.991888  0  0  0.050168  0.100051  0  3.959808  0
S  S116  1  0.76556395  0.82660530  0.91883446  1  0  0.161979  0  2.682353  0  0  0.16055  0  3.009737  0  0  0.159939  0  3.019922  0  0  0.105602  0.160623  0  3.003179  0
S  S117  1  0.90786088  0.84671210  0.08114067  1  0  0.161952  0  2.682239  0  0  0.16041  0  3.009758  0  0  0.159799  0  3.019964  0  0  0.105526  0.160489  0  3.003192  0
S  S118  1  0.09703723  0.65845403  0.58116682  1  0  0.161205  0  2.682314  0  0  0.159743  0  3.009941  0  0  0.159192  0  3.02021  0  0  0.105032  0.159809  0  3.003354  0
S  S119  1  0.07685102  0.51605726  0.41886991  1  0  0.161174  0  2.683956  0  0  0.159997  0  3.011815  0  0  0.159358  0  3.021982  0  0  0.105608  0.160078  0  3.005249  0
N  N120  1  0.11860183  0.49037846  0.83593291  1  0  -0.36163  0  3.229823  0  0  -0.293585  0  3.487977  0  0  -0.313328  0  3.507673  0  0  -0.320439  -0.28007  0  3.474338  0
N  N121  1  0.65451835  0.28245357  0.16420665  1  0  -0.362097  0  3.232505  0  0  -0.294297  0  3.490309  0  0  -0.314032  0  3.510029  0  0  -0.320798  -0.28078  0  3.476691  0
N  N122  1  0.53261837  0.40431281  0.66406376  1  0  -0.362526  0  3.231346  0  0  -0.294543  0  3.48957  0  0  -0.314327  0  3.509292  0  0  -0.321242  -0.281014  0  3.475936  0
N  N123  1  0.73969122  0.86781537  0.33583308  1  0  -0.361578  0  3.230155  0  0  -0.293552  0  3.488459  0  0  -0.313302  0  3.508155  0  0  -0.32006  -0.280036  0  3.474829  0
N  N124  1  0.20133958  0.23208013  0.79138944  1  0  -0.35704  0  3.243852  0  0  -0.287176  0  3.505915  0  0  -0.307246  0  3.525067  0  0  -0.323239  -0.273441  0  3.492554  0
N  N125  1  0.44091705  0.41004375  0.20871047  1  0  -0.357197  0  3.244525  0  0  -0.287295  0  3.506477  0  0  -0.307353  0  3.525567  0  0  -0.323603  -0.273565  0  3.493136  0
N  N126  1  0.66008546  0.19054901  0.70853930  1  0  -0.356088  0  3.243465  0  0  -0.28642  0  3.505573  0  0  -0.306475  0  3.524735  0  0  -0.323352  -0.272712  0  3.492233  0
N  N127  1  0.48180155  0.95140775  0.29138144  1  0  -0.356279  0  3.243297  0  0  -0.286694  0  3.505068  0  0  -0.306728  0  3.524228  0  0  -0.323145  -0.273002  0  3.49175  0
O  O128  1  0.40557930  0.20761975  0.93991332  1  0  -0.822212  0  1.849281  0  0  -0.760002  0  2.030673  0  0  -0.782139  0  1.998358  0  0  -0.587729  -0.744319  0  2.053059  0
O  O129  1  0.26815251  0.46596357  0.06018830  1  0  -0.823274  0  1.847631  0  0  -0.760762  0  2.029315  0  0  -0.782958  0  1.997063  0  0  -0.587717  -0.745064  0  2.05168  0
O  O130  1  0.71631744  0.01847433  0.56005200  1  0  -0.823627  0  1.849163  0  0  -0.761168  0  2.030575  0  0  -0.78336  0  1.998308  0  0  -0.587964  -0.74547  0  2.05296  0
O  O131  1  0.45848906  0.15655549  0.43980414  1  0  -0.822172  0  1.849747  0  0  -0.759963  0  2.031124  0  0  -0.782126  0  1.998978  0  0  -0.588053  -0.74427  0  2.053431  0
O  O132  1  0.35885782  0.61283251  0.96701476  1  0  -0.655989  0  1.984367  0  0  -0.587215  0  2.210967  0  0  -0.614983  0  2.200518  0  0  -0.322019  -0.567663  0  2.217296  0
O  O133  1  0.64651994  0.39157884  0.03300532  1  0  -0.655596  0  1.98416  0  0  -0.586911  0  2.210498  0  0  -0.614705  0  2.200212  0  0  -0.321723  -0.567425  0  2.21689  0
O  O134  1  0.64211127  0.39679381  0.53294373  1  0  -0.65512  0  1.985751  0  0  -0.586242  0  2.211667  0  0  -0.614077  0  2.201376  0  0  -0.321815  -0.566736  0  2.218055  0
O  O135  1  0.86390759  0.10893414  0.46693512  1  0  -0.654373  0  1.98374  0  0  -0.585873  0  2.210286  0  0  -0.61366  0  2.200012  0  0  -0.321244  -0.56636  0  2.216622  0
O  O136  1  0.49482221  0.53067702  0.90019697  1  0  -0.637942  0  1.97174  0  0  -0.574432  0  2.212183  0  0  -0.602042  0  2.201704  0  0  -0.331685  -0.554992  0  2.218597  0
O  O137  1  0.63096118  0.59429389  0.09981832  1  0  -0.637375  0  1.973913  0  0  -0.573329  0  2.214127  0  0  -0.601008  0  2.20378  0  0  -0.331272  -0.553802  0  2.220395  0
O  O138  1  0.84481670  0.38138008  0.59980876  1  0  -0.637186  0  1.973102  0  0  -0.573401  0  2.213205  0  0  -0.601014  0  2.202731  0  0  -0.331258  -0.553961  0  2.219618  0
O  O139  1  0.78156633  0.24479021  0.40009732  1  0  -0.637492  0  1.974536  0  0  -0.573333  0  2.214612  0  0  -0.600971  0  2.204176  0  0  -0.330966  -0.553863  0  2.221009  0
O  O140  1  0.04140111  0.27983451  0.95907241  1  0  -0.657647  0  1.968931  0  0  -0.586313  0  2.201373  0  0  -0.615408  0  2.190586  0  0  -0.328508  -0.565916  0  2.208062  0
O  O141  1  0.32070568  0.08300093  0.04107656  1  0  -0.658206  0  1.96946  0  0  -0.586701  0  2.20175  0  0  -0.615852  0  2.190927  0  0  -0.328397  -0.566264  0  2.208458  0
O  O142  1  0.33326948  0.07107093  0.54088316  1  0  -0.657791  0  1.968768  0  0  -0.586693  0  2.201106  0  0  -0.615754  0  2.190206  0  0  -0.328634  -0.566274  0  2.207797  0
O  O143  1  0.52973847  0.79256324  0.45893499  1  0  -0.658455  0  1.970075  0  0  -0.587267  0  2.202895  0  0  -0.616356  0  2.191968  0  0  -0.328898  -0.566871  0  2.209686  0
O  O144  1  0.04555509  0.06876655  0.89375395  1  0  -0.625589  0  1.951911  0  0  -0.564527  0  2.182984  0  0  -0.591439  0  2.174979  0  0  -0.326016  -0.545566  0  2.18777  0
O  O145  1  0.17436574  0.15209531  0.10621313  1  0  -0.625862  0  1.947874  0  0  -0.565168  0  2.178937  0  0  -0.591979  0  2.170826  0  0  -0.32623  -0.546246  0  2.18373  0
O  O146  1  0.40234445  0.92493460  0.60612964  1  0  -0.626583  0  1.947875  0  0  -0.565775  0  2.178779  0  0  -0.592628  0  2.170727  0  0  -0.326819  -0.546853  0  2.18359  0
O  O147  1  0.31810341  0.79680873  0.39391735  1  0  -0.625708  0  1.94818  0  0  -0.56488  0  2.178813  0  0  -0.591638  0  2.170701  0  0  -0.326231  -0.545987  0  2.183592  0
