# generated using pymatgen
data_AlH7C16Cl2O5
_symmetry_space_group_name_H-M   'P 1'
_cell_length_a   6.63485691
_cell_length_b   17.98084896
_cell_length_c   17.95469377
_cell_angle_alpha   89.10475763
_cell_angle_beta   77.34584504
_cell_angle_gamma   77.31545775
_symmetry_Int_Tables_number   1
_chemical_formula_structural   AlH7C16Cl2O5
_chemical_formula_sum   'Al2 H14 C32 Cl4 O10'
_cell_volume   2037.77706701
_cell_formula_units_Z   2
loop_
 _symmetry_equiv_pos_site_id
 _symmetry_equiv_pos_as_xyz
  1  'x, y, z'
loop_
 _atom_site_type_symbol
 _atom_site_label
 _atom_site_symmetry_multiplicity
 _atom_site_fract_x
 _atom_site_fract_y
 _atom_site_fract_z
 _atom_site_occupancy
 _atom_site_pbe_bader_charge
 _atom_site_pbe_bader_spin_density
 _atom_site_pbe_cm5_charge
 _atom_site_pbe_ddec_charge
 _atom_site_pbe_ddec_spin_density
 _atom_site_pbe_ddec_sum_bond_order
 _atom_site_pbe_magmom
Al  Al0  1  0.00248400  0.49911811  0.50219760  1  2.501996  0  0.397051  1.644759  0  2.566799  0
Al  Al1  1  0.50378441  0.49767466  0.50148270  1  2.502109  0  0.391076  1.653779  0  2.565178  0
H  H2  1  0.17700041  0.58732966  0.54927848  1  0.631548  0  0.334671  0.413915  0  0.895559  0
H  H3  1  0.83425827  0.45290631  0.41173992  1  0.613975  0  0.334086  0.413238  0  0.896819  0
H  H4  1  0.06516725  0.55481350  0.27809127  1  0.11849  0  0.111218  0.117902  0  0.988828  0
H  H5  1  0.11848369  0.55964093  0.13643224  1  0.098973  0  0.109689  0.116598  0  0.98359  0
H  H6  1  0.77311228  0.44442327  0.11565096  1  0.123707  0  0.110461  0.128255  0  0.987268  0
H  H7  1  0.22804821  0.55396468  0.88422394  1  0.092608  0  0.109272  0.125379  0  0.991345  0
H  H8  1  0.94143883  0.44497360  0.72467651  1  0.110997  0  0.113328  0.120318  0  0.989022  0
H  H9  1  0.88536085  0.44379752  0.86665668  1  0.100447  0  0.108188  0.114913  0  0.987057  0
H  H10  1  0.93863448  0.72417155  0.44438223  1  0.117459  0  0.111218  0.118768  0  0.992797  0
H  H11  1  0.87809377  0.86573198  0.43870469  1  0.08336  0  0.109336  0.117183  0  0.983404  0
H  H12  1  0.22945571  0.88269356  0.55891234  1  0.084621  0  0.110049  0.127005  0  0.989091  0
H  H13  1  0.76155580  0.11522087  0.44192983  1  0.094895  0  0.10877  0.125444  0  0.992271  0
H  H14  1  0.05451069  0.27603380  0.55528820  1  0.133565  0  0.11326  0.121955  0  0.990847  0
H  H15  1  0.10789944  0.13438199  0.55738745  1  0.078258  0  0.107717  0.114521  0  0.985538  0
C  C16  1  0.67456784  0.63769496  0.50123305  1  1.602093  0  0.265148  0.650836  0  4.094308  0
C  C17  1  0.66664280  0.49411715  0.63892914  1  1.539176  0  0.265327  0.645074  0  4.10069  0
C  C18  1  0.32594057  0.36121232  0.50350328  1  1.526318  0  0.267765  0.649221  0  4.095799  0
C  C19  1  0.34032071  0.50124228  0.36252796  1  1.597466  0  0.262498  0.652047  0  4.101613  0
C  C20  1  0.38711744  0.50036589  0.27719696  1  0.017713  0  -0.016164  -0.099338  0  3.930394  0
C  C21  1  0.22051390  0.53202578  0.24154530  1  -0.042552  0  -0.078374  -0.076873  0  4.003148  0
C  C22  1  0.24960336  0.53441234  0.16278324  1  -0.017232  0  -0.08633  -0.137546  0  3.952093  0
C  C23  1  0.45043577  0.50295699  0.11610119  1  0.117807  0  0.005802  0.164028  0  4.116005  0
C  C24  1  0.61833990  0.47015374  0.15094279  1  0.02666  0  -0.088379  -0.200122  0  3.921819  0
C  C25  1  0.58731490  0.46914632  0.23018723  1  0.023148  0  0.023941  0.142575  0  4.020529  0
C  C26  1  0.48461886  0.50237223  0.03553927  1  -0.593291  0  -0.043606  -0.106991  0  4.106874  0
C  C27  1  0.51658004  0.50024890  0.96593151  1  0.223901  0  -0.037626  -0.09389  0  4.104331  0
C  C28  1  0.55191404  0.49808489  0.88531825  1  0.0577  0  0.004158  0.158675  0  4.120402  0
C  C29  1  0.38397251  0.52841804  0.84966403  1  0.039774  0  -0.090985  -0.201282  0  3.927476  0
C  C30  1  0.41613501  0.52715203  0.77031074  1  0.085926  0  0.024186  0.138808  0  4.035524  0
C  C31  1  0.61801653  0.49611785  0.72427503  1  -0.008527  0  -0.013942  -0.096673  0  3.926746  0
C  C32  1  0.78483216  0.46704420  0.76065888  1  -0.015956  0  -0.077742  -0.074724  0  3.998686  0
C  C33  1  0.75423389  0.46689165  0.83954499  1  0.004687  0  -0.084794  -0.136444  0  3.954926  0
C  C34  1  0.62063850  0.72295645  0.50175698  1  0.004852  0  -0.017721  -0.105012  0  3.922787  0
C  C35  1  0.78293255  0.75993584  0.46814027  1  -0.070557  0  -0.077743  -0.074816  0  4.003182  0
C  C36  1  0.74984582  0.83861075  0.46527103  1  0.069279  0  -0.084353  -0.137978  0  3.955136  0
C  C37  1  0.54845713  0.88422886  0.49793510  1  0.105961  0  0.005528  0.165063  0  4.11691  0
C  C38  1  0.38471510  0.84827926  0.53241119  1  0.015415  0  -0.087636  -0.199691  0  3.920983  0
C  C39  1  0.41957272  0.76903510  0.53416333  1  0.058739  0  0.025243  0.147631  0  4.013048  0
C  C40  1  0.51000678  0.96476030  0.49788789  1  0.007527  0  -0.040503  -0.102871  0  4.099805  0
C  C41  1  0.47548258  0.03433151  0.49927355  1  -0.487919  0  -0.038298  -0.095012  0  4.097426  0
C  C42  1  0.43962244  0.11486156  0.50044074  1  0.162167  0  0.005345  0.161611  0  4.117428  0
C  C43  1  0.60665791  0.15009938  0.46815575  1  0.038507  0  -0.091136  -0.204836  0  3.925373  0
C  C44  1  0.57607450  0.22934083  0.46845522  1  0.026294  0  0.026245  0.148427  0  4.021383  0
C  C45  1  0.37559104  0.27595073  0.50092981  1  0.125546  0  -0.014949  -0.105252  0  3.917351  0
C  C46  1  0.20967227  0.23969697  0.53202079  1  -0.112162  0  -0.077035  -0.073092  0  3.994539  0
C  C47  1  0.23877295  0.16102422  0.53275340  1  0.02805  0  -0.08378  -0.136573  0  3.955783  0
Cl  Cl48  1  0.80291587  0.42333241  0.26607901  1  -0.201378  0  0.013057  -0.066837  0  1.54297  0
Cl  Cl49  1  0.20192253  0.56895676  0.73236912  1  -0.185255  0  0.014339  -0.054334  0  1.559081  0
Cl  Cl50  1  0.20592373  0.73327255  0.58179360  1  -0.188532  0  0.011261  -0.067066  0  1.548469  0
Cl  Cl51  1  0.79294069  0.26472811  0.42451930  1  -0.182909  0  0.010253  -0.057807  0  1.55678  0
O  O52  1  0.87035235  0.60602615  0.49344254  1  -1.261026  0  -0.240021  -0.594523  0  2.333098  0
O  O53  1  0.52546279  0.48335051  0.60536183  1  -1.249509  0  -0.229548  -0.576187  0  2.369647  0
O  O54  1  0.47852260  0.39470959  0.49555237  1  -1.252709  0  -0.231419  -0.585327  0  2.410044  0
O  O55  1  0.15488495  0.49419237  0.39559458  1  -1.254151  0  -0.236974  -0.596164  0  2.333883  0
O  O56  1  0.13112496  0.39448087  0.51351765  1  -1.253687  0  -0.231919  -0.577308  0  2.332256  0
O  O57  1  0.48581187  0.50959885  0.39520149  1  -1.256793  0  -0.238887  -0.598008  0  2.379638  0
O  O58  1  0.52397832  0.60319941  0.50814248  1  -1.254249  0  -0.238535  -0.602067  0  2.407795  0
O  O59  1  0.84987603  0.50333055  0.60626427  1  -1.25778  0  -0.231073  -0.579288  0  2.337144  0
O  O60  1  0.21396410  0.53364950  0.53387836  1  -1.430481  0  -0.449636  -0.992375  0  2.222947  0
O  O61  1  0.79382188  0.46722425  0.46577651  1  -1.415058  0  -0.450379  -0.991623  0  2.218583  0
