# generated using pymatgen
data_CdH20C26(NO3)2
_symmetry_space_group_name_H-M   'P 1'
_cell_length_a   7.39779467
_cell_length_b   9.40480262
_cell_length_c   17.65900000
_cell_angle_alpha   99.96531703
_cell_angle_beta   90.00000000
_cell_angle_gamma   113.15955233
_symmetry_Int_Tables_number   1
_chemical_formula_structural   CdH20C26(NO3)2
_chemical_formula_sum   'Cd2 H40 C52 N4 O12'
_cell_volume   1109.42105251
_cell_formula_units_Z   2
loop_
 _symmetry_equiv_pos_site_id
 _symmetry_equiv_pos_as_xyz
  1  'x, y, z'
loop_
 _atom_site_type_symbol
 _atom_site_label
 _atom_site_symmetry_multiplicity
 _atom_site_fract_x
 _atom_site_fract_y
 _atom_site_fract_z
 _atom_site_occupancy
 _atom_site_hle17_bader_spin_density
 _atom_site_hle17_ddec_charge
 _atom_site_hle17_ddec_spin_density
 _atom_site_hle17_ddec_sum_bond_order
 _atom_site_hle17_magmom
 _atom_site_hse06_10hf_bader_spin_density
 _atom_site_hse06_10hf_ddec_charge
 _atom_site_hse06_10hf_ddec_spin_density
 _atom_site_hse06_10hf_ddec_sum_bond_order
 _atom_site_hse06_10hf_magmom
 _atom_site_hse06_bader_spin_density
 _atom_site_hse06_ddec_charge
 _atom_site_hse06_ddec_spin_density
 _atom_site_hse06_ddec_sum_bond_order
 _atom_site_hse06_magmom
 _atom_site_pbe_bader_charge
 _atom_site_pbe_bader_spin_density
 _atom_site_pbe_cm5_charge
 _atom_site_pbe_ddec_charge
 _atom_site_pbe_ddec_spin_density
 _atom_site_pbe_ddec_sum_bond_order
 _atom_site_pbe_magmom
Cd  Cd0  1  0.48681821  0.99989959  0.75008079  1  0  1.062537  0  1.673706  0  0  0.862519  0  2.114236  0  0  0.922356  0  2.064849  0  1.216094  0  0.76529  0.819885  0  2.148277  0
Cd  Cd1  1  0.51318270  0.00010009  0.24991975  1  0  1.06252  0  1.673709  0  0  0.862498  0  2.114232  0  0  0.922337  0  2.064847  0  1.21616  0  0.765269  0.819864  0  2.148275  0
H  H2  1  0.78373432  0.81645690  0.72836061  1  0  0.08274  0  0.948266  0  0  0.091385  0  1.01426  0  0  0.092583  0  1.014779  0  0.113707  0  0.116866  0.090427  0  1.013874  0
H  H3  1  0.96753480  0.18276090  0.77177230  1  0  0.083202  0  0.948659  0  0  0.091582  0  1.014556  0  0  0.09285  0  1.014982  0  0.117464  0  0.11687  0.090556  0  1.014437  0
H  H4  1  0.21625706  0.18353453  0.27163974  1  0  0.082707  0  0.948334  0  0  0.091351  0  1.014341  0  0  0.092549  0  1.014861  0  0.113497  0  0.116838  0.090395  0  1.013955  0
H  H5  1  0.03246164  0.81723525  0.22822621  1  0  0.083223  0  0.94866  0  0  0.091581  0  1.014596  0  0  0.092848  0  1.015023  0  0.117479  0  0.116871  0.090558  0  1.014466  0
H  H6  1  0.74202634  0.60883599  0.48793832  1  0  0.097305  0  0.964307  0  0  0.106544  0  1.028169  0  0  0.108068  0  1.029026  0  0.098582  0  0.106154  0.105348  0  1.027885  0
H  H7  1  0.13295016  0.39161115  0.01208024  1  0  0.096957  0  0.965458  0  0  0.10638  0  1.028976  0  0  0.107911  0  1.029848  0  0.112412  0  0.106102  0.105258  0  1.028516  0
H  H8  1  0.25796799  0.39116133  0.51206087  1  0  0.097392  0  0.964248  0  0  0.106587  0  1.028162  0  0  0.108112  0  1.029018  0  0.098543  0  0.106162  0.105392  0  1.027875  0
H  H9  1  0.86705234  0.60839442  0.98791744  1  0  0.097002  0  0.965388  0  0  0.106415  0  1.028927  0  0  0.107946  0  1.029797  0  0.112363  0  0.106094  0.105292  0  1.028468  0
H  H10  1  0.49207965  0.71755263  0.46413677  1  0  0.114683  0  0.95457  0  0  0.120416  0  1.019301  0  0  0.123993  0  1.017906  0  0.140431  0  0.109848  0.117768  0  1.020602  0
H  H11  1  0.77433516  0.28299460  0.03583665  1  0  0.114656  0  0.954561  0  0  0.120076  0  1.019504  0  0  0.123644  0  1.018133  0  0.115139  0  0.110029  0.11755  0  1.020629  0
H  H12  1  0.50792032  0.28245059  0.53586466  1  0  0.114685  0  0.95462  0  0  0.120425  0  1.019347  0  0  0.124003  0  1.017951  0  0.140093  0  0.109842  0.117777  0  1.020648  0
H  H13  1  0.22566575  0.71700508  0.96416219  1  0  0.114641  0  0.95449  0  0  0.120031  0  1.019465  0  0  0.123598  0  1.018095  0  0.115216  0  0.110005  0.117504  0  1.020591  0
H  H14  1  0.40605125  0.87951128  0.57677004  1  0  0.082969  0  0.969623  0  0  0.089369  0  1.037376  0  0  0.092486  0  1.034542  0  0.120848  0  0.113198  0.086993  0  1.039693  0
H  H15  1  0.52649135  0.12053903  0.92319439  1  0  0.082561  0  0.970727  0  0  0.089909  0  1.037401  0  0  0.092956  0  1.034595  0  0.100935  0  0.113261  0.087454  0  1.039815  0
H  H16  1  0.59395084  0.12049076  0.42323014  1  0  0.082948  0  0.969634  0  0  0.089357  0  1.037384  0  0  0.092474  0  1.03455  0  0.120844  0  0.113197  0.086982  0  1.039701  0
H  H17  1  0.47350939  0.87946300  0.07680467  1  0  0.082564  0  0.970659  0  0  0.089918  0  1.037335  0  0  0.092966  0  1.034529  0  0.100974  0  0.113252  0.08746  0  1.039748  0
H  H18  1  0.06458987  0.69655374  0.59294270  1  0  0.075912  0  0.921776  0  0  0.0887  0  0.985816  0  0  0.08877  0  0.985324  0  0.084724  0  0.107205  0.088938  0  0.985847  0
H  H19  1  0.36835465  0.30347656  0.90711219  1  0  0.076133  0  0.921297  0  0  0.088547  0  0.985678  0  0  0.08859  0  0.985137  0  0.070982  0  0.107322  0.088666  0  0.985935  0
H  H20  1  0.93540404  0.30344006  0.40705560  1  0  0.075905  0  0.921757  0  0  0.08868  0  0.985793  0  0  0.088753  0  0.9853  0  0.084708  0  0.107169  0.088905  0  0.985842  0
H  H21  1  0.63164568  0.69652194  0.09288597  1  0  0.076076  0  0.921386  0  0  0.088514  0  0.98573  0  0  0.088553  0  0.985195  0  0.070959  0  0.107329  0.088633  0  0.985985  0
H  H22  1  0.98957528  0.68219847  0.68789295  1  0  0.072904  0  0.961475  0  0  0.082181  0  1.031824  0  0  0.082406  0  1.031819  0  0.096826  0  0.106317  0.081817  0  1.031686  0
H  H23  1  0.30763764  0.31812386  0.81223472  1  0  0.073208  0  0.9612  0  0  0.082077  0  1.031577  0  0  0.082206  0  1.031682  0  0.095146  0  0.106284  0.081808  0  1.03184  0
H  H24  1  0.01042293  0.31780121  0.31210589  1  0  0.072959  0  0.961456  0  0  0.0822  0  1.031814  0  0  0.082426  0  1.031811  0  0.0968  0  0.106331  0.08184  0  1.03167  0
H  H25  1  0.69236369  0.68187936  0.18776388  1  0  0.07318  0  0.961199  0  0  0.082063  0  1.031564  0  0  0.082192  0  1.031667  0  0.095212  0  0.106273  0.08178  0  1.031844  0
H  H26  1  0.74908708  0.18035167  0.56048621  1  0  0.107926  0  0.951027  0  0  0.120549  0  1.0093  0  0  0.123665  0  1.00834  0  0.029524  0  0.103838  0.118405  0  1.010204  0
H  H27  1  0.56877312  0.81977989  0.93996932  1  0  0.107389  0  0.951725  0  0  0.120698  0  1.00921  0  0  0.123775  0  1.008286  0  0.050881  0  0.103644  0.11829  0  1.010455  0
H  H28  1  0.25091012  0.81964330  0.43951503  1  0  0.107918  0  0.95104  0  0  0.120539  0  1.009312  0  0  0.123655  0  1.008353  0  0.029527  0  0.103832  0.118396  0  1.010217  0
H  H29  1  0.43122449  0.18021861  0.06003224  1  0  0.107354  0  0.95176  0  0  0.120724  0  1.009179  0  0  0.123805  0  1.008252  0  0.050908  0  0.103641  0.118314  0  1.010425  0
H  H30  1  0.94504988  0.02551472  0.58336122  1  0  0.094086  0  0.972339  0  0  0.102403  0  1.037622  0  0  0.104769  0  1.037307  0  0.049642  0  0.098875  0.10109  0  1.037015  0
H  H31  1  0.91954207  0.97455444  0.91701664  1  0  0.093779  0  0.972038  0  0  0.10284  0  1.036376  0  0  0.105205  0  1.036078  0  0.104739  0  0.098894  0.101111  0  1.036651  0
H  H32  1  0.05495450  0.97448378  0.41663808  1  0  0.094109  0  0.972357  0  0  0.102429  0  1.037635  0  0  0.104797  0  1.037321  0  0.049648  0  0.098899  0.101117  0  1.037028  0
H  H33  1  0.08045461  0.02544760  0.08298581  1  0  0.093802  0  0.972083  0  0  0.10287  0  1.036403  0  0  0.105241  0  1.036107  0  0.104791  0  0.098891  0.101149  0  1.036672  0
H  H34  1  0.41124478  0.44865777  0.70163483  1  0  0.101427  0  0.948067  0  0  0.111133  0  1.009142  0  0  0.11427  0  1.007294  0  0.106141  0  0.103228  0.108832  0  1.010567  0
H  H35  1  0.96235177  0.55152679  0.79849600  1  0  0.101617  0  0.946552  0  0  0.110953  0  1.007942  0  0  0.114024  0  1.0062  0  0.091437  0  0.103372  0.108516  0  1.009717  0
H  H36  1  0.58875595  0.55134427  0.29836309  1  0  0.101544  0  0.947981  0  0  0.111217  0  1.009073  0  0  0.114349  0  1.007236  0  0.106106  0  0.103258  0.108917  0  1.010499  0
H  H37  1  0.03765403  0.44847996  0.20150519  1  0  0.101626  0  0.946486  0  0  0.111005  0  1.00785  0  0  0.114085  0  1.006084  0  0.091373  0  0.103387  0.108568  0  1.00962  0
H  H38  1  0.22073211  0.60431899  0.68008558  1  0  0.120823  0  0.987377  0  0  0.12742  0  1.054646  0  0  0.130953  0  1.053188  0  0.110498  0  0.103812  0.124334  0  1.056752  0
H  H39  1  0.61616306  0.39585026  0.82002346  1  0  0.120444  0  0.988142  0  0  0.127022  0  1.055649  0  0  0.130618  0  1.054119  0  0.113746  0  0.103606  0.124793  0  1.056271  0
H  H40  1  0.77926475  0.39568069  0.31991439  1  0  0.120809  0  0.987392  0  0  0.127405  0  1.054669  0  0  0.130937  0  1.053212  0  0.110483  0  0.103788  0.124318  0  1.056774  0
H  H41  1  0.38384156  0.60415413  0.17997582  1  0  0.120396  0  0.988129  0  0  0.126951  0  1.055678  0  0  0.130556  0  1.054124  0  0.113689  0  0.103607  0.124726  0  1.056295  0
C  C42  1  0.72312643  0.79270495  0.66891971  1  0  0.092969  0  3.662483  0  0  0.055675  0  3.907514  0  0  0.062047  0  3.927264  0  0.436511  0  0.05437  0.05162  0  3.89328  0
C  C43  1  0.93067470  0.20678369  0.83118832  1  0  0.092163  0  3.665929  0  0  0.055611  0  3.910851  0  0  0.061919  0  3.930693  0  0.443106  0  0.054952  0.051722  0  3.896742  0
C  C44  1  0.27686672  0.20729002  0.33108096  1  0  0.092954  0  3.662503  0  0  0.055671  0  3.907553  0  0  0.062044  0  3.927299  0  0.428491  0  0.054364  0.051615  0  3.89332  0
C  C45  1  0.06932157  0.79321482  0.16881097  1  0  0.09205  0  3.665857  0  0  0.055511  0  3.910811  0  0  0.061818  0  3.930655  0  0.443085  0  0.054866  0.051622  0  3.896704  0
C  C46  1  0.78252946  0.70431013  0.61013754  1  0  0.033802  0  3.716841  0  0  0.055254  0  3.957185  0  0  0.050766  0  3.978547  0  0.059111  0  0.00169  0.058232  0  3.941997  0
C  C47  1  0.07834418  0.29546111  0.88998578  1  0  0.035331  0  3.716677  0  0  0.055837  0  3.957652  0  0  0.05133  0  3.979066  0  0.068018  0  0.001821  0.058549  0  3.943607  0
C  C48  1  0.21746351  0.29568720  0.38986335  1  0  0.033924  0  3.716879  0  0  0.055304  0  3.957259  0  0  0.050818  0  3.978622  0  0.067121  0  0.001685  0.058284  0  3.94207  0
C  C49  1  0.92165479  0.70453739  0.11001295  1  0  0.035427  0  3.71653  0  0  0.055898  0  3.957528  0  0  0.051386  0  3.978956  0  0.067917  0  0.001846  0.058611  0  3.943479  0
C  C50  1  0.69894088  0.67717159  0.53527268  1  0  -0.029211  0  3.66661  0  0  -0.055978  0  3.910531  0  0  -0.052763  0  3.930064  0  -0.034525  0  -0.055916  -0.058307  0  3.897523  0
C  C51  1  0.02160640  0.32293878  0.96476807  1  0  -0.031703  0  3.668188  0  0  -0.058762  0  3.912884  0  0  -0.05558  0  3.932492  0  -0.095937  0  -0.057158  -0.060418  0  3.899751  0
C  C52  1  0.30105286  0.32282456  0.46472640  1  0  -0.029373  0  3.666658  0  0  -0.056081  0  3.910587  0  0  -0.052866  0  3.930121  0  -0.034429  0  -0.055934  -0.058408  0  3.897576  0
C  C53  1  0.97839545  0.67705737  0.03523101  1  0  -0.031776  0  3.668031  0  0  -0.058816  0  3.912699  0  0  -0.055632  0  3.932307  0  -0.095804  0  -0.057129  -0.060472  0  3.899566  0
C  C54  1  0.56140074  0.73879527  0.52171154  1  0  -0.114197  0  3.729899  0  0  -0.125748  0  3.984367  0  0  -0.133219  0  4.006265  0  -0.060524  0  -0.080658  -0.120957  0  3.97023  0
C  C55  1  0.82238620  0.26137751  0.97829363  1  0  -0.112538  0  3.728464  0  0  -0.123813  0  3.983595  0  0  -0.131251  0  4.005486  0  0.007465  0  -0.080133  -0.119041  0  3.968765  0
C  C56  1  0.43860000  0.26120677  0.47829035  1  0  -0.114121  0  3.729905  0  0  -0.125684  0  3.984362  0  0  -0.133157  0  4.006264  0  -0.060205  0  -0.08061  -0.120894  0  3.970225  0
C  C57  1  0.17761818  0.73862099  0.02170680  1  0  -0.112516  0  3.728478  0  0  -0.123762  0  3.983585  0  0  -0.131197  0  4.005469  0  0.00731  0  -0.080143  -0.118992  0  3.968755  0
C  C58  1  0.51232650  0.82743619  0.58331270  1  0  0.110818  0  3.710245  0  0  0.078525  0  3.961572  0  0  0.084858  0  3.981262  0  0.446323  0  0.041588  0.07416  0  3.949189  0
C  C59  1  0.68487008  0.17249401  0.91668766  1  0  0.109918  0  3.713059  0  0  0.07685  0  3.964913  0  0  0.08324  0  3.984664  0  0.47226  0  0.04095  0.072913  0  3.950828  0
C  C60  1  0.48767365  0.17256466  0.41668908  1  0  0.110846  0  3.710377  0  0  0.078545  0  3.961719  0  0  0.084878  0  3.98141  0  0.446251  0  0.041585  0.07418  0  3.949336  0
C  C61  1  0.31513101  0.82750331  0.08331152  1  0  0.109888  0  3.71315  0  0  0.07681  0  3.964986  0  0  0.083198  0  3.984739  0  0.472196  0  0.040954  0.072876  0  3.950896  0
C  C62  1  0.93727421  0.64623788  0.62664789  1  0  0.053295  0  3.625591  0  0  -0.011454  0  3.885471  0  0  -0.002073  0  3.889244  0  0.417102  0  -0.06047  -0.017173  0  3.881705  0
C  C63  1  0.29118066  0.35380655  0.87349891  1  0  0.053125  0  3.623936  0  0  -0.010073  0  3.883422  0  0  -0.00054  0  3.887139  0  0.426485  0  -0.06067  -0.016686  0  3.881011  0
C  C64  1  0.06272205  0.35376062  0.37335141  1  0  0.053217  0  3.625702  0  0  -0.01142  0  3.885498  0  0  -0.002047  0  3.889278  0  0.417057  0  -0.060396  -0.017133  0  3.881745  0
C  C65  1  0.70881890  0.64619313  0.12649936  1  0  0.053159  0  3.624016  0  0  -0.010028  0  3.883459  0  0  -0.000488  0  3.887166  0  0.426475  0  -0.060678  -0.016634  0  3.881053  0
C  C66  1  0.97177515  0.40179678  0.61798982  1  0  0.287445  0  3.805326  0  0  0.27819  0  4.062077  0  0  0.291897  0  4.076382  0  0.497891  0  0.088086  0.268997  0  4.052343  0
C  C67  1  0.56979455  0.59833125  0.88226661  1  0  0.285431  0  3.807272  0  0  0.277465  0  4.062987  0  0  0.291188  0  4.077293  0  0.470552  0  0.086946  0.268286  0  4.053095  0
C  C68  1  0.02822441  0.59820290  0.38200901  1  0  0.287409  0  3.805278  0  0  0.278159  0  4.062045  0  0  0.29186  0  4.076351  0  0.49787  0  0.088065  0.268966  0  4.052312  0
C  C69  1  0.43020677  0.40167197  0.11773369  1  0  0.285531  0  3.80717  0  0  0.27756  0  4.062906  0  0  0.291275  0  4.077225  0  0.470373  0  0.086891  0.268379  0  4.053017  0
C  C70  1  0.89490365  0.23810245  0.59094606  1  0  -0.190577  0  3.750002  0  0  -0.210965  0  4.006059  0  0  -0.217934  0  4.024843  0  -0.082748  0  -0.107038  -0.206575  0  3.993504  0
C  C71  1  0.65670758  0.76201616  0.90941200  1  0  -0.189592  0  3.749656  0  0  -0.21082  0  4.00546  0  0  -0.21774  0  4.024257  0  -0.043551  0  -0.106454  -0.206492  0  3.992973  0
C  C72  1  0.10509667  0.76189605  0.40905437  1  0  -0.190565  0  3.750078  0  0  -0.210943  0  4.006129  0  0  -0.217911  0  4.024915  0  -0.082773  0  -0.107043  -0.206553  0  3.993577  0
C  C73  1  0.34329122  0.23798470  0.09058864  1  0  -0.189659  0  3.749738  0  0  -0.210942  0  4.005554  0  0  -0.217862  0  4.024356  0  -0.043534  0  -0.106477  -0.206616  0  3.993071  0
C  C74  1  0.00327180  0.15224874  0.60423851  1  0  -0.056183  0  3.775498  0  0  -0.079512  0  4.02564  0  0  -0.076195  0  4.045381  0  0.023534  0  -0.08898  -0.081182  0  4.01166  0
C  C75  1  0.85091822  0.84784043  0.89609079  1  0  -0.05562  0  3.774564  0  0  -0.079317  0  4.024989  0  0  -0.076021  0  4.044746  0  -0.045935  0  -0.089152  -0.08126  0  4.011323  0
C  C76  1  0.99672987  0.84774976  0.39576078  1  0  -0.05621  0  3.775538  0  0  -0.079547  0  4.025678  0  0  -0.076232  0  4.045419  0  0.023578  0  -0.089005  -0.081217  0  4.0117  0
C  C77  1  0.14908369  0.15216396  0.10391075  1  0  -0.055685  0  3.774631  0  0  -0.079382  0  4.025058  0  0  -0.076094  0  4.044828  0  -0.045943  0  -0.089158  -0.081332  0  4.011386  0
C  C78  1  0.18941087  0.22663920  0.64530097  1  0  -0.111739  0  3.809702  0  0  -0.089294  0  4.04582  0  0  -0.09999  0  4.06873  0  -0.071394  0  -0.038314  -0.082947  0  4.030728  0
C  C79  1  0.96261896  0.77343585  0.85497946  1  0  -0.111488  0  3.808371  0  0  -0.089693  0  4.044711  0  0  -0.100385  0  4.067492  0  -0.144393  0  -0.038277  -0.0829  0  4.029607  0
C  C80  1  0.81059022  0.77335813  0.35469765  1  0  -0.111804  0  3.809797  0  0  -0.089349  0  4.045904  0  0  -0.100044  0  4.068812  0  -0.071416  0  -0.038346  -0.083001  0  4.030814  0
C  C81  1  0.03738430  0.22656855  0.14502264  1  0  -0.111525  0  3.808351  0  0  -0.0897  0  4.044705  0  0  -0.100403  0  4.06751  0  -0.144406  0  -0.038373  -0.08291  0  4.029603  0
C  C82  1  0.26617130  0.39028172  0.67048481  1  0  -0.038743  0  3.745414  0  0  -0.061574  0  3.993508  0  0  -0.057377  0  4.010978  0  -0.070345  0  -0.084782  -0.063845  0  3.981638  0
C  C83  1  0.87564261  0.60984867  0.82968576  1  0  -0.038044  0  3.743975  0  0  -0.060143  0  3.992042  0  0  -0.055879  0  4.009485  0  -0.01188  0  -0.084592  -0.062905  0  3.980556  0
C  C84  1  0.73382673  0.60972032  0.32951311  1  0  -0.038856  0  3.745465  0  0  -0.061666  0  3.993585  0  0  -0.05747  0  4.011056  0  -0.07038  0  -0.084805  -0.063935  0  3.98171  0
C  C85  1  0.12435989  0.39015690  0.17031588  1  0  -0.03797  0  3.743958  0  0  -0.060133  0  3.99204  0  0  -0.055863  0  4.009492  0  -0.011921  0  -0.084474  -0.062894  0  3.980555  0
C  C86  1  0.15988977  0.47852581  0.65718502  1  0  -0.221511  0  3.751581  0  0  -0.23941  0  4.00488  0  0  -0.247052  0  4.024126  0  0.018056  0  -0.113636  -0.23458  0  3.992519  0
C  C87  1  0.68110555  0.52163048  0.84296925  1  0  -0.221712  0  3.752369  0  0  -0.240068  0  4.005035  0  0  -0.247726  0  4.024222  0  0.015361  0  -0.113325  -0.235363  0  3.99179  0
C  C88  1  0.84010979  0.52147387  0.34281155  1  0  -0.221417  0  3.751404  0  0  -0.239314  0  4.004703  0  0  -0.246956  0  4.02395  0  0.018116  0  -0.113544  -0.234483  0  3.992342  0
C  C89  1  0.31889654  0.47837156  0.15703150  1  0  -0.22166  0  3.752168  0  0  -0.239991  0  4.004881  0  0  -0.247646  0  4.024077  0  0.015379  0  -0.113306  -0.235288  0  3.991633  0
C  C90  1  0.29649157  0.13204233  0.66639682  1  0  0.614618  0  3.964491  0  0  0.568504  0  4.252241  0  0  0.603274  0  4.246004  0  1.514932  0  0.182514  0.545478  0  4.255027  0
C  C91  1  0.16433884  0.86808100  0.83391920  1  0  0.614124  0  3.963811  0  0  0.568632  0  4.250963  0  0  0.603468  0  4.244541  0  1.532425  0  0.181665  0.545082  0  4.254368  0
C  C92  1  0.70350993  0.86795853  0.33360439  1  0  0.61467  0  3.964412  0  0  0.56857  0  4.252149  0  0  0.603339  0  4.245911  0  1.514896  0  0.182478  0.545545  0  4.254935  0
C  C93  1  0.83566460  0.13192104  0.16608382  1  0  0.614204  0  3.963679  0  0  0.568637  0  4.250932  0  0  0.603476  0  4.24451  0  1.53231  0  0.18166  0.545088  0  4.254334  0
N  N94  1  0.59209534  0.85394004  0.65574463  1  0  -0.338259  0  3.293039  0  0  -0.252475  0  3.559792  0  0  -0.274292  0  3.580148  0  -1.228895  0  -0.333702  -0.237736  0  3.546084  0
N  N95  1  0.73834233  0.14570638  0.84431338  1  0  -0.338629  0  3.297374  0  0  -0.25321  0  3.565002  0  0  -0.275066  0  3.585496  0  -1.243583  0  -0.333854  -0.237812  0  3.549101  0
N  N96  1  0.40790304  0.14605729  0.34425682  1  0  -0.338335  0  3.293131  0  0  -0.252541  0  3.559875  0  0  -0.274358  0  3.580233  0  -1.228589  0  -0.333718  -0.237802  0  3.54617  0
N  N97  1  0.26165858  0.85429330  0.15568545  1  0  -0.338552  0  3.297347  0  0  -0.253113  0  3.564936  0  0  -0.274971  0  3.585438  0  -1.243477  0  -0.333771  -0.237716  0  3.549033  0
O  O98  1  0.85383701  0.47653579  0.60403316  1  0  -0.284851  0  2.29317  0  0  -0.214528  0  2.526062  0  0  -0.232916  0  2.527632  0  -1.090432  0  -0.177713  -0.202286  0  2.524293  0
O  O99  1  0.37716049  0.52348155  0.89623120  1  0  -0.283623  0  2.293698  0  0  -0.214705  0  2.526324  0  0  -0.233236  0  2.527931  0  -1.091801  0  -0.176917  -0.201299  0  2.524474  0
O  O100  1  0.14615673  0.52346036  0.39596875  1  0  -0.284846  0  2.293293  0  0  -0.214564  0  2.52618  0  0  -0.232938  0  2.527741  0  -1.090399  0  -0.177751  -0.202319  0  2.524411  0
O  O101  1  0.62284236  0.47651930  0.10376945  1  0  -0.28362  0  2.293765  0  0  -0.214736  0  2.526406  0  0  -0.233265  0  2.528017  0  -1.091666  0  -0.176894  -0.201329  0  2.524554  0
O  O102  1  0.46245415  0.20720289  0.70726071  1  0  -0.647888  0  1.977282  0  0  -0.58127  0  2.224294  0  0  -0.610295  0  2.213412  0  -1.15867  0  -0.344877  -0.560345  0  2.230617  0
O  O103  1  0.25528098  0.79294163  0.79310427  1  0  -0.647544  0  1.97507  0  0  -0.581021  0  2.22211  0  0  -0.610031  0  2.211125  0  -1.158738  0  -0.344783  -0.560554  0  2.22893  0
O  O104  1  0.53754853  0.79280033  0.29273846  1  0  -0.647901  0  1.977241  0  0  -0.581268  0  2.224232  0  0  -0.610299  0  2.213362  0  -1.158782  0  -0.344845  -0.560342  0  2.230554  0
O  O105  1  0.74472516  0.20706041  0.20690044  1  0  -0.647579  0  1.975137  0  0  -0.581021  0  2.222188  0  0  -0.610032  0  2.211201  0  -1.158575  0  -0.34478  -0.560555  0  2.229008  0
O  O106  1  0.21937693  0.98307387  0.64744733  1  0  -0.641932  0  1.943788  0  0  -0.585305  0  2.177289  0  0  -0.611811  0  2.169719  0  -1.175307  0  -0.333932  -0.566364  0  2.180857  0
O  O107  1  0.23603011  0.01703297  0.85280602  1  0  -0.640721  0  1.943967  0  0  -0.584098  0  2.176752  0  0  -0.61071  0  2.169216  0  -1.180362  0  -0.333252  -0.565844  0  2.181471  0
O  O108  1  0.78062668  0.01692582  0.35255491  1  0  -0.641912  0  1.943726  0  0  -0.585341  0  2.177293  0  0  -0.611847  0  2.169724  0  -1.175196  0  -0.333932  -0.5664  0  2.18086  0
O  O109  1  0.76397122  0.98297024  0.14719314  1  0  -0.640752  0  1.943913  0  0  -0.58409  0  2.17672  0  0  -0.610702  0  2.169183  0  -1.180314  0  -0.333228  -0.565838  0  2.181439  0
