# generated using pymatgen
data_AlH7C12O5
_symmetry_space_group_name_H-M   'P 1'
_cell_length_a   6.64190805
_cell_length_b   11.21369039
_cell_length_c   11.10702119
_cell_angle_alpha   82.39698461
_cell_angle_beta   73.54883651
_cell_angle_gamma   71.81475094
_symmetry_Int_Tables_number   1
_chemical_formula_structural   AlH7C12O5
_chemical_formula_sum   'Al2 H14 C24 O10'
_cell_volume   752.88352922
_cell_formula_units_Z   2
loop_
 _symmetry_equiv_pos_site_id
 _symmetry_equiv_pos_as_xyz
  1  'x, y, z'
loop_
 _atom_site_type_symbol
 _atom_site_label
 _atom_site_symmetry_multiplicity
 _atom_site_fract_x
 _atom_site_fract_y
 _atom_site_fract_z
 _atom_site_occupancy
 _atom_site_pbe_bader_charge
 _atom_site_pbe_bader_spin_density
 _atom_site_pbe_cm5_charge
 _atom_site_pbe_ddec_charge
 _atom_site_pbe_ddec_spin_density
 _atom_site_pbe_ddec_sum_bond_order
 _atom_site_pbe_magmom
Al  Al0  1  0.49911597  0.50058621  0.50102109  1  2.504489  0  0.395622  1.643065  0  2.582597  0
Al  Al1  1  0.99534543  0.50476661  0.50440043  1  2.50033  0  0.396946  1.637407  0  2.58382  0
H  H2  1  0.20949292  0.43699026  0.65299777  1  0.657655  0  0.345114  0.420258  0  0.880598  0
H  H3  1  0.69950451  0.65271540  0.43661117  1  0.660332  0  0.344727  0.418948  0  0.881771  0
H  H4  1  0.10387866  0.36395801  0.23179922  1  0.129728  0  0.108637  0.11505  0  1.044064  0
H  H5  1  0.98206314  0.23962234  0.11569513  1  0.06459  0  0.10265  0.098854  0  0.995527  0
H  H6  1  0.42560186  0.32172176  0.77214955  1  0.088379  0  0.106096  0.10756  0  1.033543  0
H  H7  1  0.15105470  0.21371264  0.88489009  1  0.068151  0  0.104303  0.101962  0  0.985826  0
H  H8  1  0.79148980  0.57772014  0.88977006  1  0.08962  0  0.112134  0.119129  0  0.983428  0
H  H9  1  0.67374450  0.57033919  0.12466034  1  0.108929  0  0.111534  0.118004  0  0.990855  0
H  H10  1  0.30217926  0.23110120  0.36369418  1  0.105066  0  0.108787  0.116256  0  1.04408  0
H  H11  1  0.66349190  0.11473953  0.23847907  1  0.06889  0  0.102606  0.098212  0  0.995076  0
H  H12  1  0.47940354  0.77192879  0.32079584  1  0.082439  0  0.106457  0.10784  0  1.033021  0
H  H13  1  0.74972260  0.88413044  0.21227861  1  0.070163  0  0.104425  0.102376  0  0.985365  0
H  H14  1  0.74082496  0.89025794  0.57807548  1  0.099783  0  0.11174  0.11789  0  0.983566  0
H  H15  1  0.63236784  0.12503181  0.57142841  1  0.090338  0  0.112033  0.119767  0  0.990323  0
C  C16  1  0.87556132  0.27599983  0.48902474  1  1.580468  0  0.269061  0.639911  0  4.091482  0
C  C17  1  0.64195184  0.49357056  0.73224815  1  1.540696  0  0.268794  0.650165  0  4.087657  0
C  C18  1  0.13121321  0.73223754  0.49306294  1  1.597199  0  0.267851  0.647657  0  4.087194  0
C  C19  1  0.36138274  0.48834065  0.27605926  1  1.582283  0  0.269402  0.638671  0  4.094799  0
C  C20  1  0.43275198  0.47683728  0.13670627  1  -0.046165  0  -0.0074  -0.08459  0  3.928444  0
C  C21  1  0.33916918  0.41531477  0.07046707  1  -0.009507  0  0.002855  0.060215  0  3.931104  0
C  C22  1  0.59966456  0.52865046  0.07173841  1  -0.079071  0  -0.078411  -0.090042  0  4.003069  0
C  C23  1  0.17546936  0.35470454  0.13156745  1  -0.045233  0  -0.088066  -0.128939  0  3.96461  0
C  C24  1  0.10688329  0.28552591  0.06592890  1  -0.081278  0  -0.089971  -0.074639  0  4.033293  0
C  C25  1  0.57886389  0.47562194  0.87208275  1  0.007847  0  -0.007894  -0.082651  0  3.932537  0
C  C26  1  0.66867536  0.53079486  0.94010536  1  0.031083  0  -0.080002  -0.091627  0  3.999858  0
C  C27  1  0.42259894  0.40929248  0.93585176  1  -0.02999  0  0.001241  0.064  0  3.93911  0
C  C28  1  0.35291145  0.33341154  0.87232299  1  -0.055771  0  -0.095311  -0.145272  0  3.99137  0
C  C29  1  0.20007601  0.27214715  0.93576850  1  -0.013569  0  -0.091392  -0.079526  0  4.045667  0
C  C30  1  0.95479319  0.13666594  0.47731098  1  -0.005451  0  -0.005897  -0.082459  0  3.923745  0
C  C31  1  0.17581981  0.07022214  0.41521755  1  -0.051505  0  0.002049  0.060695  0  3.92989  0
C  C32  1  0.80076727  0.07191053  0.52932050  1  -0.090485  0  -0.079584  -0.094381  0  4.004255  0
C  C33  1  0.33942512  0.13098157  0.35432680  1  0.029642  0  -0.088825  -0.131639  0  3.967072  0
C  C34  1  0.54233155  0.06517453  0.28466400  1  -0.054557  0  -0.089438  -0.071661  0  4.03329  0
C  C35  1  0.07316628  0.87209879  0.47537329  1  -0.02289  0  -0.006609  -0.080621  0  3.925674  0
C  C36  1  0.86052726  0.94036704  0.53106049  1  0.02947  0  -0.079447  -0.088605  0  3.998818  0
C  C37  1  0.23229386  0.93566111  0.40890328  1  -0.008523  0  0.000489  0.061122  0  3.93749  0
C  C38  1  0.44086291  0.87198581  0.33254848  1  -0.073664  0  -0.095878  -0.143879  0  3.991656  0
C  C39  1  0.59183579  0.93514601  0.27109697  1  -0.084928  0  -0.090919  -0.081293  0  4.044804  0
O  O40  1  0.67324922  0.32890522  0.49502625  1  -1.261753  0  -0.23359  -0.585968  0  2.348932  0
O  O41  1  0.83495978  0.50226348  0.68005227  1  -1.259998  0  -0.239507  -0.603798  0  2.333356  0
O  O42  1  0.98033716  0.68053777  0.50375643  1  -1.266982  0  -0.239359  -0.602463  0  2.331976  0
O  O43  1  0.50654351  0.49091604  0.32923503  1  -1.26038  0  -0.233209  -0.58346  0  2.346842  0
O  O44  1  0.32663554  0.67456056  0.49943263  1  -1.264525  0  -0.23576  -0.601446  0  2.38304  0
O  O45  1  0.16173840  0.49824022  0.33233054  1  -1.262918  0  -0.231203  -0.580082  0  2.376967  0
O  O46  1  0.01057822  0.33267682  0.49551929  1  -1.261412  0  -0.230131  -0.579347  0  2.379862  0
O  O47  1  0.49613271  0.50204349  0.67515121  1  -1.259773  0  -0.236472  -0.601997  0  2.380125  0
O  O48  1  0.24657959  0.44965019  0.56204316  1  -1.467885  0  -0.451076  -0.988468  0  2.195166  0
O  O49  1  0.74143993  0.56179335  0.44948956  1  -1.469356  0  -0.450203  -0.986162  0  2.19466  0
