# generated using pymatgen
data_AlH9C21N3(ClO2)3
_symmetry_space_group_name_H-M   'P 1'
_cell_length_a   3.97604566
_cell_length_b   27.93928127
_cell_length_c   27.94005698
_cell_angle_alpha   120.00024698
_cell_angle_beta   89.99996949
_cell_angle_gamma   90.00067010
_symmetry_Int_Tables_number   1
_chemical_formula_structural   AlH9C21N3(ClO2)3
_chemical_formula_sum   'Al2 H18 C42 N6 Cl6 O12'
_cell_volume   2687.96389535
_cell_formula_units_Z   2
loop_
 _symmetry_equiv_pos_site_id
 _symmetry_equiv_pos_as_xyz
  1  'x, y, z'
loop_
 _atom_site_type_symbol
 _atom_site_label
 _atom_site_symmetry_multiplicity
 _atom_site_fract_x
 _atom_site_fract_y
 _atom_site_fract_z
 _atom_site_occupancy
 _atom_site_pbe_bader_charge
 _atom_site_pbe_bader_spin_density
 _atom_site_pbe_cm5_charge
 _atom_site_pbe_ddec_charge
 _atom_site_pbe_ddec_spin_density
 _atom_site_pbe_ddec_sum_bond_order
 _atom_site_pbe_magmom
Al  Al0  1  0.01028110  0.49999574  0.50000053  1  2.506785  0  0.423918  1.600486  0  2.569202  0
Al  Al1  1  0.01028605  0.16667040  0.83333956  1  2.506974  0  0.423871  1.600225  0  2.5695  0
H  H2  1  0.46957496  0.17785015  0.68926515  1  0.134459  0  0.112426  0.118811  0  0.974849  0
H  H3  1  0.47968545  0.23217224  0.63984653  1  0.076511  0  0.109199  0.111612  0  1.010136  0
H  H4  1  0.51111956  0.38290256  0.79673935  1  0.105659  0  0.113286  0.130153  0  0.986098  0
H  H5  1  0.51113880  0.28376605  0.53659771  1  0.105744  0  0.113331  0.130261  0  0.986169  0
H  H6  1  0.47967626  0.43449318  0.69348861  1  0.076458  0  0.109193  0.111645  0  1.01006  0
H  H7  1  0.46955056  0.48881587  0.64406936  1  0.134519  0  0.112415  0.118834  0  0.974847  0
H  H8  1  0.46951467  0.01141149  0.82214952  1  0.064678  0  0.11241  0.118784  0  0.974855  0
H  H9  1  0.47963825  0.90766769  0.76782547  1  0.087958  0  0.109131  0.111536  0  1.010082  0
H  H10  1  0.51117785  0.91384364  0.61710479  1  0.110783  0  0.113236  0.130132  0  0.986006  0
H  H11  1  0.51114053  0.75282443  0.71622963  1  0.110748  0  0.113254  0.130131  0  0.986246  0
H  H12  1  0.47966275  0.75899742  0.56550894  1  0.087589  0  0.109178  0.111593  0  1.010051  0
H  H13  1  0.46953037  0.65525371  0.51118294  1  0.064681  0  0.112426  0.118809  0  0.974891  0
H  H14  1  0.46957966  0.31074202  0.98858871  1  0.074492  0  0.112411  0.118805  0  0.974765  0
H  H15  1  0.47968755  0.36015807  0.09233176  1  0.1464  0  0.109187  0.111647  0  1.010069  0
H  H16  1  0.51113679  0.20326061  0.08615598  1  0.11179  0  0.113271  0.130175  0  0.986429  0
H  H17  1  0.51116241  0.46340516  0.24717607  1  0.112607  0  0.113233  0.130081  0  0.986026  0
H  H18  1  0.47964960  0.30650557  0.24100232  1  0.146234  0  0.109151  0.111604  0  1.010001  0
H  H19  1  0.46955340  0.35592495  0.34474056  1  0.074486  0  0.112444  0.118828  0  0.97489  0
C  C20  1  0.50770368  0.46344172  0.41544454  1  1.621923  0  0.278685  0.67053  0  4.058903  0
C  C21  1  0.50770030  0.45199716  0.53654998  1  1.606873  0  0.278628  0.670458  0  4.059109  0
C  C22  1  0.50770086  0.58454705  0.54799711  1  1.62591  0  0.27871  0.67063  0  4.059235  0
C  C23  1  0.50769697  0.21466962  0.79678318  1  1.606542  0  0.278621  0.670628  0  4.059343  0
C  C24  1  0.50769642  0.08211812  0.78533981  1  1.625841  0  0.278693  0.670396  0  4.058763  0
C  C25  1  0.50771120  0.20322127  0.91788525  1  1.622033  0  0.278583  0.670221  0  4.059063  0
C  C26  1  0.50025144  0.24956470  0.77025069  1  0.129291  0  -0.005581  -0.083041  0  3.913025  0
C  C27  1  0.48275069  0.22287099  0.71222596  1  -0.087022  0  -0.074503  -0.066765  0  3.965616  0
C  C28  1  0.48732693  0.25259035  0.68474445  1  0.048172  0  -0.0817  -0.143226  0  3.952675  0
C  C29  1  0.50006557  0.31068148  0.71564403  1  0.218127  0  0.090347  0.186052  0  4.039934  0
C  C30  1  0.50844925  0.33790066  0.77349620  1  0.095821  0  -0.082227  -0.204891  0  3.929826  0
C  C31  1  0.51189351  0.30751464  0.80064292  1  -0.057379  0  0.022205  0.143898  0  4.023517  0
C  C32  1  0.50846461  0.32876328  0.55983909  1  0.095563  0  -0.082295  -0.205088  0  3.930043  0
C  C33  1  0.50007786  0.35598214  0.61769012  1  0.218171  0  0.090423  0.186141  0  4.04036  0
C  C34  1  0.48732383  0.41407215  0.64859149  1  0.047953  0  -0.081796  -0.143341  0  3.95271  0
C  C35  1  0.48273771  0.44379258  0.62111105  1  -0.087054  0  -0.074453  -0.066836  0  3.965437  0
C  C36  1  0.50024410  0.41709830  0.56308407  1  0.129091  0  -0.005551  -0.082855  0  3.912557  0
C  C37  1  0.51190156  0.35914827  0.53269340  1  -0.057124  0  0.022223  0.143924  0  4.023236  0
C  C38  1  0.50021664  0.02068693  0.75043733  1  0.051604  0  -0.005562  -0.082799  0  3.912905  0
C  C39  1  0.48269748  0.98935191  0.77712893  1  0.08686  0  -0.074395  -0.066855  0  3.965516  0
C  C40  1  0.48729268  0.93214976  0.74740843  1  -0.161076  0  -0.081733  -0.143115  0  3.952475  0
C  C41  1  0.50006822  0.90496148  0.68931852  1  0.470078  0  0.090381  0.186031  0  4.040045  0
C  C42  1  0.50846740  0.93559929  0.66210328  1  0.094248  0  -0.082266  -0.204925  0  3.929803  0
C  C43  1  0.51188520  0.99313105  0.69249062  1  -0.03066  0  0.022294  0.143848  0  4.023887  0
C  C44  1  0.50845869  0.73106767  0.67123294  1  0.094174  0  -0.08216  -0.204851  0  3.929966  0
C  C45  1  0.50006732  0.76170635  0.64401610  1  0.470197  0  0.090342  0.18605  0  4.040107  0
C  C46  1  0.48730995  0.73451701  0.58592721  1  -0.160649  0  -0.081736  -0.143158  0  3.952548  0
C  C47  1  0.48272769  0.67731291  0.55620435  1  0.086913  0  -0.074461  -0.066838  0  3.965631  0
C  C48  1  0.50024368  0.64597850  0.58289573  1  0.051514  0  -0.005529  -0.083013  0  3.912914  0
C  C49  1  0.51190198  0.67353730  0.64084781  1  -0.030494  0  0.022178  0.143878  0  4.023903  0
C  C50  1  0.50025498  0.22974878  0.97931660  1  0.116094  0  -0.005538  -0.082804  0  3.912432  0
C  C51  1  0.48275562  0.28777818  0.01065153  1  -0.094748  0  -0.074491  -0.066914  0  3.965318  0
C  C52  1  0.48733654  0.31525815  0.06785568  1  -0.033044  0  -0.081758  -0.143317  0  3.952681  0
C  C53  1  0.50008148  0.28435484  0.09504222  1  0.344196  0  0.090388  0.186238  0  4.040303  0
C  C54  1  0.50846433  0.22649994  0.06440324  1  -0.013917  0  -0.082159  -0.204933  0  3.930165  0
C  C55  1  0.51190145  0.19935475  0.00687509  1  0.064684  0  0.022267  0.143946  0  4.023812  0
C  C56  1  0.50847276  0.44016011  0.26893094  1  -0.014355  0  -0.082173  -0.204821  0  3.929695  0
C  C57  1  0.50007764  0.38230538  0.23829462  1  0.343581  0  0.090351  0.186246  0  4.039915  0
C  C58  1  0.48731734  0.35140481  0.26548556  1  -0.03239  0  -0.081683  -0.143247  0  3.95265  0
C  C59  1  0.48274343  0.37888592  0.32268424  1  -0.095189  0  -0.074498  -0.066928  0  3.965938  0
C  C60  1  0.50025313  0.43691277  0.35401961  1  0.115653  0  -0.005464  -0.082614  0  3.91303  0
C  C61  1  0.51191182  0.46730539  0.32646331  1  0.064987  0  0.022159  0.143639  0  4.023772  0
N  N62  1  0.50133221  0.34584756  0.69283837  1  -0.531213  0  -0.147359  -0.133336  0  3.266403  0
N  N63  1  0.50135395  0.32081797  0.64049314  1  -0.381441  0  -0.147288  -0.133115  0  3.266473  0
N  N64  1  0.50135107  0.84699241  0.65415237  1  -0.579188  0  -0.147344  -0.133277  0  3.266503  0
N  N65  1  0.50133474  0.81967415  0.67918138  1  -0.447056  0  -0.147341  -0.133221  0  3.266508  0
N  N66  1  0.50134734  0.30715578  0.15300536  1  -0.395917  0  -0.14738  -0.133277  0  3.266325  0
N  N67  1  0.50133941  0.35950418  0.18032460  1  -0.530063  0  -0.147353  -0.133397  0  3.266168  0
Cl  Cl68  1  0.51278512  0.34286364  0.87205980  1  -0.164513  0  -0.010375  -0.077406  0  1.496589  0
Cl  Cl69  1  0.51280068  0.32380098  0.46127410  1  -0.164225  0  -0.010376  -0.077443  0  1.496425  0
Cl  Cl70  1  0.51282278  0.02920607  0.65714663  1  -0.218247  0  -0.010454  -0.077468  0  1.496611  0
Cl  Cl71  1  0.51279822  0.63746384  0.67618842  1  -0.218248  0  -0.010342  -0.077363  0  1.496858  0
Cl  Cl72  1  0.51279581  0.12794548  0.97080138  1  -0.216228  0  -0.010378  -0.077421  0  1.497104  0
Cl  Cl73  1  0.51281764  0.53872530  0.36253495  1  -0.216215  0  -0.010446  -0.077461  0  1.49663  0
O  O74  1  0.74756370  0.55894677  0.55554216  1  -1.248753  0  -0.231542  -0.593862  0  2.399826  0
O  O75  1  0.74756141  0.49658715  0.44104936  1  -1.24945  0  -0.231495  -0.593816  0  2.399495  0
O  O76  1  0.74756906  0.44445099  0.50340655  1  -1.245362  0  -0.231511  -0.593851  0  2.399648  0
O  O77  1  0.27613075  0.56216942  0.51190784  1  -1.25565  0  -0.234258  -0.592237  0  2.359754  0
O  O78  1  0.27612246  0.48808811  0.55026464  1  -1.239547  0  -0.23415  -0.592063  0  2.35975  0
O  O79  1  0.27613879  0.44972999  0.43782362  1  -1.245231  0  -0.234266  -0.592242  0  2.359583  0
O  O80  1  0.74757382  0.17007508  0.89228767  1  -1.249704  0  -0.231431  -0.593589  0  2.399596  0
O  O81  1  0.74756114  0.22221280  0.82992749  1  -1.245244  0  -0.231519  -0.593971  0  2.399737  0
O  O82  1  0.74756147  0.10771859  0.77779675  1  -1.248598  0  -0.231472  -0.593666  0  2.399591  0
O  O83  1  0.27612497  0.21693541  0.89551090  1  -1.245207  0  -0.234155  -0.59201  0  2.359651  0
O  O84  1  0.27612044  0.10449498  0.82142982  1  -1.255713  0  -0.234291  -0.592114  0  2.35939  0
O  O85  1  0.27614130  0.17857682  0.78307106  1  -1.239533  0  -0.234209  -0.592124  0  2.359883  0
