# generated using pymatgen
data_TlH9C12N2(ClO2)2
_symmetry_space_group_name_H-M   'P 1'
_cell_length_a   7.92119224
_cell_length_b   12.82879689
_cell_length_c   14.65866030
_cell_angle_alpha   92.98110254
_cell_angle_beta   89.99979696
_cell_angle_gamma   90.00011756
_symmetry_Int_Tables_number   1
_chemical_formula_structural   TlH9C12N2(ClO2)2
_chemical_formula_sum   'Tl4 H36 C48 N8 Cl8 O16'
_cell_volume   1487.58795321
_cell_formula_units_Z   4
loop_
 _symmetry_equiv_pos_site_id
 _symmetry_equiv_pos_as_xyz
  1  'x, y, z'
loop_
 _atom_site_type_symbol
 _atom_site_label
 _atom_site_symmetry_multiplicity
 _atom_site_fract_x
 _atom_site_fract_y
 _atom_site_fract_z
 _atom_site_occupancy
 _atom_site_hle17_bader_spin_density
 _atom_site_hle17_ddec_charge
 _atom_site_hle17_ddec_spin_density
 _atom_site_hle17_ddec_sum_bond_order
 _atom_site_hle17_magmom
 _atom_site_hse06_10hf_bader_spin_density
 _atom_site_hse06_10hf_ddec_charge
 _atom_site_hse06_10hf_ddec_spin_density
 _atom_site_hse06_10hf_ddec_sum_bond_order
 _atom_site_hse06_10hf_magmom
 _atom_site_hse06_bader_spin_density
 _atom_site_hse06_ddec_charge
 _atom_site_hse06_ddec_spin_density
 _atom_site_hse06_ddec_sum_bond_order
 _atom_site_hse06_magmom
 _atom_site_pbe_bader_spin_density
 _atom_site_pbe_cm5_charge
 _atom_site_pbe_ddec_charge
 _atom_site_pbe_ddec_spin_density
 _atom_site_pbe_ddec_sum_bond_order
 _atom_site_pbe_magmom
Tl  Tl0  1  0.93767027  0.51918968  0.78658578  1  0  1.239821  0  2.250089  0  0  1.114763  0  2.714097  0  0  1.180181  0  2.682132  0  0  0.587067  1.070572  0  2.735094  0
Tl  Tl1  1  0.56233111  0.01918717  0.28658652  1  0  1.239845  0  2.250048  0  0  1.114799  0  2.714053  0  0  1.180219  0  2.682087  0  0  0.587099  1.070612  0  2.735048  0
Tl  Tl2  1  0.06232532  0.48081081  0.21341367  1  0  1.239869  0  2.249991  0  0  1.114818  0  2.713987  0  0  1.180237  0  2.682022  0  0  0.587081  1.070629  0  2.734982  0
Tl  Tl3  1  0.43766700  0.98081098  0.71341215  1  0  1.239889  0  2.249985  0  0  1.114835  0  2.71398  0  0  1.180256  0  2.682014  0  0  0.587109  1.070647  0  2.734974  0
H  H4  1  0.87820547  0.42866517  0.43530234  1  0  0.124288  0  0.947928  0  0  0.126517  0  1.018611  0  0  0.130761  0  1.013807  0  0  0.13098  0.123374  0  1.022081  0
H  H5  1  0.62179378  0.92866729  0.93529809  1  0  0.124315  0  0.947856  0  0  0.126528  0  1.018559  0  0  0.130775  0  1.013751  0  0  0.130983  0.123385  0  1.022029  0
H  H6  1  0.12179138  0.57133377  0.56469977  1  0  0.12436  0  0.94775  0  0  0.126583  0  1.018452  0  0  0.130832  0  1.01364  0  0  0.131012  0.12344  0  1.021923  0
H  H7  1  0.37820939  0.07133475  0.06470005  1  0  0.124358  0  0.947781  0  0  0.126569  0  1.018502  0  0  0.130815  0  1.013695  0  0  0.13101  0.123425  0  1.021973  0
H  H8  1  0.69658921  0.38720852  0.31227598  1  0  0.315502  0  0.901743  0  0  0.288819  0  0.972686  0  0  0.298285  0  0.965122  0  0  0.314946  0.28213  0  0.978074  0
H  H9  1  0.80341071  0.88721009  0.81227340  1  0  0.315533  0  0.901724  0  0  0.288821  0  0.972676  0  0  0.298285  0  0.965111  0  0  0.314942  0.282132  0  0.978066  0
H  H10  1  0.30340764  0.61279198  0.68772552  1  0  0.31554  0  0.901727  0  0  0.288833  0  0.972676  0  0  0.298298  0  0.965111  0  0  0.314943  0.282145  0  0.978065  0
H  H11  1  0.19659119  0.11279118  0.18772539  1  0  0.315526  0  0.901728  0  0  0.288821  0  0.972669  0  0  0.298287  0  0.965104  0  0  0.314957  0.282133  0  0.978058  0
H  H12  1  0.41860692  0.32734404  0.32446281  1  0  0.099375  0  0.963297  0  0  0.10059  0  1.039175  0  0  0.103963  0  1.034924  0  0  0.117731  0.098023  0  1.04239  0
H  H13  1  0.08139173  0.82734691  0.82446072  1  0  0.099453  0  0.963241  0  0  0.100628  0  1.03915  0  0  0.104004  0  1.034894  0  0  0.117734  0.098056  0  1.042359  0
H  H14  1  0.58139119  0.67265490  0.67553794  1  0  0.09944  0  0.963221  0  0  0.100604  0  1.039153  0  0  0.10398  0  1.034898  0  0  0.117727  0.098034  0  1.042365  0
H  H15  1  0.91860891  0.17265436  0.17553876  1  0  0.099413  0  0.963225  0  0  0.100589  0  1.039173  0  0  0.103964  0  1.034918  0  0  0.117734  0.09802  0  1.042385  0
H  H16  1  0.28683457  0.31893887  0.47954007  1  0  0.127153  0  0.927697  0  0  0.136182  0  0.983445  0  0  0.139419  0  0.982957  0  0  0.118813  0.133853  0  0.984009  0
H  H17  1  0.21316178  0.81894189  0.97953704  1  0  0.127213  0  0.927704  0  0  0.136262  0  0.983433  0  0  0.1395  0  0.982942  0  0  0.118832  0.133932  0  0.983998  0
H  H18  1  0.71316354  0.68105851  0.52046130  1  0  0.12718  0  0.927706  0  0  0.136258  0  0.983404  0  0  0.139496  0  0.982913  0  0  0.118831  0.133928  0  0.98397  0
H  H19  1  0.78683760  0.18105860  0.02046172  1  0  0.127203  0  0.927724  0  0  0.136251  0  0.983446  0  0  0.139489  0  0.982957  0  0  0.11883  0.133922  0  0.98401  0
H  H20  1  0.46489957  0.36986011  0.61816521  1  0  0.127983  0  0.911541  0  0  0.140518  0  0.962772  0  0  0.143807  0  0.959331  0  0  0.119696  0.138026  0  0.965377  0
H  H21  1  0.03509679  0.86985815  0.11816499  1  0  0.128004  0  0.911462  0  0  0.140528  0  0.9627  0  0  0.143822  0  0.959261  0  0  0.119703  0.138035  0  0.965306  0
H  H22  1  0.53509854  0.63013961  0.38183626  1  0  0.128015  0  0.911532  0  0  0.140542  0  0.962759  0  0  0.143831  0  0.959319  0  0  0.119718  0.13805  0  0.965365  0
H  H23  1  0.96490132  0.13014312  0.88183517  1  0  0.128007  0  0.91148  0  0  0.140538  0  0.962718  0  0  0.143827  0  0.959277  0  0  0.119713  0.138045  0  0.965324  0
H  H24  1  0.54550835  0.53097911  0.79106718  1  0  0.104697  0  0.966186  0  0  0.110494  0  1.034033  0  0  0.114457  0  1.029373  0  0  0.123293  0.107545  0  1.037469  0
H  H25  1  0.95449430  0.03097942  0.29107071  1  0  0.104681  0  0.96621  0  0  0.1105  0  1.034043  0  0  0.114464  0  1.029381  0  0  0.123285  0.107548  0  1.037489  0
H  H26  1  0.45448976  0.46901981  0.20893152  1  0  0.104698  0  0.966166  0  0  0.110518  0  1.033996  0  0  0.114481  0  1.029335  0  0  0.123307  0.107566  0  1.037436  0
H  H27  1  0.04550760  0.96902031  0.70893144  1  0  0.104703  0  0.966156  0  0  0.110514  0  1.033996  0  0  0.114478  0  1.029336  0  0  0.123297  0.107562  0  1.037439  0
H  H28  1  0.87492793  0.62473404  0.99954556  1  0  0.099147  0  0.967528  0  0  0.104154  0  1.038879  0  0  0.107148  0  1.035431  0  0  0.114439  0.101945  0  1.041343  0
H  H29  1  0.62506988  0.12473395  0.49954697  1  0  0.099134  0  0.96754  0  0  0.104136  0  1.038907  0  0  0.107131  0  1.035458  0  0  0.114431  0.101927  0  1.041369  0
H  H30  1  0.12507271  0.37526566  0.00045181  1  0  0.099145  0  0.967535  0  0  0.104154  0  1.038893  0  0  0.107148  0  1.035446  0  0  0.114435  0.101946  0  1.041356  0
H  H31  1  0.37493076  0.87526733  0.50045456  1  0  0.099175  0  0.967581  0  0  0.104142  0  1.038987  0  0  0.107137  0  1.035538  0  0  0.114439  0.101933  0  1.041449  0
H  H32  1  0.63646308  0.68411171  0.10120741  1  0  0.121214  0  0.926994  0  0  0.132283  0  0.979719  0  0  0.135535  0  0.97927  0  0  0.114741  0.129951  0  0.980253  0
H  H33  1  0.86353501  0.18411122  0.60121045  1  0  0.121255  0  0.926997  0  0  0.132344  0  0.979698  0  0  0.135597  0  0.979249  0  0  0.114748  0.13001  0  0.980231  0
H  H34  1  0.36354008  0.31588722  0.89879197  1  0  0.121226  0  0.927001  0  0  0.132311  0  0.97971  0  0  0.135565  0  0.979259  0  0  0.114747  0.129979  0  0.980244  0
H  H35  1  0.13646941  0.81588538  0.39879157  1  0  0.121335  0  0.926897  0  0  0.132412  0  0.979604  0  0  0.135664  0  0.979156  0  0  0.114796  0.130081  0  0.980138  0
H  H36  1  0.33684294  0.66328346  0.04275854  1  0  0.111028  0  0.933745  0  0  0.11933  0  0.997919  0  0  0.122499  0  0.994639  0  0  0.113172  0.116993  0  1.000293  0
H  H37  1  0.16315575  0.16328432  0.54276406  1  0  0.110966  0  0.933748  0  0  0.119276  0  0.99794  0  0  0.122445  0  0.99466  0  0  0.113121  0.116936  0  1.000316  0
H  H38  1  0.66315897  0.33671547  0.95724152  1  0  0.111017  0  0.93372  0  0  0.119321  0  0.997899  0  0  0.12249  0  0.99462  0  0  0.113164  0.116969  0  1.000289  0
H  H39  1  0.83684867  0.83671151  0.45723860  1  0  0.110996  0  0.933673  0  0  0.119299  0  0.997867  0  0  0.122467  0  0.99459  0  0  0.113157  0.116963  0  1.000242  0
C  C40  1  0.79206003  0.43537562  0.61839244  1  0  0.628908  0  3.957517  0  0  0.578766  0  4.255059  0  0  0.614149  0  4.250543  0  0  0.204941  0.555  0  4.257066  0
C  C41  1  0.70793501  0.93537542  0.11839060  1  0  0.628909  0  3.9574  0  0  0.57874  0  4.25498  0  0  0.614122  0  4.250463  0  0  0.204946  0.554975  0  4.256988  0
C  C42  1  0.20793809  0.56462409  0.38160698  1  0  0.628903  0  3.957488  0  0  0.578741  0  4.255057  0  0  0.614122  0  4.250544  0  0  0.20493  0.554974  0  4.257065  0
C  C43  1  0.29206184  0.06462585  0.88160820  1  0  0.628857  0  3.95751  0  0  0.578697  0  4.255068  0  0  0.614079  0  4.250553  0  0  0.204921  0.554932  0  4.257077  0
C  C44  1  0.68486425  0.40058683  0.53778250  1  0  -0.10064  0  3.722865  0  0  -0.072393  0  3.959142  0  0  -0.086823  0  3.983698  0  0  0.000643  -0.063547  0  3.943037  0
C  C45  1  0.81512994  0.90058675  0.03777910  1  0  -0.100729  0  3.723021  0  0  -0.072475  0  3.959325  0  0  -0.086905  0  3.983882  0  0  0.000582  -0.063633  0  3.943228  0
C  C46  1  0.31513134  0.59941366  0.46221831  1  0  -0.100702  0  3.722944  0  0  -0.072448  0  3.959228  0  0  -0.086877  0  3.983784  0  0  0.000625  -0.063601  0  3.943125  0
C  C47  1  0.18486944  0.09941529  0.96221836  1  0  -0.100722  0  3.723046  0  0  -0.072462  0  3.959334  0  0  -0.086892  0  3.98389  0  0  0.000591  -0.063618  0  3.943234  0
C  C48  1  0.75003150  0.40346610  0.44990841  1  0  0.144029  0  3.556209  0  0  0.09413  0  3.80223  0  0  0.104739  0  3.81627  0  0  0.080458  0.087414  0  3.792858  0
C  C49  1  0.74996884  0.90346759  0.94990457  1  0  0.144084  0  3.55643  0  0  0.094157  0  3.802429  0  0  0.104764  0  3.816469  0  0  0.080495  0.087443  0  3.793059  0
C  C50  1  0.24996662  0.59653361  0.55009169  1  0  0.143987  0  3.556204  0  0  0.094039  0  3.802223  0  0  0.104645  0  3.816264  0  0  0.080394  0.087325  0  3.792852  0
C  C51  1  0.25003433  0.09653444  0.05009221  1  0  0.143979  0  3.556188  0  0  0.094034  0  3.80221  0  0  0.104641  0  3.816251  0  0  0.080412  0.087319  0  3.792838  0
C  C52  1  0.48796374  0.34715102  0.38690747  1  0  0.16644  0  3.591895  0  0  0.118427  0  3.854225  0  0  0.129429  0  3.867705  0  0  0.074818  0.111328  0  3.845246  0
C  C53  1  0.01203458  0.84715535  0.88690284  1  0  0.166433  0  3.592087  0  0  0.118467  0  3.854316  0  0  0.129472  0  3.867789  0  0  0.074893  0.111381  0  3.845327  0
C  C54  1  0.51203564  0.65284714  0.61309393  1  0  0.166379  0  3.592036  0  0  0.118404  0  3.854304  0  0  0.129405  0  3.867783  0  0  0.074847  0.111314  0  3.845318  0
C  C55  1  0.98796606  0.15284668  0.11309395  1  0  0.166473  0  3.592061  0  0  0.118424  0  3.854389  0  0  0.12943  0  3.867862  0  0  0.074856  0.111328  0  3.845408  0
C  C56  1  0.41802953  0.34247416  0.47318142  1  0  -0.099377  0  3.684599  0  0  -0.111522  0  3.945489  0  0  -0.121017  0  3.966212  0  0  -0.065433  -0.10573  0  3.931847  0
C  C57  1  0.08196947  0.84247311  0.97317779  1  0  -0.099567  0  3.684839  0  0  -0.111771  0  3.945733  0  0  -0.121268  0  3.966458  0  0  -0.065549  -0.105982  0  3.932094  0
C  C58  1  0.58197111  0.65752479  0.52682070  1  0  -0.099389  0  3.684825  0  0  -0.111614  0  3.945718  0  0  -0.121111  0  3.966442  0  0  -0.065484  -0.105826  0  3.932084  0
C  C59  1  0.91803117  0.15752582  0.02682159  1  0  -0.09948  0  3.684957  0  0  -0.111642  0  3.94585  0  0  -0.121139  0  3.966574  0  0  -0.065501  -0.105851  0  3.932214  0
C  C60  1  0.51647158  0.37038326  0.54931770  1  0  0.025473  0  3.623875  0  0  -0.009666  0  3.875613  0  0  -0.001077  0  3.890109  0  0  -0.042889  -0.014844  0  3.865712  0
C  C61  1  0.98352622  0.87038492  0.04931336  1  0  0.025588  0  3.6238  0  0  -0.009521  0  3.875524  0  0  -0.000942  0  3.890034  0  0  -0.042817  -0.014699  0  3.865626  0
C  C62  1  0.48352906  0.62961647  0.45068445  1  0  0.025518  0  3.623851  0  0  -0.009591  0  3.875572  0  0  -0.001001  0  3.890067  0  0  -0.042838  -0.014767  0  3.865668  0
C  C63  1  0.01647316  0.12961712  0.95068478  1  0  0.025543  0  3.623885  0  0  -0.009581  0  3.875608  0  0  -0.000992  0  3.890105  0  0  -0.042826  -0.01476  0  3.865706  0
C  C64  1  0.24887101  0.58070827  0.87016851  1  0  0.634835  0  3.919191  0  0  0.582421  0  4.216531  0  0  0.61753  0  4.212174  0  0  0.210057  0.558777  0  4.218534  0
C  C65  1  0.25113410  0.08070912  0.37017245  1  0  0.634937  0  3.9191  0  0  0.5825  0  4.216445  0  0  0.61761  0  4.212084  0  0  0.210047  0.558852  0  4.218453  0
C  C66  1  0.75112710  0.41929224  0.12983366  1  0  0.63503  0  3.918988  0  0  0.5826  0  4.216335  0  0  0.617711  0  4.211977  0  0  0.210125  0.558949  0  4.218342  0
C  C67  1  0.74887033  0.91929060  0.62982833  1  0  0.635082  0  3.919221  0  0  0.582595  0  4.21662  0  0  0.617707  0  4.212257  0  0  0.210011  0.558943  0  4.218633  0
C  C68  1  0.41999414  0.59831581  0.91118064  1  0  -0.105212  0  3.752785  0  0  -0.074267  0  3.982374  0  0  -0.087948  0  4.005878  0  0  -0.010985  -0.065737  0  3.96674  0
C  C69  1  0.08000824  0.09831569  0.41118555  1  0  -0.105334  0  3.75272  0  0  -0.074318  0  3.982264  0  0  -0.08801  0  4.005782  0  0  -0.010865  -0.065778  0  3.966623  0
C  C70  1  0.58000650  0.40168468  0.08881949  1  0  -0.105484  0  3.753077  0  0  -0.074486  0  3.982614  0  0  -0.08818  0  4.006136  0  0  -0.011002  -0.065943  0  3.966972  0
C  C71  1  0.91999493  0.90168247  0.58881517  1  0  -0.105408  0  3.75287  0  0  -0.074405  0  3.982417  0  0  -0.088096  0  4.005934  0  0  -0.010889  -0.065862  0  3.96678  0
C  C72  1  0.56048068  0.56718647  0.85934022  1  0  0.117931  0  3.673514  0  0  0.073783  0  3.924839  0  0  0.083721  0  3.941226  0  0  0.056477  0.067579  0  3.913638  0
C  C73  1  0.93952165  0.06718598  0.35934374  1  0  0.117994  0  3.673467  0  0  0.073828  0  3.924763  0  0  0.083766  0  3.941153  0  0  0.056448  0.067618  0  3.913564  0
C  C74  1  0.43951996  0.43281323  0.14065851  1  0  0.118021  0  3.673581  0  0  0.073832  0  3.92489  0  0  0.083773  0  3.941279  0  0  0.056428  0.067622  0  3.913689  0
C  C75  1  0.06048278  0.93281297  0.64065769  1  0  0.117997  0  3.673557  0  0  0.073854  0  3.924833  0  0  0.083793  0  3.941222  0  0  0.056462  0.067642  0  3.913634  0
C  C76  1  0.74438326  0.61933154  0.97626949  1  0  0.138381  0  3.656183  0  0  0.098499  0  3.918757  0  0  0.108241  0  3.936831  0  0  0.056815  0.092384  0  3.906347  0
C  C77  1  0.75561722  0.11933082  0.47627131  1  0  0.138506  0  3.656126  0  0  0.098627  0  3.918692  0  0  0.108371  0  3.936762  0  0  0.056877  0.092511  0  3.906281  0
C  C78  1  0.25561738  0.38066816  0.02372856  1  0  0.138474  0  3.656195  0  0  0.098576  0  3.91878  0  0  0.108319  0  3.936851  0  0  0.056869  0.09246  0  3.906371  0
C  C79  1  0.24438847  0.88066968  0.52372951  1  0  0.138329  0  3.656147  0  0  0.098471  0  3.918756  0  0  0.108213  0  3.936827  0  0  0.056746  0.092356  0  3.906345  0
C  C80  1  0.61012631  0.65203261  0.03233817  1  0  -0.114261  0  3.699643  0  0  -0.12344  0  3.953035  0  0  -0.133134  0  3.975469  0  0  -0.075331  -0.117347  0  3.937905  0
C  C81  1  0.88987592  0.15203450  0.53234262  1  0  -0.114391  0  3.699715  0  0  -0.123567  0  3.953121  0  0  -0.133262  0  3.975554  0  0  -0.075329  -0.117472  0  3.937987  0
C  C82  1  0.38987433  0.34796631  0.96765917  1  0  -0.114324  0  3.699624  0  0  -0.123515  0  3.953033  0  0  -0.133208  0  3.975466  0  0  -0.075365  -0.11742  0  3.937898  0
C  C83  1  0.11012851  0.84796289  0.46766148  1  0  -0.114392  0  3.699614  0  0  -0.123573  0  3.953013  0  0  -0.133266  0  3.975444  0  0  -0.075297  -0.117479  0  3.937885  0
C  C84  1  0.44510630  0.64101197  0.99995331  1  0  0.006691  0  3.64891  0  0  -0.023987  0  3.895354  0  0  -0.016743  0  3.911193  0  0  -0.050567  -0.028245  0  3.884363  0
C  C85  1  0.05489185  0.14101416  0.49995836  1  0  0.006825  0  3.6489  0  0  -0.023914  0  3.895385  0  0  -0.016668  0  3.911226  0  0  -0.05062  -0.028175  0  3.884396  0
C  C86  1  0.55489308  0.35898774  0.00004542  1  0  0.006794  0  3.648809  0  0  -0.023909  0  3.895259  0  0  -0.016664  0  3.911101  0  0  -0.050562  -0.028162  0  3.884281  0
C  C87  1  0.94511131  0.85898401  0.50004441  1  0  0.006794  0  3.648868  0  0  -0.023909  0  3.895324  0  0  -0.016666  0  3.911167  0  0  -0.050644  -0.028177  0  3.884342  0
N  N88  1  0.64983465  0.37769003  0.37802404  1  0  -0.210631  0  3.462946  0  0  -0.135138  0  3.690219  0  0  -0.151765  0  3.705238  0  0  -0.332767  -0.124264  0  3.680057  0
N  N89  1  0.85016354  0.87769321  0.87802076  1  0  -0.21075  0  3.4633  0  0  -0.135167  0  3.690437  0  0  -0.151793  0  3.705459  0  0  -0.332811  -0.124294  0  3.680273  0
N  N90  1  0.35016220  0.62230812  0.62197668  1  0  -0.210736  0  3.463091  0  0  -0.135142  0  3.690242  0  0  -0.151767  0  3.70526  0  0  -0.332763  -0.12427  0  3.680082  0
N  N91  1  0.14983710  0.12230962  0.12197810  1  0  -0.210713  0  3.46306  0  0  -0.135084  0  3.69021  0  0  -0.151709  0  3.705228  0  0  -0.332777  -0.124209  0  3.680051  0
N  N92  1  0.71815004  0.57738065  0.89131551  1  0  -0.309947  0  3.272871  0  0  -0.235254  0  3.539553  0  0  -0.258936  0  3.563956  0  0  -0.296845  -0.219593  0  3.522685  0
N  N93  1  0.78185085  0.07737919  0.39131792  1  0  -0.310037  0  3.272901  0  0  -0.235361  0  3.539614  0  0  -0.259043  0  3.564013  0  0  -0.296856  -0.2197  0  3.522748  0
N  N94  1  0.28184934  0.42261906  0.10868391  1  0  -0.31006  0  3.272858  0  0  -0.23535  0  3.539543  0  0  -0.259033  0  3.563945  0  0  -0.296849  -0.219687  0  3.522675  0
N  N95  1  0.21814979  0.92261977  0.60868556  1  0  -0.30992  0  3.272831  0  0  -0.235257  0  3.53953  0  0  -0.258939  0  3.56393  0  0  -0.296799  -0.219595  0  3.522661  0
Cl  Cl96  1  0.97861946  0.33869647  0.83411875  1  0  -0.464831  0  0.814411  0  0  -0.438853  0  1.035282  0  0  -0.448801  0  1.018572  0  0  -0.237328  -0.432491  0  1.046936  0
Cl  Cl97  1  0.52138015  0.83869608  0.33412272  1  0  -0.464818  0  0.81442  0  0  -0.43883  0  1.035291  0  0  -0.448778  0  1.018579  0  0  -0.237312  -0.432469  0  1.046947  0
Cl  Cl98  1  0.02137992  0.66130713  0.16587810  1  0  -0.46485  0  0.814356  0  0  -0.438872  0  1.035217  0  0  -0.44882  0  1.018507  0  0  -0.23734  -0.43251  0  1.046874  0
Cl  Cl99  1  0.47861922  0.16130519  0.66587676  1  0  -0.464837  0  0.814383  0  0  -0.438851  0  1.035253  0  0  -0.4488  0  1.018542  0  0  -0.237326  -0.432489  0  1.046908  0
Cl  Cl100  1  0.92272358  0.68792466  0.70447980  1  0  -0.497871  0  0.862163  0  0  -0.470127  0  1.113124  0  0  -0.482405  0  1.099834  0  0  -0.246181  -0.461828  0  1.122326  0
Cl  Cl101  1  0.57728396  0.18792374  0.20448263  1  0  -0.497888  0  0.862152  0  0  -0.470151  0  1.113125  0  0  -0.482431  0  1.099835  0  0  -0.24621  -0.461853  0  1.122326  0
Cl  Cl102  1  0.07727580  0.31207507  0.29552303  1  0  -0.497876  0  0.862126  0  0  -0.470133  0  1.113077  0  0  -0.482411  0  1.099788  0  0  -0.246179  -0.461841  0  1.12229  0
Cl  Cl103  1  0.42272047  0.81207441  0.79551604  1  0  -0.497889  0  0.862154  0  0  -0.470159  0  1.113135  0  0  -0.482438  0  1.099846  0  0  -0.246204  -0.46186  0  1.122331  0
O  O104  1  0.94975476  0.44113523  0.61009582  1  0  -0.600768  0  1.906782  0  0  -0.555569  0  2.12411  0  0  -0.583014  0  2.117726  0  0  -0.303781  -0.536292  0  2.127603  0
O  O105  1  0.55024035  0.94113563  0.11009362  1  0  -0.600798  0  1.90669  0  0  -0.5556  0  2.124057  0  0  -0.583038  0  2.117659  0  0  -0.303806  -0.536324  0  2.127551  0
O  O106  1  0.05024336  0.55886603  0.38990298  1  0  -0.600737  0  1.906745  0  0  -0.555539  0  2.124095  0  0  -0.582979  0  2.117705  0  0  -0.303779  -0.536262  0  2.127588  0
O  O107  1  0.44975777  0.05886484  0.88990241  1  0  -0.600734  0  1.906678  0  0  -0.555539  0  2.124034  0  0  -0.582978  0  2.117637  0  0  -0.303763  -0.536264  0  2.127529  0
O  O108  1  0.70909378  0.45962605  0.69168211  1  0  -0.613565  0  2.013082  0  0  -0.560824  0  2.254356  0  0  -0.593126  0  2.250147  0  0  -0.295843  -0.538351  0  2.25627  0
O  O109  1  0.79090338  0.95962516  0.19167941  1  0  -0.613536  0  2.01308  0  0  -0.560778  0  2.254352  0  0  -0.593082  0  2.250148  0  0  -0.29582  -0.538301  0  2.256265  0
O  O110  1  0.29090433  0.54037289  0.30831864  1  0  -0.613591  0  2.013088  0  0  -0.560851  0  2.254377  0  0  -0.593154  0  2.25017  0  0  -0.295849  -0.538376  0  2.256291  0
O  O111  1  0.20909600  0.04037533  0.80831936  1  0  -0.613565  0  2.013143  0  0  -0.56081  0  2.25442  0  0  -0.593114  0  2.250213  0  0  -0.295857  -0.538335  0  2.256333  0
O  O112  1  0.11936133  0.59428041  0.91930561  1  0  -0.582915  0  1.96161  0  0  -0.536225  0  2.203308  0  0  -0.565729  0  2.200041  0  0  -0.282238  -0.515716  0  2.204749  0
O  O113  1  0.38063972  0.09428141  0.41930998  1  0  -0.582963  0  1.961593  0  0  -0.536288  0  2.203325  0  0  -0.56579  0  2.20005  0  0  -0.282259  -0.515779  0  2.204769  0
O  O114  1  0.88063805  0.40572166  0.08069663  1  0  -0.583019  0  1.961484  0  0  -0.536339  0  2.203215  0  0  -0.565843  0  2.199942  0  0  -0.282308  -0.515829  0  2.204659  0
O  O115  1  0.61936471  0.90571518  0.58069067  1  0  -0.58302  0  1.961654  0  0  -0.536303  0  2.203376  0  0  -0.565808  0  2.200104  0  0  -0.282246  -0.515792  0  2.20482  0
O  O116  1  0.24168040  0.54839080  0.78534923  1  0  -0.632879  0  2.011356  0  0  -0.572393  0  2.244829  0  0  -0.603334  0  2.23878  0  0  -0.298902  -0.550888  0  2.248134  0
O  O117  1  0.25832137  0.04839400  0.28535256  1  0  -0.632862  0  2.0113  0  0  -0.572396  0  2.244833  0  0  -0.603337  0  2.238781  0  0  -0.298923  -0.550891  0  2.248142  0
O  O118  1  0.75831519  0.45161282  0.21465171  1  0  -0.63284  0  2.011147  0  0  -0.572362  0  2.24465  0  0  -0.603299  0  2.238596  0  0  -0.298869  -0.550856  0  2.247957  0
O  O119  1  0.74167801  0.95161117  0.71464639  1  0  -0.632967  0  2.011386  0  0  -0.572472  0  2.244931  0  0  -0.603411  0  2.238875  0  0  -0.298894  -0.550967  0  2.24824  0
