# generated using pymatgen
data_H7AuC6NCl
_symmetry_space_group_name_H-M   'P 1'
_cell_length_a   8.23156966
_cell_length_b   8.23157971
_cell_length_c   12.32945452
_cell_angle_alpha   92.74028153
_cell_angle_beta   92.74049150
_cell_angle_gamma   118.29728703
_symmetry_Int_Tables_number   1
_chemical_formula_structural   H7AuC6NCl
_chemical_formula_sum   'H28 Au4 C24 N4 Cl4'
_cell_volume   732.39139220
_cell_formula_units_Z   4
loop_
 _symmetry_equiv_pos_site_id
 _symmetry_equiv_pos_as_xyz
  1  'x, y, z'
loop_
 _atom_site_type_symbol
 _atom_site_label
 _atom_site_symmetry_multiplicity
 _atom_site_fract_x
 _atom_site_fract_y
 _atom_site_fract_z
 _atom_site_occupancy
 _atom_site_hle17_bader_spin_density
 _atom_site_hle17_ddec_charge
 _atom_site_hle17_ddec_spin_density
 _atom_site_hle17_ddec_sum_bond_order
 _atom_site_hle17_magmom
 _atom_site_hse06_10hf_bader_spin_density
 _atom_site_hse06_10hf_ddec_charge
 _atom_site_hse06_10hf_ddec_spin_density
 _atom_site_hse06_10hf_ddec_sum_bond_order
 _atom_site_hse06_10hf_magmom
 _atom_site_hse06_bader_spin_density
 _atom_site_hse06_ddec_charge
 _atom_site_hse06_ddec_spin_density
 _atom_site_hse06_ddec_sum_bond_order
 _atom_site_hse06_magmom
 _atom_site_pbe_bader_spin_density
 _atom_site_pbe_cm5_charge
 _atom_site_pbe_ddec_charge
 _atom_site_pbe_ddec_spin_density
 _atom_site_pbe_ddec_sum_bond_order
 _atom_site_pbe_magmom
H  H0  1  0.93473131  0.28991922  0.40371445  1  0  0.077788  0  0.993996  0  0  0.082503  0  1.070077  0  0  0.085158  0  1.067243  0  0  0.095856  0.080444  0  1.072256  0
H  H1  1  0.71007905  0.06527047  0.09628528  1  0  0.077796  0  0.994005  0  0  0.082463  0  1.070131  0  0  0.085119  0  1.067298  0  0  0.095838  0.080404  0  1.072309  0
H  H2  1  0.06526838  0.71007735  0.59628428  1  0  0.077829  0  0.99396  0  0  0.082476  0  1.0701  0  0  0.085131  0  1.067268  0  0  0.095856  0.08042  0  1.072272  0
H  H3  1  0.28992083  0.93473164  0.90371444  1  0  0.077738  0  0.994003  0  0  0.082465  0  1.070078  0  0  0.085121  0  1.067244  0  0  0.095842  0.080399  0  1.072262  0
H  H4  1  0.51145212  0.32979653  0.57900133  1  0  0.107826  0  0.936144  0  0  0.118785  0  0.997062  0  0  0.121398  0  0.995235  0  0  0.104207  0.116814  0  0.998549  0
H  H5  1  0.67020190  0.48855317  0.92100099  1  0  0.107788  0  0.936104  0  0  0.118751  0  0.997044  0  0  0.121363  0  0.99522  0  0  0.104185  0.116779  0  0.998532  0
H  H6  1  0.48855124  0.67020008  0.42100076  1  0  0.107789  0  0.936101  0  0  0.118748  0  0.997041  0  0  0.121361  0  0.995215  0  0  0.104182  0.116776  0  0.998529  0
H  H7  1  0.32979743  0.51145031  0.07899956  1  0  0.107807  0  0.936145  0  0  0.118765  0  0.997072  0  0  0.121379  0  0.995246  0  0  0.104199  0.116795  0  0.998559  0
H  H8  1  0.50972307  0.09127958  0.69450169  1  0  0.103996  0  0.969962  0  0  0.111273  0  1.03526  0  0  0.114308  0  1.034521  0  0  0.095814  0.109043  0  1.035957  0
H  H9  1  0.90872032  0.49028286  0.80549936  1  0  0.104024  0  0.969931  0  0  0.111285  0  1.035237  0  0  0.114321  0  1.034491  0  0  0.095833  0.109056  0  1.035939  0
H  H10  1  0.49028160  0.90871978  0.30549890  1  0  0.103988  0  0.970014  0  0  0.111226  0  1.035344  0  0  0.114264  0  1.034599  0  0  0.095806  0.109015  0  1.036023  0
H  H11  1  0.09127966  0.50972201  0.19450126  1  0  0.104001  0  0.969964  0  0  0.11128  0  1.035264  0  0  0.114311  0  1.034539  0  0  0.095812  0.109051  0  1.035962  0
H  H12  1  0.71882328  0.95288050  0.65611466  1  0  0.078316  0  0.996389  0  0  0.082572  0  1.071253  0  0  0.085398  0  1.068067  0  0  0.094867  0.080436  0  1.073648  0
H  H13  1  0.04711690  0.28118001  0.84388544  1  0  0.078303  0  0.99634  0  0  0.082503  0  1.071271  0  0  0.085326  0  1.068091  0  0  0.094834  0.080368  0  1.073668  0
H  H14  1  0.28117884  0.04711609  0.34388496  1  0  0.078301  0  0.996361  0  0  0.082496  0  1.071302  0  0  0.085322  0  1.068119  0  0  0.09483  0.080362  0  1.0737  0
H  H15  1  0.95288177  0.71882208  0.15611424  1  0  0.078281  0  0.996365  0  0  0.082488  0  1.071302  0  0  0.085313  0  1.068117  0  0  0.094818  0.080352  0  1.0737  0
H  H16  1  0.59299664  0.42303541  0.36025951  1  0  0.120435  0  0.962669  0  0  0.138925  0  1.0284  0  0  0.140026  0  1.028839  0  0  0.085858  0.138075  0  1.028147  0
H  H17  1  0.57696405  0.40700309  0.13974125  1  0  0.120429  0  0.962659  0  0  0.138919  0  1.028391  0  0  0.140017  0  1.028832  0  0  0.085848  0.138071  0  1.028138  0
H  H18  1  0.40700071  0.57696392  0.63974086  1  0  0.120437  0  0.962691  0  0  0.138919  0  1.028425  0  0  0.140021  0  1.028863  0  0  0.085849  0.13807  0  1.028171  0
H  H19  1  0.42303518  0.59299763  0.86025922  1  0  0.120441  0  0.962668  0  0  0.138936  0  1.028391  0  0  0.140033  0  1.028834  0  0  0.085855  0.138087  0  1.028138  0
H  H20  1  0.83362801  0.50522625  0.34862783  1  0  0.112878  0  0.936641  0  0  0.138617  0  0.987888  0  0  0.139721  0  0.988438  0  0  0.089963  0.13777  0  0.98756  0
H  H21  1  0.49477500  0.16637244  0.15137157  1  0  0.112895  0  0.936642  0  0  0.138637  0  0.987883  0  0  0.139741  0  0.988433  0  0  0.089972  0.13779  0  0.987555  0
H  H22  1  0.16637055  0.49477308  0.65137095  1  0  0.112897  0  0.936619  0  0  0.138622  0  0.987883  0  0  0.139725  0  0.988434  0  0  0.08995  0.137775  0  0.987552  0
H  H23  1  0.50522488  0.83362966  0.84862815  1  0  0.112885  0  0.936638  0  0  0.138628  0  0.987878  0  0  0.139731  0  0.988429  0  0  0.089972  0.137782  0  0.987548  0
H  H24  1  0.75760942  0.60035804  0.45472421  1  0  0.105472  0  0.976988  0  0  0.118886  0  1.059235  0  0  0.120501  0  1.057795  0  0  0.079307  0.117626  0  1.060328  0
H  H25  1  0.39964269  0.24239183  0.04527662  1  0  0.105478  0  0.977006  0  0  0.118893  0  1.059251  0  0  0.120507  0  1.057815  0  0  0.079306  0.117633  0  1.060347  0
H  H26  1  0.24238916  0.39964130  0.54527701  1  0  0.105498  0  0.97705  0  0  0.118912  0  1.059282  0  0  0.120525  0  1.057847  0  0  0.079323  0.117651  0  1.060379  0
H  H27  1  0.60035719  0.75761028  0.95472391  1  0  0.105495  0  0.976998  0  0  0.118908  0  1.059245  0  0  0.120523  0  1.0578  0  0  0.079311  0.117647  0  1.060341  0
Au  Au28  1  0.00000013  0.99999931  0.49999975  1  0  0.206457  0  2.08703  0  0  0.094177  0  2.577263  0  0  0.114739  0  2.542147  0  0  0.377714  0.081019  0  2.600601  0
Au  Au29  1  0.00000000  0.00000000  0.00000000  1  0  0.206438  0  2.087064  0  0  0.094154  0  2.577296  0  0  0.114716  0  2.54218  0  0  0.377706  0.080996  0  2.600637  0
Au  Au30  1  0.95639601  0.04360341  0.24999920  1  0  0.139027  0  2.332073  0  0  0.063933  0  2.901216  0  0  0.087798  0  2.851633  0  0  0.18408  0.048406  0  2.934037  0
Au  Au31  1  0.04360509  0.95639869  0.75000055  1  0  0.139011  0  2.33209  0  0  0.063911  0  2.901243  0  0  0.087776  0  2.851663  0  0  0.184075  0.048389  0  2.934047  0
C  C32  1  0.83648582  0.24912988  0.46629778  1  0  0.03428  0  3.643641  0  0  -0.004435  0  3.882238  0  0  0.000714  0  3.902708  0  0  0.030467  -0.007678  0  3.868608  0
C  C33  1  0.75086908  0.16351753  0.03370196  1  0  0.034293  0  3.643664  0  0  -0.004392  0  3.882259  0  0  0.000758  0  3.902728  0  0  0.030479  -0.007633  0  3.868632  0
C  C34  1  0.16351387  0.75086669  0.53370177  1  0  0.034327  0  3.643629  0  0  -0.004334  0  3.882228  0  0  0.000816  0  3.902696  0  0  0.030485  -0.007577  0  3.868593  0
C  C35  1  0.24913024  0.83648595  0.96629860  1  0  0.034381  0  3.643585  0  0  -0.004328  0  3.88218  0  0  0.000822  0  3.902649  0  0  0.030502  -0.007565  0  3.868554  0
C  C36  1  0.72197424  0.32916356  0.47982542  1  0  0.107332  0  3.74391  0  0  0.140442  0  3.973737  0  0  0.13604  0  4.000208  0  0  -0.000703  0.143013  0  3.956019  0
C  C37  1  0.67083370  0.27802655  0.02017557  1  0  0.107272  0  3.744089  0  0  0.140407  0  3.973886  0  0  0.136006  0  4.000358  0  0  -0.000725  0.142978  0  3.956172  0
C  C38  1  0.27802545  0.67083301  0.52017412  1  0  0.107157  0  3.744057  0  0  0.140284  0  3.973862  0  0  0.135881  0  4.000334  0  0  -0.000769  0.142854  0  3.956146  0
C  C39  1  0.32916431  0.72197416  0.97982405  1  0  0.10731  0  3.743927  0  0  0.140375  0  3.973822  0  0  0.135971  0  4.000296  0  0  -0.00073  0.142947  0  3.956105  0
C  C40  1  0.60256627  0.27057781  0.56384907  1  0  -0.04148  0  3.653172  0  0  -0.069889  0  3.900805  0  0  -0.06597  0  3.917931  0  0  -0.064212  -0.072232  0  3.889217  0
C  C41  1  0.72942127  0.39743611  0.93615255  1  0  -0.041458  0  3.653213  0  0  -0.069892  0  3.900863  0  0  -0.065972  0  3.917989  0  0  -0.064216  -0.072236  0  3.889279  0
C  C42  1  0.39743596  0.72942155  0.43615226  1  0  -0.041396  0  3.653176  0  0  -0.069812  0  3.900809  0  0  -0.065892  0  3.917933  0  0  -0.064188  -0.072156  0  3.889228  0
C  C43  1  0.27057862  0.60256599  0.06384798  1  0  -0.04145  0  3.653172  0  0  -0.069845  0  3.90082  0  0  -0.065925  0  3.917946  0  0  -0.064191  -0.072187  0  3.889228  0
C  C44  1  0.60095750  0.13625856  0.62862298  1  0  -0.102721  0  3.756403  0  0  -0.114908  0  4.008977  0  0  -0.12243  0  4.032401  0  0  -0.086027  -0.110079  0  3.993405  0
C  C45  1  0.86374103  0.39904512  0.87137720  1  0  -0.102767  0  3.756355  0  0  -0.114933  0  4.008951  0  0  -0.122452  0  4.032373  0  0  -0.086036  -0.110107  0  3.993376  0
C  C46  1  0.39904472  0.86374079  0.37137754  1  0  -0.102734  0  3.756475  0  0  -0.114885  0  4.009069  0  0  -0.122405  0  4.032493  0  0  -0.086003  -0.110071  0  3.993493  0
C  C47  1  0.13625952  0.60095837  0.12862339  1  0  -0.102776  0  3.75643  0  0  -0.114971  0  4.009003  0  0  -0.122495  0  4.032423  0  0  -0.086029  -0.11014  0  3.993435  0
C  C48  1  0.71647999  0.06026977  0.60878674  1  0  0.089186  0  3.684213  0  0  0.055036  0  3.928236  0  0  0.06219  0  3.946821  0  0  0.030415  0.050407  0  3.915773  0
C  C49  1  0.93972854  0.28352421  0.89121287  1  0  0.089278  0  3.684132  0  0  0.055164  0  3.928179  0  0  0.06232  0  3.946764  0  0  0.030462  0.050536  0  3.91572  0
C  C50  1  0.28352214  0.93972682  0.39121288  1  0  0.089272  0  3.684202  0  0  0.055155  0  3.928254  0  0  0.062307  0  3.946845  0  0  0.030458  0.050525  0  3.915804  0
C  C51  1  0.06027199  0.71647928  0.10878691  1  0  0.0893  0  3.684145  0  0  0.055196  0  3.928156  0  0  0.062352  0  3.946741  0  0  0.030482  0.050569  0  3.915698  0
C  C52  1  0.72739788  0.47150531  0.40674909  1  0  -0.339722  0  3.725988  0  0  -0.419774  0  3.956954  0  0  -0.422572  0  3.968837  0  0  -0.24458  -0.417481  0  3.948863  0
C  C53  1  0.52849375  0.27260326  0.09325180  1  0  -0.339724  0  3.726057  0  0  -0.419782  0  3.956991  0  0  -0.422578  0  3.968878  0  0  -0.244565  -0.417489  0  3.948903  0
C  C54  1  0.27260060  0.52849127  0.59325204  1  0  -0.339737  0  3.726052  0  0  -0.419769  0  3.956996  0  0  -0.422567  0  3.968879  0  0  -0.244573  -0.417477  0  3.948906  0
C  C55  1  0.47150613  0.72739884  0.90674873  1  0  -0.33977  0  3.726017  0  0  -0.419823  0  3.956991  0  0  -0.422613  0  3.968885  0  0  -0.244596  -0.417533  0  3.948907  0
N  N56  1  0.83307753  0.11664647  0.52861848  1  0  -0.19654  0  3.48532  0  0  -0.096521  0  3.742179  0  0  -0.116541  0  3.766525  0  0  -0.335253  -0.08338  0  3.725567  0
N  N57  1  0.88335114  0.16692374  0.97138028  1  0  -0.196539  0  3.485243  0  0  -0.096495  0  3.742051  0  0  -0.116516  0  3.766395  0  0  -0.335212  -0.083354  0  3.725442  0
N  N58  1  0.16692403  0.88335149  0.47137954  1  0  -0.196566  0  3.485304  0  0  -0.096526  0  3.742112  0  0  -0.116546  0  3.766456  0  0  -0.335215  -0.083385  0  3.725504  0
N  N59  1  0.11664753  0.83307836  0.02862022  1  0  -0.196584  0  3.485329  0  0  -0.096558  0  3.74218  0  0  -0.11658  0  3.766523  0  0  -0.335256  -0.083417  0  3.72557  0
Cl  Cl60  1  0.68430006  0.77407847  0.20882282  1  0  -0.429784  0  1.245498  0  0  -0.360545  0  1.56212  0  0  -0.379188  0  1.541787  0  0  -0.256879  -0.347473  0  1.57563  0
Cl  Cl61  1  0.22592315  0.31570122  0.29117612  1  0  -0.42981  0  1.245466  0  0  -0.360584  0  1.562095  0  0  -0.379225  0  1.541763  0  0  -0.256896  -0.347511  0  1.575603  0
Cl  Cl62  1  0.31570160  0.22592226  0.79117691  1  0  -0.429779  0  1.245529  0  0  -0.360543  0  1.562159  0  0  -0.379186  0  1.541829  0  0  -0.256877  -0.347471  0  1.575664  0
Cl  Cl63  1  0.77407729  0.68429950  0.70882277  1  0  -0.429795  0  1.245454  0  0  -0.360573  0  1.562083  0  0  -0.379218  0  1.541754  0  0  -0.256886  -0.347502  0  1.575589  0
