# generated using pymatgen
data_FeH20PtC32(N4O)2
_symmetry_space_group_name_H-M   'P 1'
_cell_length_a   7.50769097
_cell_length_b   8.69897774
_cell_length_c   11.98731256
_cell_angle_alpha   105.91993902
_cell_angle_beta   100.28696551
_cell_angle_gamma   103.90421883
_symmetry_Int_Tables_number   1
_chemical_formula_structural   FeH20PtC32(N4O)2
_chemical_formula_sum   'Fe1 H20 Pt1 C32 N8 O2'
_cell_volume   705.28417446
_cell_formula_units_Z   1
loop_
 _symmetry_equiv_pos_site_id
 _symmetry_equiv_pos_as_xyz
  1  'x, y, z'
loop_
 _atom_site_type_symbol
 _atom_site_label
 _atom_site_symmetry_multiplicity
 _atom_site_fract_x
 _atom_site_fract_y
 _atom_site_fract_z
 _atom_site_occupancy
 _atom_site_hle17_bader_spin_density
 _atom_site_hle17_ddec_charge
 _atom_site_hle17_ddec_spin_density
 _atom_site_hle17_ddec_sum_bond_order
 _atom_site_hle17_magmom
 _atom_site_hse06_10hf_bader_spin_density
 _atom_site_hse06_10hf_ddec_charge
 _atom_site_hse06_10hf_ddec_spin_density
 _atom_site_hse06_10hf_ddec_sum_bond_order
 _atom_site_hse06_10hf_magmom
 _atom_site_hse06_bader_spin_density
 _atom_site_hse06_ddec_charge
 _atom_site_hse06_ddec_spin_density
 _atom_site_hse06_ddec_sum_bond_order
 _atom_site_hse06_magmom
 _atom_site_pbe_bader_spin_density
 _atom_site_pbe_cm5_charge
 _atom_site_pbe_ddec_charge
 _atom_site_pbe_ddec_spin_density
 _atom_site_pbe_ddec_sum_bond_order
 _atom_site_pbe_magmom
Fe  Fe0  1  0.50000109  0.50000270  0.99999853  1  0  0.649571  0  2.881181  0  0  0.623889  0  3.351487  0  0  0.66758  0  3.29172  0  0  0.725652  0.606609  0  3.380948  0
H  H1  1  0.86765425  0.53037869  0.93142279  1  0  0.083023  0  0.982633  0  0  0.091686  0  1.045625  0  0  0.09214  0  1.045615  0  0  0.119946  0.091382  0  1.045915  0
H  H2  1  0.13234752  0.46962308  0.06857602  1  0  0.08305  0  0.9826  0  0  0.091727  0  1.045548  0  0  0.092183  0  1.045531  0  0  0.119952  0.091419  0  1.045848  0
H  H3  1  0.02885434  0.35157105  0.81753468  1  0  0.13405  0  0.963488  0  0  0.143934  0  1.019483  0  0  0.148075  0  1.018395  0  0  0.112724  0.140846  0  1.020271  0
H  H4  1  0.97114567  0.64842948  0.18246283  1  0  0.134028  0  0.963521  0  0  0.143957  0  1.019459  0  0  0.148066  0  1.018414  0  0  0.112729  0.140869  0  1.020248  0
H  H5  1  0.53157890  0.92784879  0.74787558  1  0  0.11928  0  0.938951  0  0  0.130522  0  0.995088  0  0  0.133222  0  0.994801  0  0  0.112036  0.128733  0  0.995395  0
H  H6  1  0.46842097  0.07215163  0.25212606  1  0  0.119262  0  0.938959  0  0  0.130511  0  0.995094  0  0  0.133214  0  0.994807  0  0  0.112031  0.128722  0  0.995404  0
H  H7  1  0.38862033  0.12456825  0.85915849  1  0  0.089624  0  0.965471  0  0  0.099491  0  1.023765  0  0  0.099901  0  1.02387  0  0  0.121874  0.09928  0  1.023743  0
H  H8  1  0.61138000  0.87543345  0.14084264  1  0  0.089604  0  0.965487  0  0  0.099479  0  1.023783  0  0  0.09989  0  1.023888  0  0  0.12187  0.099269  0  1.023762  0
H  H9  1  0.52988611  0.90039146  0.54051721  1  0  0.102001  0  0.982749  0  0  0.111148  0  1.047703  0  0  0.113416  0  1.048206  0  0  0.103777  0.109581  0  1.047405  0
H  H10  1  0.47012289  0.09960780  0.45948279  1  0  0.101964  0  0.982815  0  0  0.111107  0  1.04778  0  0  0.113373  0  1.048286  0  0  0.103758  0.10956  0  1.047457  0
H  H11  1  0.70906968  0.75259125  0.41556169  1  0  0.075881  0  0.938269  0  0  0.08585  0  0.999873  0  0  0.08824  0  0.998274  0  0  0.114948  0.084102  0  1.001098  0
H  H12  1  0.29092255  0.24739428  0.58442926  1  0  0.075864  0  0.938215  0  0  0.085821  0  0.999837  0  0  0.088214  0  0.998233  0  0  0.114919  0.084077  0  1.001067  0
H  H13  1  0.24675905  0.32179536  0.26145976  1  0  0.072768  0  0.95459  0  0  0.07759  0  1.027589  0  0  0.079476  0  1.026217  0  0  0.110293  0.075991  0  1.028869  0
H  H14  1  0.75322800  0.67819888  0.73853404  1  0  0.072807  0  0.954662  0  0  0.077599  0  1.027677  0  0  0.079487  0  1.026308  0  0  0.110289  0.075997  0  1.028965  0
H  H15  1  0.04488231  0.45030889  0.37614104  1  0  0.116822  0  0.957241  0  0  0.12487  0  1.01832  0  0  0.128225  0  1.017387  0  0  0.109085  0.122422  0  1.019183  0
H  H16  1  0.95511353  0.54968774  0.62386016  1  0  0.116802  0  0.957222  0  0  0.124861  0  1.018298  0  0  0.128215  0  1.017364  0  0  0.109074  0.122414  0  1.019155  0
H  H17  1  0.28333040  0.59642110  0.84904898  1  0  0.403503  0  0.909528  0  0  0.370788  0  0.978574  0  0  0.381096  0  0.964161  0  0  0.288072  0.363706  0  0.988317  0
H  H18  1  0.71666897  0.40358564  0.15095224  1  0  0.403535  0  0.909555  0  0  0.370814  0  0.978557  0  0  0.381124  0  0.964139  0  0  0.288088  0.363732  0  0.988302  0
H  H19  1  0.40041706  0.49546260  0.77598899  1  0  0.368371  0  0.93979  0  0  0.328971  0  1.037372  0  0  0.339551  0  1.022928  0  0  0.281399  0.321684  0  1.04538  0
H  H20  1  0.59957482  0.50453791  0.22400753  1  0  0.368348  0  0.939795  0  0  0.328945  0  1.037404  0  0  0.339525  0  1.02296  0  0  0.281402  0.321658  0  1.045388  0
Pt  Pt21  1  0.99999799  0.00000699  0.99999918  1  0  0.0783  0  4.137129  0  0  0.10594  0  4.71777  0  0  0.095861  0  4.689507  0  0  0.536582  0.114152  0  4.736993  0
C  C22  1  0.79688677  0.39661870  0.88909126  1  0  0.115454  0  3.672236  0  0  0.084097  0  3.927783  0  0  0.093931  0  3.943781  0  0  0.04194  0.076428  0  3.919276  0
C  C23  1  0.20311327  0.60338185  0.11090543  1  0  0.115431  0  3.672157  0  0  0.084102  0  3.927679  0  0  0.093938  0  3.943666  0  0  0.041929  0.076439  0  3.919156  0
C  C24  1  0.88655272  0.29628193  0.82471000  1  0  -0.143778  0  3.663464  0  0  -0.160657  0  3.907997  0  0  -0.168795  0  3.92533  0  0  -0.074673  -0.155519  0  3.897151  0
C  C25  1  0.11344943  0.70371724  0.17529166  1  0  -0.14375  0  3.663426  0  0  -0.16069  0  3.907951  0  0  -0.1688  0  3.925304  0  0  -0.074664  -0.155554  0  3.897107  0
C  C26  1  0.79390319  0.12255584  0.77015206  1  0  0.12974  0  3.930035  0  0  0.134455  0  4.173798  0  0  0.14377  0  4.188637  0  0  0.004623  0.128448  0  4.164051  0
C  C27  1  0.20610270  0.87744218  0.22984648  1  0  0.129777  0  3.930197  0  0  0.134518  0  4.173938  0  0  0.143823  0  4.188793  0  0  0.004659  0.128515  0  4.164174  0
C  C28  1  0.61090826  0.06099271  0.78473471  1  0  -0.163348  0  3.698174  0  0  -0.18575  0  3.955689  0  0  -0.193118  0  3.972239  0  0  -0.078265  -0.181322  0  3.945077  0
C  C29  1  0.38909342  0.93900900  0.21526659  1  0  -0.163332  0  3.698276  0  0  -0.185742  0  3.955769  0  0  -0.193111  0  3.972326  0  0  -0.078275  -0.181316  0  3.945162  0
C  C30  1  0.53003075  0.17133560  0.84869578  1  0  0.131406  0  3.647011  0  0  0.100503  0  3.898858  0  0  0.11042  0  3.915126  0  0  0.047535  0.093575  0  3.888689  0
C  C31  1  0.46997226  0.82866609  0.15130650  1  0  0.131446  0  3.646958  0  0  0.100506  0  3.898851  0  0  0.110423  0  3.91512  0  0  0.047556  0.093576  0  3.888684  0
C  C32  1  0.88572457  0.02050214  0.70470773  1  0  -0.057644  0  3.767598  0  0  -0.058882  0  4.023631  0  0  -0.061349  0  4.046985  0  0  -0.00568  -0.058674  0  4.009398  0
C  C33  1  0.11428220  0.97949458  0.29529232  1  0  -0.057672  0  3.767413  0  0  -0.058921  0  4.023461  0  0  -0.061383  0  4.046819  0  0  -0.005689  -0.058715  0  4.009223  0
C  C34  1  0.97535071  0.94156420  0.64841607  1  0  -0.030462  0  4.014379  0  0  -0.030594  0  4.267114  0  0  -0.029184  0  4.292105  0  0  -0.027061  -0.031672  0  4.251544  0
C  C35  1  0.02464417  0.05842603  0.35158869  1  0  -0.030487  0  4.014299  0  0  -0.030617  0  4.267039  0  0  -0.029207  0  4.292033  0  0  -0.027071  -0.031694  0  4.251468  0
C  C36  1  0.07356105  0.85425265  0.58761224  1  0  -0.019845  0  4.024383  0  0  -0.018566  0  4.273206  0  0  -0.019387  0  4.298377  0  0  -0.022918  -0.018709  0  4.25752  0
C  C37  1  0.92644344  0.14574532  0.41238779  1  0  -0.01994  0  4.024365  0  0  -0.018657  0  4.273188  0  0  -0.019478  0  4.298361  0  0  -0.022951  -0.018799  0  4.257502  0
C  C38  1  0.16232871  0.77336355  0.53211848  1  0  -0.066666  0  3.74946  0  0  -0.063978  0  3.990611  0  0  -0.064013  0  4.014902  0  0  -0.00925  -0.064636  0  3.975338  0
C  C39  1  0.83767921  0.22663683  0.46788663  1  0  -0.06652  0  3.749257  0  0  -0.063827  0  3.990399  0  0  -0.063861  0  4.014688  0  0  -0.009225  -0.064487  0  3.975127  0
C  C40  1  0.27058262  0.68829415  0.46873221  1  0  0.153729  0  3.887713  0  0  0.163398  0  4.117028  0  0  0.168796  0  4.135508  0  0  0.015503  0.159631  0  4.105132  0
C  C41  1  0.72941599  0.31170253  0.53126767  1  0  0.153612  0  3.887778  0  0  0.163278  0  4.117107  0  0  0.168676  0  4.135586  0  0  0.01551  0.159513  0  4.105214  0
C  C42  1  0.46232019  0.77197697  0.48005275  1  0  -0.164605  0  3.693487  0  0  -0.182122  0  3.938841  0  0  -0.188916  0  3.9601  0  0  -0.08188  -0.177785  0  3.924814  0
C  C43  1  0.53768199  0.22802223  0.51994809  1  0  -0.164568  0  3.693531  0  0  -0.18208  0  3.938885  0  0  -0.188875  0  3.960148  0  0  -0.081848  -0.17776  0  3.924849  0
C  C44  1  0.56215250  0.68928107  0.41082940  1  0  0.125381  0  3.73643  0  0  0.095793  0  3.991395  0  0  0.101495  0  4.008264  0  0  0.045147  0.091903  0  3.980565  0
C  C45  1  0.43784074  0.31071564  0.58916817  1  0  0.125446  0  3.736243  0  0  0.095867  0  3.991219  0  0  0.101569  0  4.008091  0  0  0.045137  0.091968  0  3.980404  0
C  C46  1  0.30527518  0.44928695  0.32533681  1  0  0.131736  0  3.719106  0  0  0.100457  0  3.978635  0  0  0.105782  0  3.996328  0  0  0.048127  0.096897  0  3.96735  0
C  C47  1  0.69471867  0.55070733  0.67465699  1  0  0.131549  0  3.719333  0  0  0.100318  0  3.978806  0  0  0.105639  0  3.996503  0  0  0.048086  0.096763  0  3.967515  0
C  C48  1  0.19241064  0.52109825  0.39002012  1  0  -0.149448  0  3.658506  0  0  -0.166105  0  3.900601  0  0  -0.171916  0  3.919416  0  0  -0.074513  -0.16269  0  3.888611  0
C  C49  1  0.80758612  0.47889712  0.60998094  1  0  -0.149245  0  3.658442  0  0  -0.165918  0  3.900502  0  0  -0.171727  0  3.919316  0  0  -0.07444  -0.162504  0  3.88851  0
C  C50  1  0.20352096  0.19683509  0.00764891  1  0  0.071264  0  3.558425  0  0  0.042472  0  3.912406  0  0  0.060569  0  3.911578  0  0  -0.000179  0.031012  0  3.913133  0
C  C51  1  0.79647245  0.80317792  0.99235205  1  0  0.071341  0  3.558392  0  0  0.042561  0  3.912357  0  0  0.060659  0  3.911529  0  0  -0.000116  0.031099  0  3.913076  0
C  C52  1  0.87555093  0.15046940  0.08957244  1  0  0.069208  0  3.64875  0  0  0.039291  0  4.003534  0  0  0.047339  0  4.014213  0  0  -0.010804  0.034142  0  3.995808  0
C  C53  1  0.12445644  0.84954108  0.91043220  1  0  0.069314  0  3.648835  0  0  0.039415  0  4.003575  0  0  0.047466  0  4.014247  0  0  -0.010703  0.034264  0  3.995855  0
N  N54  1  0.61972257  0.33864691  0.90196580  1  0  -0.224834  0  3.24609  0  0  -0.171081  0  3.514495  0  0  -0.19288  0  3.530591  0  0  -0.311047  -0.157746  0  3.503061  0
N  N55  1  0.38027954  0.66135605  0.09803581  1  0  -0.224869  0  3.246031  0  0  -0.171107  0  3.514438  0  0  -0.192908  0  3.530537  0  0  -0.31108  -0.15777  0  3.503  0
N  N56  1  0.31867753  0.31443585  0.00674041  1  0  -0.366369  0  3.326229  0  0  -0.331152  0  3.645661  0  0  -0.346404  0  3.647504  0  0  -0.40841  -0.323874  0  3.643173  0
N  N57  1  0.68132548  0.68556964  0.99326099  1  0  -0.366395  0  3.326207  0  0  -0.331182  0  3.645653  0  0  -0.346432  0  3.647493  0  0  -0.408456  -0.323916  0  3.643199  0
N  N58  1  0.80266750  0.24089750  0.14220354  1  0  -0.434997  0  2.838075  0  0  -0.382975  0  3.085819  0  0  -0.39602  0  3.098801  0  0  -0.355582  -0.374244  0  3.076758  0
N  N59  1  0.19732908  0.75910536  0.85780071  1  0  -0.435082  0  2.838331  0  0  -0.38307  0  3.086077  0  0  -0.396113  0  3.099052  0  0  -0.355652  -0.374336  0  3.077018  0
N  N60  1  0.48598879  0.53138362  0.33347465  1  0  -0.304953  0  3.146032  0  0  -0.244084  0  3.393445  0  0  -0.253966  0  3.406091  0  0  -0.307319  -0.238345  0  3.385807  0
N  N61  1  0.51400757  0.46861433  0.66652439  1  0  -0.304943  0  3.145966  0  0  -0.244092  0  3.393356  0  0  -0.253973  0  3.406003  0  0  -0.307306  -0.238352  0  3.385719  0
O  O62  1  0.32209550  0.49087506  0.83670643  1  0  -0.730259  0  1.986016  0  0  -0.694328  0  2.207351  0  0  -0.731267  0  2.182668  0  0  -0.540581  -0.664968  0  2.219269  0
O  O63  1  0.67790523  0.50913168  0.16329496  1  0  -0.730281  0  1.986022  0  0  -0.694355  0  2.207331  0  0  -0.731288  0  2.182643  0  0  -0.540613  -0.664995  0  2.219229  0
