# generated using pymatgen
data_H22PbC20S2(NO3)2
_symmetry_space_group_name_H-M   'P 1'
_cell_length_a   9.51230717
_cell_length_b   11.51870151
_cell_length_c   12.26162920
_cell_angle_alpha   66.11476964
_cell_angle_beta   71.74644162
_cell_angle_gamma   67.26065992
_symmetry_Int_Tables_number   1
_chemical_formula_structural   H22PbC20S2(NO3)2
_chemical_formula_sum   'H44 Pb2 C40 S4 N4 O12'
_cell_volume   1113.22249591
_cell_formula_units_Z   2
loop_
 _symmetry_equiv_pos_site_id
 _symmetry_equiv_pos_as_xyz
  1  'x, y, z'
loop_
 _atom_site_type_symbol
 _atom_site_label
 _atom_site_symmetry_multiplicity
 _atom_site_fract_x
 _atom_site_fract_y
 _atom_site_fract_z
 _atom_site_occupancy
 _atom_site_hle17_bader_spin_density
 _atom_site_hle17_ddec_charge
 _atom_site_hle17_ddec_spin_density
 _atom_site_hle17_ddec_sum_bond_order
 _atom_site_hle17_magmom
 _atom_site_hse06_10hf_bader_spin_density
 _atom_site_hse06_10hf_ddec_charge
 _atom_site_hse06_10hf_ddec_spin_density
 _atom_site_hse06_10hf_ddec_sum_bond_order
 _atom_site_hse06_10hf_magmom
 _atom_site_hse06_bader_spin_density
 _atom_site_hse06_ddec_charge
 _atom_site_hse06_ddec_spin_density
 _atom_site_hse06_ddec_sum_bond_order
 _atom_site_hse06_magmom
 _atom_site_pbe_bader_spin_density
 _atom_site_pbe_cm5_charge
 _atom_site_pbe_ddec_charge
 _atom_site_pbe_ddec_spin_density
 _atom_site_pbe_ddec_sum_bond_order
 _atom_site_pbe_magmom
H  H0  1  0.14032749  0.49643178  0.41596690  1  0  0.084945  0  1.002709  0  0  0.094467  0  1.067905  0  0  0.096952  0  1.067575  0  0  0.090159  0.09261  0  1.068297  0
H  H1  1  0.85971957  0.50357699  0.58405738  1  0  0.084828  0  1.003004  0  0  0.094438  0  1.068085  0  0  0.096921  0  1.067757  0  0  0.090109  0.092571  0  1.068493  0
H  H2  1  0.04447036  0.30909294  0.56567836  1  0  0.083297  0  0.979986  0  0  0.090562  0  1.04882  0  0  0.09293  0  1.047702  0  0  0.093576  0.088869  0  1.04947  0
H  H3  1  0.95549900  0.69092566  0.43426818  1  0  0.083447  0  0.97991  0  0  0.090663  0  1.048794  0  0  0.09303  0  1.047683  0  0  0.093588  0.088966  0  1.049451  0
H  H4  1  0.19267625  0.07633960  0.56834120  1  0  0.099173  0  0.959699  0  0  0.108584  0  1.021941  0  0  0.111193  0  1.02137  0  0  0.102029  0.106506  0  1.022908  0
H  H5  1  0.80731908  0.92367339  0.43163105  1  0  0.099107  0  0.959865  0  0  0.108607  0  1.021994  0  0  0.111213  0  1.021427  0  0  0.102015  0.106525  0  1.022961  0
H  H6  1  0.43654400  0.03578961  0.41484222  1  0  0.099458  0  0.959211  0  0  0.108233  0  1.023686  0  0  0.111481  0  1.021826  0  0  0.103678  0.105366  0  1.026116  0
H  H7  1  0.56348364  0.96421099  0.58518124  1  0  0.099435  0  0.959261  0  0  0.108273  0  1.023587  0  0  0.111491  0  1.021814  0  0  0.103669  0.105406  0  1.026017  0
H  H8  1  0.36777427  0.53429203  0.44698930  1  0  0.088532  0  0.991634  0  0  0.098715  0  1.055855  0  0  0.101049  0  1.056054  0  0  0.093408  0.096783  0  1.056242  0
H  H9  1  0.63229973  0.46572757  0.55297004  1  0  0.088302  0  0.991839  0  0  0.098635  0  1.055934  0  0  0.100967  0  1.056133  0  0  0.09336  0.096704  0  1.056308  0
H  H10  1  0.35983453  0.60975594  0.61260893  1  0  0.081944  0  0.981207  0  0  0.087415  0  1.052838  0  0  0.090536  0  1.050811  0  0  0.0927  0.085288  0  1.054104  0
H  H11  1  0.64012608  0.39022794  0.38739414  1  0  0.081826  0  0.981336  0  0  0.087348  0  1.052896  0  0  0.090457  0  1.050895  0  0  0.092711  0.085224  0  1.054157  0
H  H12  1  0.23018650  0.84658453  0.60154252  1  0  0.101499  0  0.967216  0  0  0.108562  0  1.032639  0  0  0.111692  0  1.031474  0  0  0.101866  0.106219  0  1.033685  0
H  H13  1  0.76981224  0.15340764  0.39845328  1  0  0.101491  0  0.967329  0  0  0.108577  0  1.032726  0  0  0.111718  0  1.031523  0  0  0.101855  0.106199  0  1.033809  0
H  H14  1  0.10629041  0.00752425  0.42178906  1  0  0.098728  0  0.965101  0  0  0.107051  0  1.031108  0  0  0.109894  0  1.02985  0  0  0.104447  0.104286  0  1.033507  0
H  H15  1  0.89371979  0.99247707  0.57821492  1  0  0.098708  0  0.965131  0  0  0.107033  0  1.031118  0  0  0.109873  0  1.029875  0  0  0.10444  0.104266  0  1.033538  0
H  H16  1  0.72301486  0.48572645  0.03740728  1  0  0.043645  0  0.952301  0  0  0.049639  0  1.029505  0  0  0.051829  0  1.023777  0  0  0.11732  0.048019  0  1.033342  0
H  H17  1  0.27700711  0.51426025  0.96264098  1  0  0.043534  0  0.952262  0  0  0.049548  0  1.029471  0  0  0.051739  0  1.02374  0  0  0.117233  0.047926  0  1.03331  0
H  H18  1  0.06395650  0.51969812  0.80673153  1  0  0.103291  0  0.947849  0  0  0.122677  0  1.011302  0  0  0.124153  0  1.01001  0  0  0.104855  0.121468  0  1.012325  0
H  H19  1  0.93603410  0.48029011  0.19328502  1  0  0.103344  0  0.947762  0  0  0.122733  0  1.011191  0  0  0.124214  0  1.009892  0  0  0.104881  0.121533  0  1.0122  0
H  H20  1  0.02847010  0.68518709  0.80581521  1  0  0.117133  0  0.946435  0  0  0.136381  0  1.009136  0  0  0.137239  0  1.008823  0  0  0.108772  0.135711  0  1.009244  0
H  H21  1  0.97153046  0.31479824  0.19420318  1  0  0.117136  0  0.946555  0  0  0.136368  0  1.009242  0  0  0.137222  0  1.008942  0  0  0.108754  0.1357  0  1.009348  0
H  H22  1  0.94317077  0.66021434  0.71005804  1  0  0.094537  0  0.957477  0  0  0.114832  0  1.022985  0  0  0.113642  0  1.026222  0  0  0.09794  0.115697  0  1.020483  0
H  H23  1  0.05681091  0.33978086  0.28996705  1  0  0.094512  0  0.957318  0  0  0.114742  0  1.02289  0  0  0.113574  0  1.0261  0  0  0.097885  0.115608  0  1.020387  0
H  H24  1  0.63247717  0.69784666  0.98610514  1  0  0.095276  0  0.936687  0  0  0.114162  0  1.003347  0  0  0.114905  0  1.002762  0  0  0.104468  0.113541  0  1.003839  0
H  H25  1  0.36752169  0.30216266  0.01391413  1  0  0.095293  0  0.936637  0  0  0.114252  0  1.003215  0  0  0.114979  0  1.002651  0  0  0.104469  0.11363  0  1.003709  0
H  H26  1  0.68169806  0.78676287  0.82894216  1  0  0.099637  0  0.952179  0  0  0.118777  0  1.015948  0  0  0.118783  0  1.017401  0  0  0.101634  0.118673  0  1.01501  0
H  H27  1  0.31832062  0.21323762  0.17107792  1  0  0.099696  0  0.952315  0  0  0.118857  0  1.016047  0  0  0.118894  0  1.017471  0  0  0.10166  0.118746  0  1.01512  0
H  H28  1  0.77903336  0.78031478  0.93508300  1  0  0.114966  0  0.942766  0  0  0.132981  0  1.005396  0  0  0.134128  0  1.005368  0  0  0.105659  0.131917  0  1.005788  0
H  H29  1  0.22098731  0.21967374  0.06493797  1  0  0.115093  0  0.942722  0  0  0.133031  0  1.005421  0  0  0.134172  0  1.005406  0  0  0.105687  0.131972  0  1.005806  0
H  H30  1  0.89654769  0.75233016  0.17492871  1  0  0.04085  0  0.951907  0  0  0.044785  0  1.033242  0  0  0.047245  0  1.026623  0  0  0.11888  0.043111  0  1.037473  0
H  H31  1  0.10345118  0.24763709  0.82508002  1  0  0.040896  0  0.95211  0  0  0.044895  0  1.033316  0  0  0.047348  0  1.026706  0  0  0.118958  0.043228  0  1.037546  0
H  H32  1  0.76925816  0.63843269  0.32251354  1  0  0.099742  0  0.943909  0  0  0.120838  0  1.005885  0  0  0.121198  0  1.00616  0  0  0.107629  0.120732  0  1.005312  0
H  H33  1  0.23075757  0.36157981  0.67751241  1  0  0.099835  0  0.943597  0  0  0.120959  0  1.005537  0  0  0.121325  0  1.005803  0  0  0.107626  0.120852  0  1.004967  0
H  H34  1  0.59459623  0.64035295  0.29425824  1  0  0.08779  0  0.963257  0  0  0.10339  0  1.035617  0  0  0.103436  0  1.036582  0  0  0.093675  0.103292  0  1.034923  0
H  H35  1  0.40544661  0.35963763  0.70574239  1  0  0.087902  0  0.963204  0  0  0.103544  0  1.035494  0  0  0.10358  0  1.036468  0  0  0.093719  0.103452  0  1.034797  0
H  H36  1  0.58527061  0.73035209  0.38681101  1  0  0.101536  0  0.94449  0  0  0.121034  0  1.006508  0  0  0.120395  0  1.009513  0  0  0.101741  0.121339  0  1.00464  0
H  H37  1  0.41471861  0.26962224  0.61322354  1  0  0.101582  0  0.9444  0  0  0.12107  0  1.006443  0  0  0.12043  0  1.009446  0  0  0.101711  0.121375  0  1.004577  0
H  H38  1  0.54104058  0.99844098  0.09165997  1  0  0.108688  0  0.952082  0  0  0.128202  0  1.015059  0  0  0.129831  0  1.013941  0  0  0.110717  0.126893  0  1.015999  0
H  H39  1  0.45894548  0.00155127  0.90836515  1  0  0.108499  0  0.952309  0  0  0.12813  0  1.015154  0  0  0.129764  0  1.014036  0  0  0.110688  0.126826  0  1.016087  0
H  H40  1  0.43958671  0.94243155  0.24348669  1  0  0.102864  0  0.938488  0  0  0.123501  0  1.001659  0  0  0.123417  0  1.00259  0  0  0.105649  0.123481  0  1.001156  0
H  H41  1  0.56038903  0.05756459  0.75653711  1  0  0.102858  0  0.938405  0  0  0.123439  0  1.001642  0  0  0.123355  0  1.002577  0  0  0.10564  0.123422  0  1.001133  0
H  H42  1  0.45433573  0.86866598  0.13582489  1  0  0.091017  0  0.938774  0  0  0.108839  0  1.008382  0  0  0.108929  0  1.008462  0  0  0.098766  0.108612  0  1.00847  0
H  H43  1  0.54569248  0.13129570  0.86421112  1  0  0.090901  0  0.93888  0  0  0.108852  0  1.008366  0  0  0.108945  0  1.008445  0  0  0.098776  0.10862  0  1.008457  0
Pb  Pb44  1  0.86392887  0.14340241  0.06625959  1  0  1.29889  0  1.411288  0  0  1.119641  0  1.803908  0  0  1.182154  0  1.760547  0  0  0.630098  1.073471  0  1.834115  0
Pb  Pb45  1  0.13602225  0.85657226  0.93372421  1  0  1.298857  0  1.41134  0  0  1.119658  0  1.803961  0  0  1.182166  0  1.760629  0  0  0.630073  1.073506  0  1.834162  0
C  C46  1  0.57967465  0.20831741  0.25027363  1  0  0.611031  0  3.976919  0  0  0.564088  0  4.264087  0  0  0.59831  0  4.259912  0  0  0.194945  0.541289  0  4.265411  0
C  C47  1  0.42029286  0.79169721  0.74967738  1  0  0.610956  0  3.97681  0  0  0.5639  0  4.264226  0  0  0.598113  0  4.260047  0  0  0.194678  0.541102  0  4.265549  0
C  C48  1  0.42977202  0.24007559  0.33545276  1  0  -0.113202  0  3.755373  0  0  -0.095201  0  3.989154  0  0  -0.103502  0  4.010982  0  0  -0.025935  -0.090796  0  3.97515  0
C  C49  1  0.57022035  0.75993639  0.66452065  1  0  -0.113028  0  3.755201  0  0  -0.095059  0  3.989099  0  0  -0.103346  0  4.010919  0  0  -0.025954  -0.090657  0  3.97509  0
C  C50  1  0.34655465  0.37203086  0.33479657  1  0  0.040797  0  3.735309  0  0  0.053278  0  3.989298  0  0  0.056421  0  4.011712  0  0  -0.007604  0.051161  0  3.974864  0
C  C51  1  0.65344895  0.62798125  0.66518288  1  0  0.040689  0  3.735308  0  0  0.053196  0  3.989346  0  0  0.056339  0  4.011749  0  0  -0.007666  0.051094  0  3.974885  0
C  C52  1  0.20660321  0.39485521  0.41736711  1  0  -0.141888  0  3.788609  0  0  -0.156651  0  4.031831  0  0  -0.161121  0  4.053226  0  0  -0.103595  -0.153301  0  4.017383  0
C  C53  1  0.79341887  0.60515617  0.58262911  1  0  -0.141783  0  3.788824  0  0  -0.156629  0  4.032009  0  0  -0.161092  0  4.0534  0  0  -0.103576  -0.15328  0  4.017558  0
C  C54  1  0.15176430  0.28944144  0.50056249  1  0  -0.044794  0  3.762628  0  0  -0.057207  0  4.010677  0  0  -0.055878  0  4.029358  0  0  -0.087721  -0.058143  0  3.997584  0
C  C55  1  0.84823371  0.71057359  0.49941236  1  0  -0.04483  0  3.762684  0  0  -0.057215  0  4.010821  0  0  -0.055889  0  4.029498  0  0  -0.087608  -0.058153  0  3.997721  0
C  C56  1  0.23371843  0.15895850  0.50177081  1  0  -0.071497  0  3.748293  0  0  -0.087502  0  4.001607  0  0  -0.089718  0  4.020789  0  0  -0.093424  -0.085884  0  3.9893  0
C  C57  1  0.76627889  0.84105554  0.49820705  1  0  -0.071493  0  3.748461  0  0  -0.087582  0  4.00178  0  0  -0.089792  0  4.020959  0  0  -0.093455  -0.08596  0  3.989471  0
C  C58  1  0.37037191  0.13585912  0.41805195  1  0  -0.062998  0  3.744091  0  0  -0.085515  0  3.993011  0  0  -0.083933  0  4.010843  0  0  -0.081781  -0.086475  0  3.982226  0
C  C59  1  0.62963667  0.86414911  0.58193915  1  0  -0.063035  0  3.743975  0  0  -0.08552  0  3.992892  0  0  -0.083956  0  4.010716  0  0  -0.081758  -0.086483  0  3.982107  0
C  C60  1  0.23384894  0.72619377  0.34495516  1  0  0.035831  0  3.749751  0  0  0.04783  0  4.00379  0  0  0.051264  0  4.025698  0  0  -0.00862  0.045751  0  3.989594  0
C  C61  1  0.76620661  0.27383065  0.65500213  1  0  0.035825  0  3.749805  0  0  0.047955  0  4.00383  0  0  0.051323  0  4.025816  0  0  -0.008372  0.045912  0  3.989569  0
C  C62  1  0.30772175  0.63751452  0.44313766  1  0  -0.144639  0  3.790984  0  0  -0.159603  0  4.033294  0  0  -0.164394  0  4.055709  0  0  -0.103481  -0.155943  0  4.017857  0
C  C63  1  0.69232338  0.36250184  0.55682461  1  0  -0.144486  0  3.790996  0  0  -0.159598  0  4.033269  0  0  -0.164384  0  4.055724  0  0  -0.103566  -0.155935  0  4.017794  0
C  C64  1  0.30515707  0.68052141  0.53517909  1  0  -0.040316  0  3.753175  0  0  -0.050393  0  3.996882  0  0  -0.049365  0  4.015846  0  0  -0.085735  -0.050919  0  3.983054  0
C  C65  1  0.69484457  0.31947773  0.46480755  1  0  -0.040246  0  3.753133  0  0  -0.050343  0  3.996897  0  0  -0.049319  0  4.015863  0  0  -0.08573  -0.050868  0  3.983058  0
C  C66  1  0.23390396  0.81380687  0.52873529  1  0  -0.074011  0  3.741843  0  0  -0.09102  0  3.996282  0  0  -0.093544  0  4.015727  0  0  -0.093501  -0.08888  0  3.983102  0
C  C67  1  0.76609736  0.18619029  0.47125546  1  0  -0.074046  0  3.741858  0  0  -0.091091  0  3.996285  0  0  -0.093607  0  4.015734  0  0  -0.09356  -0.088939  0  3.983143  0
C  C68  1  0.16288642  0.90279711  0.43039989  1  0  -0.065705  0  3.745005  0  0  -0.088693  0  3.994095  0  0  -0.087217  0  4.012816  0  0  -0.08275  -0.090123  0  3.983156  0
C  C69  1  0.83713161  0.09720916  0.56958467  1  0  -0.065691  0  3.744899  0  0  -0.088613  0  3.994043  0  0  -0.087151  0  4.01274  0  0  -0.08275  -0.090053  0  3.983101  0
C  C70  1  0.15742005  0.86031037  0.34017429  1  0  -0.109646  0  3.746166  0  0  -0.09027  0  3.977849  0  0  -0.098606  0  3.999  0  0  -0.022202  -0.085523  0  3.964128  0
C  C71  1  0.84260797  0.13971089  0.65979616  1  0  -0.109477  0  3.746456  0  0  -0.090316  0  3.978337  0  0  -0.098591  0  3.999441  0  0  -0.022189  -0.085581  0  3.964615  0
C  C72  1  0.06101425  0.95446235  0.24646499  1  0  0.638183  0  3.915894  0  0  0.58744  0  4.202818  0  0  0.623235  0  4.19632  0  0  0.204665  0.563614  0  4.205157  0
C  C73  1  0.93894934  0.04555756  0.75353880  1  0  0.637795  0  3.9161  0  0  0.58711  0  4.202978  0  0  0.622892  0  4.196485  0  0  0.204462  0.563284  0  4.20532  0
C  C74  1  0.83018052  0.48310445  0.96797073  1  0  0.384067  0  3.830416  0  0  0.305677  0  4.125024  0  0  0.334582  0  4.125873  0  0  0.16897  0.286506  0  4.123446  0
C  C75  1  0.16982296  0.51688299  0.03206078  1  0  0.384478  0  3.830258  0  0  0.306079  0  4.124855  0  0  0.334989  0  4.125694  0  0  0.169313  0.28691  0  4.123276  0
C  C76  1  0.97855279  0.61779032  0.79877614  1  0  -0.169879  0  3.632449  0  0  -0.269931  0  3.873301  0  0  -0.266039  0  3.883351  0  0  -0.138844  -0.272244  0  3.866293  0
C  C77  1  0.02144123  0.38219796  0.20124440  1  0  -0.169865  0  3.632247  0  0  -0.269855  0  3.873126  0  0  -0.26598  0  3.883171  0  0  -0.138781  -0.272177  0  3.866112  0
C  C78  1  0.72791627  0.72390362  0.91268803  1  0  -0.172306  0  3.64336  0  0  -0.271031  0  3.887907  0  0  -0.267639  0  3.898818  0  0  -0.133065  -0.272964  0  3.880554  0
C  C79  1  0.27209313  0.27609182  0.08733558  1  0  -0.17255  0  3.643315  0  0  -0.271305  0  3.887846  0  0  -0.26793  0  3.898752  0  0  -0.133143  -0.273229  0  3.880484  0
C  C80  1  0.79730722  0.83126143  0.13603322  1  0  0.413343  0  3.801747  0  0  0.334295  0  4.092488  0  0  0.3644  0  4.091195  0  0  0.176409  0.31407  0  4.09262  0
C  C81  1  0.20269366  0.16871284  0.86397634  1  0  0.41292  0  3.801961  0  0  0.333844  0  4.092759  0  0  0.363946  0  4.091475  0  0  0.1763  0.313606  0  4.092897  0
C  C82  1  0.65167437  0.69968227  0.30681180  1  0  -0.169692  0  3.669557  0  0  -0.269403  0  3.914637  0  0  -0.266305  0  3.927408  0  0  -0.133144  -0.271361  0  3.905717  0
C  C83  1  0.34833697  0.30031420  0.69321499  1  0  -0.170268  0  3.669138  0  0  -0.270089  0  3.914301  0  0  -0.266986  0  3.927077  0  0  -0.133298  -0.272037  0  3.905335  0
C  C84  1  0.51507249  0.91183206  0.16538748  1  0  -0.156966  0  3.635214  0  0  -0.259066  0  3.88084  0  0  -0.254529  0  3.890284  0  0  -0.133394  -0.261862  0  3.874331  0
C  C85  1  0.48492517  0.08815932  0.83464479  1  0  -0.156869  0  3.635236  0  0  -0.259081  0  3.880774  0  0  -0.254553  0  3.890212  0  0  -0.133355  -0.261875  0  3.874254  0
S  S86  1  0.42099783  0.50517847  0.22979721  1  0  -0.004197  0  2.522842  0  0  -0.012166  0  2.90144  0  0  -0.010025  0  2.896608  0  0  0.023271  -0.014248  0  2.905135  0
S  S87  1  0.57898732  0.49483328  0.77015040  1  0  -0.004284  0  2.522737  0  0  -0.012249  0  2.901333  0  0  -0.0101  0  2.896498  0  0  0.023251  -0.014338  0  2.905016  0
S  S88  1  0.23112813  0.67360518  0.22757978  1  0  -0.047936  0  2.618072  0  0  -0.048584  0  3.006379  0  0  -0.050062  0  3.003902  0  0  0.026326  -0.048134  0  3.008231  0
S  S89  1  0.76888923  0.32642396  0.77238626  1  0  -0.047763  0  2.61791  0  0  -0.048474  0  3.006228  0  0  -0.04994  0  3.00377  0  0  0.026356  -0.048038  0  3.008062  0
N  N90  1  0.84477528  0.60278598  0.89584544  1  0  -0.080997  0  3.503242  0  0  0.023589  0  3.737183  0  0  0.003052  0  3.763022  0  0  -0.279366  0.037237  0  3.719288  0
N  N91  1  0.15522443  0.39720240  0.10418177  1  0  -0.080992  0  3.503028  0  0  0.023602  0  3.736942  0  0  0.003059  0  3.762793  0  0  -0.279357  0.037252  0  3.719051  0
N  N92  1  0.65988008  0.81541495  0.19977191  1  0  -0.082514  0  3.494065  0  0  0.024854  0  3.723177  0  0  0.004716  0  3.747078  0  0  -0.279621  0.038477  0  3.706564  0
N  N93  1  0.34012039  0.18459452  0.80026974  1  0  -0.081831  0  3.493384  0  0  0.025515  0  3.722499  0  0  0.005385  0  3.746404  0  0  -0.279504  0.039138  0  3.705886  0
O  O94  1  0.64431619  0.30061956  0.18967538  1  0  -0.632828  0  1.985978  0  0  -0.564566  0  2.216297  0  0  -0.595724  0  2.211638  0  0  -0.302027  -0.542173  0  2.218682  0
O  O95  1  0.35564939  0.69939291  0.81025657  1  0  -0.63293  0  1.985586  0  0  -0.564588  0  2.215874  0  0  -0.595778  0  2.211311  0  0  -0.301975  -0.542179  0  2.218223  0
O  O96  1  0.63717659  0.09185414  0.24118222  1  0  -0.63427  0  1.935211  0  0  -0.57376  0  2.165369  0  0  -0.602623  0  2.160221  0  0  -0.310095  -0.552877  0  2.16746  0
O  O97  1  0.36277382  0.90816129  0.75876388  1  0  -0.634096  0  1.93499  0  0  -0.573614  0  2.165266  0  0  -0.602459  0  2.160115  0  0  -0.30993  -0.552768  0  2.167433  0
O  O98  1  0.01126640  0.07889743  0.23200082  1  0  -0.620912  0  1.923506  0  0  -0.555897  0  2.153729  0  0  -0.584853  0  2.146423  0  0  -0.29696  -0.534694  0  2.156954  0
O  O99  1  0.98858440  0.92110892  0.76806975  1  0  -0.620685  0  1.923471  0  0  -0.555637  0  2.153634  0  0  -0.584619  0  2.146399  0  0  -0.296802  -0.534433  0  2.156853  0
O  O100  1  0.02580870  0.90394946  0.18688204  1  0  -0.653109  0  2.0725  0  0  -0.577157  0  2.307534  0  0  -0.610773  0  2.305534  0  0  -0.286272  -0.552361  0  2.307233  0
O  O101  1  0.97420349  0.09607268  0.81309130  1  0  -0.653013  0  2.072336  0  0  -0.577123  0  2.307449  0  0  -0.610699  0  2.305367  0  0  -0.286272  -0.552325  0  2.30715  0
O  O102  1  0.92806901  0.37448855  0.96042456  1  0  -0.573341  0  2.061271  0  0  -0.512549  0  2.315707  0  0  -0.540697  0  2.312184  0  0  -0.300383  -0.492701  0  2.31714  0
O  O103  1  0.07192164  0.62549671  0.03959721  1  0  -0.573567  0  2.061331  0  0  -0.512869  0  2.315972  0  0  -0.541017  0  2.312441  0  0  -0.300552  -0.493018  0  2.317405  0
O  O104  1  0.81634242  0.92489232  0.03937345  1  0  -0.593051  0  2.063708  0  0  -0.528132  0  2.30951  0  0  -0.556396  0  2.305485  0  0  -0.294706  -0.508351  0  2.311477  0
O  O105  1  0.18366259  0.07505585  0.96061258  1  0  -0.592907  0  2.063733  0  0  -0.528025  0  2.309573  0  0  -0.556286  0  2.305549  0  0  -0.294739  -0.508259  0  2.311582  0
