# generated using pymatgen
data_ScH4C8O5
_symmetry_space_group_name_H-M   'P 1'
_cell_length_a   12.51292489
_cell_length_b   15.46498240
_cell_length_c   25.23526772
_cell_angle_alpha   107.83723399
_cell_angle_beta   104.34853699
_cell_angle_gamma   90.00212268
_symmetry_Int_Tables_number   1
_chemical_formula_structural   ScH4C8O5
_chemical_formula_sum   'Sc12 H48 C96 O60'
_cell_volume   4488.28740857
_cell_formula_units_Z   12
loop_
 _symmetry_equiv_pos_site_id
 _symmetry_equiv_pos_as_xyz
  1  'x, y, z'
loop_
 _atom_site_type_symbol
 _atom_site_label
 _atom_site_symmetry_multiplicity
 _atom_site_fract_x
 _atom_site_fract_y
 _atom_site_fract_z
 _atom_site_occupancy
 _atom_site_pbe_bader_charge
 _atom_site_pbe_bader_spin_density
 _atom_site_pbe_cm5_charge
 _atom_site_pbe_ddec_charge
 _atom_site_pbe_ddec_spin_density
 _atom_site_pbe_ddec_sum_bond_order
 _atom_site_pbe_magmom
Sc  Sc0  1  0.48030934  0.03900828  0.21077431  1  2.126938  0  1.232458  1.872861  0  2.141518  0
Sc  Sc1  1  0.68604405  0.99452368  0.12219224  1  2.125636  0  1.23331  1.871431  0  2.140896  0
Sc  Sc2  1  0.60284154  0.79418482  0.45566956  1  2.126575  0  1.232637  1.872393  0  2.139037  0
Sc  Sc3  1  0.23056587  0.17176842  0.21080896  1  2.125793  0  1.233042  1.873331  0  2.141803  0
Sc  Sc4  1  0.93615602  0.12764384  0.12220489  1  2.126716  0  1.233087  1.871379  0  2.139643  0
Sc  Sc5  1  0.35278972  0.66141940  0.45567327  1  2.12596  0  1.232578  1.872072  0  2.140237  0
Sc  Sc6  1  0.26944632  0.46094006  0.78920915  1  2.127371  0  1.23276  1.873559  0  2.140717  0
Sc  Sc7  1  0.56383535  0.50544229  0.87780636  1  2.124034  0  1.233509  1.871284  0  2.141579  0
Sc  Sc8  1  0.14719300  0.70578315  0.54431675  1  2.126316  0  1.232347  1.872041  0  2.138998  0
Sc  Sc9  1  0.01968628  0.32819250  0.78917958  1  2.126052  0  1.232725  1.873808  0  2.140151  0
Sc  Sc10  1  0.81398393  0.37233313  0.87779554  1  2.125053  0  1.233083  1.871878  0  2.138229  0
Sc  Sc11  1  0.89714768  0.83854583  0.54431914  1  2.124405  0  1.232893  1.872394  0  2.140771  0
H  H12  1  0.57539614  0.13773279  0.16114327  1  0.589331  0  0.322066  0.420259  0  0.871508  0
H  H13  1  0.92503434  0.93742266  0.24996298  1  0.106596  0  0.110147  0.113038  0  1.006586  0
H  H14  1  0.09637962  0.02154627  0.29195177  1  0.110187  0  0.110439  0.113448  0  1.005293  0
H  H15  1  0.41366264  0.91675894  0.33340190  1  0.120743  0  0.120088  0.131022  0  0.984999  0
H  H16  1  0.13739303  0.81222022  0.37460062  1  0.087183  0  0.109733  0.112047  0  1.007399  0
H  H17  1  0.00827843  0.89639558  0.41689766  1  0.095976  0  0.109912  0.112449  0  1.007547  0
H  H18  1  0.66985814  0.91682852  0.33333635  1  0.121492  0  0.120182  0.131063  0  0.984601  0
H  H19  1  0.24209417  0.85339026  0.08367734  1  0.111255  0  0.109781  0.112523  0  1.006999  0
H  H20  1  0.07042571  0.89604731  0.04098758  1  0.111266  0  0.109642  0.111789  0  1.008009  0
H  H21  1  0.08578467  0.02345990  0.16114733  1  0.61351  0  0.321887  0.418809  0  0.873653  0
H  H22  1  0.82505700  0.31248917  0.24993696  1  0.111799  0  0.110287  0.113182  0  1.006195  0
H  H23  1  0.69568145  0.27047005  0.29198056  1  0.09024  0  0.110256  0.11359  0  1.005374  0
H  H24  1  0.41974178  0.41662299  0.33338290  1  0.121073  0  0.120145  0.131192  0  0.985088  0
H  H25  1  0.73710827  0.56247387  0.37457811  1  0.090303  0  0.109725  0.112492  0  1.006554  0
H  H26  1  0.90847556  0.52047803  0.41683373  1  0.063609  0  0.110213  0.113096  0  1.006613  0
H  H27  1  0.16352562  0.41659657  0.33338461  1  0.12212  0  0.120273  0.131412  0  0.984562  0
H  H28  1  0.34154965  0.23032817  0.08373406  1  0.094824  0  0.109412  0.111816  0  1.00821  0
H  H29  1  0.47051254  0.14504981  0.04099257  1  0.091754  0  0.109409  0.111239  0  1.008948  0
H  H30  1  0.41420588  0.36224890  0.83884314  1  0.585125  0  0.322084  0.419694  0  0.872266  0
H  H31  1  0.67495932  0.56257796  0.75010773  1  0.096149  0  0.11004  0.112999  0  1.007092  0
H  H32  1  0.80426914  0.47846609  0.70800161  1  0.096674  0  0.110256  0.112904  0  1.006082  0
H  H33  1  0.08024101  0.58321314  0.66662755  1  0.120254  0  0.120074  0.130774  0  0.985314  0
H  H34  1  0.76285895  0.68785927  0.62539291  1  0.104676  0  0.109736  0.11245  0  1.006836  0
H  H35  1  0.59150268  0.60354339  0.58314963  1  0.108581  0  0.109994  0.11267  0  1.00741  0
H  H36  1  0.33647593  0.58317071  0.66661289  1  0.122642  0  0.120153  0.131172  0  0.985209  0
H  H37  1  0.15850140  0.64659717  0.91632093  1  0.118359  0  0.109314  0.111767  0  1.007223  0
H  H38  1  0.02943709  0.60404742  0.95901100  1  0.089523  0  0.109238  0.111782  0  1.00858  0
H  H39  1  0.92462460  0.47653247  0.83883623  1  0.614627  0  0.321857  0.419609  0  0.872598  0
H  H40  1  0.57500502  0.18748850  0.75005942  1  0.112467  0  0.110346  0.113527  0  1.005975  0
H  H41  1  0.40365216  0.22958151  0.70801818  1  0.089788  0  0.110558  0.113883  0  1.004528  0
H  H42  1  0.08634591  0.08338787  0.66661520  1  0.120737  0  0.120096  0.130868  0  0.985339  0
H  H43  1  0.36256208  0.93758866  0.62541618  1  0.093141  0  0.109641  0.112817  0  1.007303  0
H  H44  1  0.49171218  0.97949520  0.58315234  1  0.11168  0  0.109736  0.11216  0  1.007023  0
H  H45  1  0.83013383  0.08347372  0.66665960  1  0.122767  0  0.120147  0.131184  0  0.984857  0
H  H46  1  0.25792975  0.26964567  0.91632603  1  0.108379  0  0.109848  0.112764  0  1.0078  0
H  H47  1  0.42957191  0.35500519  0.95896870  1  0.103729  0  0.109696  0.111768  0  1.008165  0
H  H48  1  0.85231232  0.10229829  0.20462253  1  0.600934  0  0.322959  0.420544  0  0.870798  0
H  H49  1  0.64768078  0.39770750  0.79536585  1  0.601226  0  0.322964  0.420362  0  0.87102  0
H  H50  1  0.31388731  0.06387015  0.12777971  1  0.580806  0  0.321388  0.4185  0  0.873885  0
H  H51  1  0.18606640  0.43609310  0.87221184  1  0.580174  0  0.321406  0.418582  0  0.873808  0
H  H52  1  0.51919358  0.76918985  0.53841182  1  0.590458  0  0.322459  0.419421  0  0.872343  0
H  H53  1  0.98078824  0.73079553  0.46157414  1  0.590408  0  0.32234  0.419187  0  0.872682  0
H  H54  1  0.74998348  0.69232011  0.49999785  1  0.588358  0  0.322394  0.419257  0  0.872654  0
H  H55  1  0.24999032  0.80767082  0.49998892  1  0.588783  0  0.322394  0.419469  0  0.872382  0
H  H56  1  0.49702990  0.75006195  0.00001585  1  0.120764  0  0.120087  0.13126  0  0.985041  0
H  H57  1  0.75316248  0.75002219  0.00000318  1  0.123375  0  0.120403  0.131418  0  0.984826  0
H  H58  1  0.00301481  0.25002472  0.99999769  1  0.12036  0  0.120066  0.131169  0  0.985239  0
H  H59  1  0.74683263  0.24998709  0.99999564  1  0.122575  0  0.120329  0.13117  0  0.984936  0
C  C60  1  0.70812434  0.95237624  0.24014451  1  1.568067  0  0.250157  0.65211  0  4.137662  0
C  C61  1  0.79056636  0.93186856  0.28783558  1  -0.008576  0  -0.01503  -0.045098  0  3.988002  0
C  C62  1  0.90216242  0.92969986  0.28733874  1  -0.085749  0  -0.070003  -0.122152  0  3.907978  0
C  C63  1  0.98269891  0.91703236  0.33346482  1  0.019751  0  -0.005491  0.064868  0  4.012697  0
C  C64  1  0.10096959  0.91707771  0.33345586  1  0.090999  0  -0.005017  0.065657  0  4.013274  0
C  C65  1  0.14669736  0.97442651  0.30971548  1  -0.055371  0  -0.069809  -0.121621  0  3.904141  0
C  C66  1  0.25797101  0.97302551  0.30851612  1  -0.047349  0  -0.013953  -0.043355  0  3.986616  0
C  C67  1  0.30214361  0.02967339  0.27899102  1  1.565947  0  0.249589  0.652537  0  4.142219  0
C  C68  1  0.32668517  0.91693275  0.33345743  1  0.009807  0  -0.062618  -0.084099  0  3.895796  0
C  C69  1  0.28274225  0.86085828  0.35835126  1  -0.013326  0  -0.013855  -0.041964  0  3.985824  0
C  C70  1  0.35614053  0.80364419  0.38754393  1  1.575464  0  0.250418  0.652087  0  4.137677  0
C  C71  1  0.17026225  0.85958871  0.35711836  1  -0.096144  0  -0.071248  -0.123477  0  3.907704  0
C  C72  1  0.94812902  0.90429526  0.37954967  1  -0.04804  0  -0.070658  -0.122786  0  3.9057  0
C  C73  1  0.83599025  0.90217850  0.37901272  1  -0.019129  0  -0.012859  -0.041108  0  3.983883  0
C  C74  1  0.75689604  0.91699397  0.33339784  1  0.009579  0  -0.061608  -0.082896  0  3.893485  0
C  C75  1  0.80104177  0.88190766  0.42674206  1  1.562189  0  0.250092  0.652595  0  4.136072  0
C  C76  1  0.45936763  0.87741939  0.09373191  1  1.575283  0  0.249914  0.653242  0  4.138787  0
C  C77  1  0.37652630  0.80995390  0.04577406  1  -0.010399  0  -0.015487  -0.044832  0  3.989192  0
C  C78  1  0.26489906  0.80846400  0.04623395  1  -0.085658  0  -0.070686  -0.122613  0  3.90732  0
C  C79  1  0.02018125  0.83115380  0.02355964  1  -0.051422  0  -0.071096  -0.123767  0  3.90768  0
C  C80  1  0.90889961  0.83103395  0.02474250  1  -0.082174  0  -0.014115  -0.043722  0  3.989338  0
C  C81  1  0.86483679  0.91747228  0.05393227  1  1.577313  0  0.249929  0.653307  0  4.138698  0
C  C82  1  0.03211654  0.28773522  0.24015485  1  1.583724  0  0.251154  0.652965  0  4.137422  0
C  C83  1  0.99737403  0.35600313  0.28781403  1  -0.040828  0  -0.01373  -0.04238  0  3.987563  0
C  C84  1  0.88524751  0.35764371  0.28729759  1  -0.063745  0  -0.070867  -0.123088  0  3.904332  0
C  C85  1  0.85073707  0.41645069  0.33338696  1  0.020664  0  -0.005183  0.064855  0  4.009469  0
C  C86  1  0.73246579  0.41645783  0.33340347  1  0.046561  0  -0.005098  0.065686  0  4.010112  0
C  C87  1  0.66307633  0.33533440  0.30971898  1  -0.066967  0  -0.070673  -0.123644  0  3.905392  0
C  C88  1  0.55062036  0.33550334  0.30852038  1  -0.031677  0  -0.013196  -0.041619  0  3.986479  0
C  C89  1  0.47699007  0.24930685  0.27899903  1  1.568843  0  0.250951  0.654893  0  4.136566  0
C  C90  1  0.50676422  0.41652186  0.33341981  1  0.052176  0  -0.061921  -0.08298  0  3.896877  0
C  C91  1  0.57554459  0.49750617  0.35830240  1  -0.069711  0  -0.015176  -0.045891  0  3.990727  0
C  C92  1  0.53136552  0.58385137  0.38756399  1  1.571598  0  0.251571  0.655844  0  4.137751  0
C  C93  1  0.68679894  0.49760116  0.35707554  1  -0.025689  0  -0.070256  -0.121958  0  3.905272  0
C  C94  1  0.93132033  0.47522965  0.37949969  1  -0.035016  0  -0.070627  -0.123118  0  3.905744  0
C  C95  1  0.04293002  0.47680120  0.37900632  1  -0.005605  0  -0.014533  -0.042737  0  3.98756  0
C  C96  1  0.07651662  0.41644404  0.33339328  1  0.002562  0  -0.061811  -0.084136  0  3.896522  0
C  C97  1  0.12554431  0.54481306  0.42676688  1  1.575998  0  0.250604  0.653221  0  4.13673  0
C  C98  1  0.13435078  0.21638214  0.09378840  1  1.58216  0  0.250384  0.653044  0  4.137712  0
C  C99  1  0.16921311  0.23584087  0.04580800  1  -0.04512  0  -0.013488  -0.041481  0  3.985466  0
C  C100  1  0.28132737  0.23779581  0.04627721  1  -0.044633  0  -0.070357  -0.122019  0  3.906305  0
C  C101  1  0.50334608  0.19248323  0.02354797  1  -0.085667  0  -0.071736  -0.124326  0  3.910149  0
C  C102  1  0.61580385  0.19373259  0.02473681  1  -0.005809  0  -0.013504  -0.041072  0  3.985934  0
C  C103  1  0.68906312  0.13647482  0.05393080  1  1.567163  0  0.249831  0.651623  0  4.140558  0
C  C104  1  0.46784955  0.54755231  0.75984663  1  1.579766  0  0.250873  0.652656  0  4.137463  0
C  C105  1  0.50262647  0.56813344  0.71218696  1  -0.050348  0  -0.013616  -0.042561  0  3.987536  0
C  C106  1  0.61476268  0.57030860  0.71272368  1  -0.039278  0  -0.070336  -0.122828  0  3.906072  0
C  C107  1  0.64925114  0.58300030  0.66660434  1  -0.036322  0  -0.00568  0.064676  0  4.011168  0
C  C108  1  0.76751000  0.58302184  0.66657494  1  0.064348  0  -0.004941  0.065838  0  4.014101  0
C  C109  1  0.83688501  0.52560050  0.69027032  1  -0.088428  0  -0.070273  -0.122026  0  3.906581  0
C  C110  1  0.94934902  0.52696552  0.69147189  1  -0.025422  0  -0.013833  -0.042861  0  3.985836  0
C  C111  1  0.02306936  0.47032415  0.72100007  1  1.565625  0  0.250462  0.65496  0  4.134461  0
C  C112  1  0.99319457  0.58306172  0.66655004  1  0.028854  0  -0.061911  -0.082102  0  3.895558  0
C  C113  1  0.92444484  0.63917815  0.64166375  1  -0.052063  0  -0.014664  -0.045404  0  3.988931  0
C  C114  1  0.96863934  0.69635330  0.61245074  1  1.569782  0  0.250423  0.653079  0  4.140124  0
C  C115  1  0.81318404  0.64050272  0.64290665  1  -0.042486  0  -0.070269  -0.12234  0  3.907752  0
C  C116  1  0.56864454  0.59565869  0.62049369  1  -0.032735  0  -0.070297  -0.122184  0  3.907116  0
C  C117  1  0.45704983  0.59780408  0.62100540  1  0.002041  0  -0.014781  -0.044076  0  3.987  0
C  C118  1  0.42348141  0.58302227  0.66661476  1  0.018664  0  -0.06166  -0.0832  0  3.895784  0
C  C119  1  0.37434806  0.61804617  0.57326484  1  1.555376  0  0.249485  0.651474  0  4.137254  0
C  C120  1  0.36563710  0.62259357  0.90622714  1  1.577053  0  0.249764  0.653201  0  4.139586  0
C  C121  1  0.33081205  0.69005965  0.95420651  1  -0.032932  0  -0.01355  -0.041926  0  3.987051  0
C  C122  1  0.21872186  0.69153347  0.95377073  1  -0.071667  0  -0.070409  -0.122163  0  3.90522  0
C  C123  1  0.99661693  0.66893762  0.97643991  1  -0.06576  0  -0.0715  -0.125534  0  3.909992  0
C  C124  1  0.88416272  0.66901471  0.97524965  1  -0.002589  0  -0.013418  -0.040987  0  3.987544  0
C  C125  1  0.81095805  0.58254032  0.94605838  1  1.559709  0  0.250272  0.652258  0  4.137117  0
C  C126  1  0.79188061  0.21218250  0.75988594  1  1.573793  0  0.250675  0.652794  0  4.135052  0
C  C127  1  0.70945500  0.14396952  0.71220235  1  -0.001695  0  -0.014422  -0.04356  0  3.988903  0
C  C128  1  0.59784922  0.14235256  0.71269195  1  -0.090575  0  -0.070423  -0.123269  0  3.907077  0
C  C129  1  0.51731928  0.08356225  0.66657332  1  0.024766  0  -0.0056  0.064831  0  4.010056  0
C  C130  1  0.39903833  0.08359362  0.66655884  1  0.047507  0  -0.004695  0.066068  0  4.011164  0
C  C131  1  0.35333255  0.16470401  0.69027023  1  -0.029912  0  -0.07025  -0.122665  0  3.902481  0
C  C132  1  0.24206597  0.16449142  0.69147220  1  -0.064977  0  -0.014015  -0.043177  0  3.987453  0
C  C133  1  0.19792751  0.25065182  0.72100225  1  1.574024  0  0.250501  0.653112  0  4.139743  0
C  C134  1  0.17333587  0.08346878  0.66657582  1  0.024209  0  -0.061723  -0.082683  0  3.896212  0
C  C135  1  0.21726039  0.00250317  0.64167886  1  -0.012019  0  -0.014753  -0.043248  0  3.988212  0
C  C136  1  0.14389671  0.91612150  0.61242449  1  1.569392  0  0.250806  0.653875  0  4.137446  0
C  C137  1  0.32972563  0.00245177  0.64289753  1  -0.062684  0  -0.070605  -0.124162  0  3.908517  0
C  C138  1  0.55187557  0.02476515  0.62048224  1  -0.065527  0  -0.070512  -0.122371  0  3.904138  0
C  C139  1  0.66399817  0.02318672  0.62098858  1  -0.029901  0  -0.013392  -0.041411  0  3.98604  0
C  C140  1  0.74310452  0.08357810  0.66661504  1  -0.003716  0  -0.06158  -0.083665  0  3.895463  0
C  C141  1  0.69886517  0.95517488  0.57322715  1  1.576388  0  0.251287  0.654643  0  4.136237  0
C  C142  1  0.04066113  0.28365181  0.90625887  1  1.567041  0  0.250125  0.654108  0  4.138924  0
C  C143  1  0.12350873  0.26417396  0.95423057  1  -0.013557  0  -0.015188  -0.044933  0  3.987809  0
C  C144  1  0.23513200  0.26218431  0.95377984  1  -0.03028  0  -0.070694  -0.12309  0  3.909584  0
C  C145  1  0.47982150  0.30756089  0.97642401  1  -0.048904  0  -0.071015  -0.123852  0  3.910348  0
C  C146  1  0.59110645  0.30625543  0.97523499  1  -0.056434  0  -0.014201  -0.043811  0  3.988178  0
C  C147  1  0.63516925  0.36354602  0.94606516  1  1.577904  0  0.249592  0.652756  0  4.139322  0
C  C148  1  0.41000823  0.75002372  0.99998980  1  -0.002144  0  -0.061108  -0.081879  0  3.895954  0
C  C149  1  0.18425467  0.75000241  0.99999511  1  0.061142  0  -0.005797  0.063678  0  4.011371  0
C  C150  1  0.06597690  0.75003745  0.99999929  1  0.011212  0  -0.00501  0.067608  0  4.010936  0
C  C151  1  0.84016831  0.75002490  0.00000283  1  0.032272  0  -0.062167  -0.083716  0  3.896408  0
C  C152  1  0.09002612  0.25001752  0.00001513  1  0.014623  0  -0.061243  -0.081786  0  3.89562  0
C  C153  1  0.31577346  0.25000797  0.00003213  1  0.00409  0  -0.00615  0.063559  0  4.012933  0
C  C154  1  0.43402388  0.25004074  0.00000373  1  0.029813  0  -0.004867  0.067538  0  4.014179  0
C  C155  1  0.65981840  0.24998120  0.99998326  1  0.007954  0  -0.061945  -0.083114  0  3.895343  0
O  O156  1  0.73632206  0.94600234  0.19399902  1  -1.203588  0  -0.362009  -0.638959  0  2.254709  0
O  O157  1  0.61540381  0.97729289  0.24911980  1  -1.191728  0  -0.362125  -0.63135  0  2.229109  0
O  O158  1  0.69918271  0.85750364  0.41780414  1  -1.197563  0  -0.361853  -0.633298  0  2.230187  0
O  O159  1  0.87537623  0.88811317  0.47284588  1  -1.204843  0  -0.362943  -0.640623  0  2.252722  0
O  O160  1  0.31037178  0.74009903  0.39873415  1  -1.195779  0  -0.363624  -0.641787  0  2.252234  0
O  O161  1  0.46021154  0.82344180  0.40071646  1  -1.187014  0  -0.361666  -0.632362  0  2.231362  0
O  O162  1  0.39218715  0.00864710  0.26513199  1  -1.196027  0  -0.361806  -0.63206  0  2.233981  0
O  O163  1  0.24610231  0.09385104  0.26814223  1  -1.197695  0  -0.36277  -0.641076  0  2.252987  0
O  O164  1  0.55250027  0.89263999  0.08491689  1  -1.194952  0  -0.362808  -0.635196  0  2.231576  0
O  O165  1  0.43102628  0.91707503  0.13983855  1  -1.203951  0  -0.362476  -0.641135  0  2.253103  0
O  O166  1  0.92256806  0.99197489  0.06549579  1  -1.200541  0  -0.363852  -0.642081  0  2.254151  0
O  O167  1  0.77354780  0.91110827  0.06676619  1  -1.194132  0  -0.35982  -0.631073  0  2.231989  0
O  O168  1  0.58163235  0.07764059  0.16554012  1  -1.258563  0  -0.709342  -1.05787  0  1.95131  0
O  O169  1  0.95773983  0.24780009  0.19406662  1  -1.207215  0  -0.364024  -0.641149  0  2.254365  0
O  O170  1  0.13382613  0.27187402  0.24910374  1  -1.201671  0  -0.361168  -0.63055  0  2.229879  0
O  O171  1  0.21843756  0.56038498  0.41783150  1  -1.195052  0  -0.36283  -0.634583  0  2.230027  0
O  O172  1  0.09731049  0.58463632  0.47288708  1  -1.207126  0  -0.362207  -0.640117  0  2.252741  0
O  O173  1  0.58833824  0.65858411  0.39876946  1  -1.202917  0  -0.363788  -0.642635  0  2.251766  0
O  O174  1  0.44054344  0.57719044  0.40079962  1  -1.194619  0  -0.362023  -0.633233  0  2.231957  0
O  O175  1  0.37307716  0.25643722  0.26513399  1  -1.183214  0  -0.361911  -0.633952  0  2.231786  0
O  O176  1  0.52222204  0.17430534  0.26813408  1  -1.206401  0  -0.363701  -0.641947  0  2.250067  0
O  O177  1  0.03236590  0.19251263  0.08502302  1  -1.198672  0  -0.362529  -0.635196  0  2.230497  0
O  O178  1  0.20885161  0.22268838  0.13984232  1  -1.206699  0  -0.363875  -0.642135  0  2.253273  0
O  O179  1  0.64290604  0.07350317  0.06546885  1  -1.197936  0  -0.363478  -0.641688  0  2.257132  0
O  O180  1  0.79318398  0.15573171  0.06680122  1  -1.179056  0  -0.360783  -0.631887  0  2.231283  0
O  O181  1  0.08395773  0.08796781  0.16560704  1  -1.284483  0  -0.709008  -1.055416  0  1.951633  0
O  O182  1  0.54219019  0.55380606  0.80596121  1  -1.207661  0  -0.363555  -0.640104  0  2.255099  0
O  O183  1  0.36614254  0.52269437  0.75087130  1  -1.197824  0  -0.361288  -0.63106  0  2.230343  0
O  O184  1  0.28143830  0.64248866  0.58220905  1  -1.192811  0  -0.362312  -0.633558  0  2.228923  0
O  O185  1  0.40256424  0.61177338  0.52714071  1  -1.202228  0  -0.361636  -0.638924  0  2.253351  0
O  O186  1  0.91165506  0.75986793  0.60123826  1  -1.20059  0  -0.363506  -0.641803  0  2.252944  0
O  O187  1  0.05951797  0.67654290  0.59926084  1  -1.195747  0  -0.361703  -0.632231  0  2.232694  0
O  O188  1  0.12697100  0.49136470  0.73485920  1  -1.179581  0  -0.362283  -0.633859  0  2.230702  0
O  O189  1  0.97789213  0.40613130  0.73184318  1  -1.195136  0  -0.36303  -0.641979  0  2.250231  0
O  O190  1  0.46758335  0.60737024  0.91503001  1  -1.199788  0  -0.362051  -0.634405  0  2.232173  0
O  O191  1  0.29117211  0.58293600  0.86013773  1  -1.204661  0  -0.363648  -0.642672  0  2.253058  0
O  O192  1  0.85716886  0.50805340  0.93449952  1  -1.207181  0  -0.363761  -0.641677  0  2.253856  0
O  O193  1  0.70683240  0.58885120  0.93321348  1  -1.180145  0  -0.360807  -0.63198  0  2.229959  0
O  O194  1  0.41599383  0.42235804  0.83446913  1  -1.256337  0  -0.709265  -1.056936  0  1.951029  0
O  O195  1  0.76364062  0.25201933  0.80600744  1  -1.204444  0  -0.362542  -0.639533  0  2.251763  0
O  O196  1  0.88461620  0.22810129  0.75092457  1  -1.195722  0  -0.36233  -0.632339  0  2.228324  0
O  O197  1  0.80070536  0.93965849  0.58215207  1  -1.199227  0  -0.362188  -0.634311  0  2.23126  0
O  O198  1  0.62451084  0.91530915  0.52712112  1  -1.20429  0  -0.363569  -0.641979  0  2.251679  0
O  O199  1  0.18969240  0.84140425  0.60124806  1  -1.209019  0  -0.363908  -0.642033  0  2.251403  0
O  O200  1  0.03983724  0.92275100  0.59914504  1  -1.179891  0  -0.361544  -0.632954  0  2.231003  0
O  O201  1  0.10786533  0.24350190  0.73485169  1  -1.198565  0  -0.361559  -0.63252  0  2.232442  0
O  O202  1  0.25402084  0.32566053  0.73186618  1  -1.202566  0  -0.363839  -0.641493  0  2.250657  0
O  O203  1  0.94746807  0.30755623  0.91504058  1  -1.19503  0  -0.362944  -0.635985  0  2.230506  0
O  O204  1  0.06907981  0.27731799  0.86018479  1  -1.201632  0  -0.362612  -0.641584  0  2.25476  0
O  O205  1  0.57744698  0.42649416  0.93452347  1  -1.20041  0  -0.363554  -0.641886  0  2.255852  0
O  O206  1  0.72645664  0.34435022  0.93322389  1  -1.196502  0  -0.360384  -0.631419  0  2.23138  0
O  O207  1  0.91829116  0.41202294  0.83436763  1  -1.282857  0  -0.709182  -1.057063  0  1.951683  0
O  O208  1  0.83147459  0.08125403  0.16280300  1  -1.269606  0  -0.709691  -1.055985  0  1.953367  0
O  O209  1  0.66862652  0.41864560  0.83718623  1  -1.268624  0  -0.709735  -1.055936  0  1.953193  0
O  O210  1  0.33483662  0.08480528  0.16959986  1  -1.251639  0  -0.708255  -1.056668  0  1.952797  0
O  O211  1  0.16513209  0.41518101  0.83039156  1  -1.251276  0  -0.708317  -1.056852  0  1.952175  0
O  O212  1  0.49834563  0.74816198  0.49658892  1  -1.259771  0  -0.709276  -1.055993  0  1.952789  0
O  O213  1  0.00175590  0.75176971  0.50339658  1  -1.259182  0  -0.709041  -1.055545  0  1.953076  0
O  O214  1  0.74999032  0.75505003  0.50000744  1  -1.260017  0  -0.709325  -1.055599  0  1.95189  0
O  O215  1  0.24998128  0.74494239  0.49998353  1  -1.257274  0  -0.709649  -1.056526  0  1.953038  0
