# generated using pymatgen
data_NaH5C5N6O
_symmetry_space_group_name_H-M   'P 1'
_cell_length_a   6.62779193
_cell_length_b   7.22231376
_cell_length_c   16.65691414
_cell_angle_alpha   88.51178705
_cell_angle_beta   88.26709317
_cell_angle_gamma   77.18453268
_symmetry_Int_Tables_number   1
_chemical_formula_structural   NaH5C5N6O
_chemical_formula_sum   'Na4 H20 C20 N24 O4'
_cell_volume   776.96371564
_cell_formula_units_Z   4
loop_
 _symmetry_equiv_pos_site_id
 _symmetry_equiv_pos_as_xyz
  1  'x, y, z'
loop_
 _atom_site_type_symbol
 _atom_site_label
 _atom_site_symmetry_multiplicity
 _atom_site_fract_x
 _atom_site_fract_y
 _atom_site_fract_z
 _atom_site_occupancy
 _atom_site_hle17_bader_spin_density
 _atom_site_hle17_ddec_charge
 _atom_site_hle17_ddec_spin_density
 _atom_site_hle17_ddec_sum_bond_order
 _atom_site_hle17_magmom
 _atom_site_hse06_10hf_bader_spin_density
 _atom_site_hse06_10hf_ddec_charge
 _atom_site_hse06_10hf_ddec_spin_density
 _atom_site_hse06_10hf_ddec_sum_bond_order
 _atom_site_hse06_10hf_magmom
 _atom_site_hse06_bader_spin_density
 _atom_site_hse06_ddec_charge
 _atom_site_hse06_ddec_spin_density
 _atom_site_hse06_ddec_sum_bond_order
 _atom_site_hse06_magmom
 _atom_site_pbe_bader_spin_density
 _atom_site_pbe_cm5_charge
 _atom_site_pbe_ddec_charge
 _atom_site_pbe_ddec_spin_density
 _atom_site_pbe_ddec_sum_bond_order
 _atom_site_pbe_magmom
Na  Na0  1  0.20323260  0.27089352  0.70176586  1  0  0.847487  0  0.449777  0  0  0.771009  0  0.640099  0  0  0.784463  0  0.61571  0  0  0.699641  0.761354  0  0.657332  0
Na  Na1  1  0.79676289  0.72910635  0.29823423  1  0  0.847475  0  0.449792  0  0  0.771003  0  0.640104  0  0  0.784454  0  0.615714  0  0  0.699642  0.761347  0  0.657337  0
Na  Na2  1  0.55160319  0.39269207  0.86501494  1  0  0.82186  0  0.466156  0  0  0.727442  0  0.673039  0  0  0.742626  0  0.648459  0  0  0.697772  0.716634  0  0.690296  0
Na  Na3  1  0.44839682  0.60730782  0.13498510  1  0  0.821857  0  0.466163  0  0  0.727453  0  0.673022  0  0  0.742629  0  0.648435  0  0  0.697767  0.716642  0  0.690277  0
H  H4  1  0.30658606  0.88754262  0.76298367  1  0  0.379074  0  0.943117  0  0  0.337892  0  1.024646  0  0  0.34896  0  1.008652  0  0  0.27638  0.330103  0  1.035848  0
H  H5  1  0.69341698  0.11245727  0.23701752  1  0  0.379079  0  0.943122  0  0  0.337896  0  1.024653  0  0  0.348963  0  1.008659  0  0  0.276368  0.330105  0  1.035857  0
H  H6  1  0.19209335  0.87852981  0.68144786  1  0  0.386971  0  0.926512  0  0  0.349389  0  1.003842  0  0  0.359565  0  0.98882  0  0  0.27803  0.342198  0  1.014439  0
H  H7  1  0.80791120  0.12147008  0.31855271  1  0  0.386947  0  0.926538  0  0  0.349376  0  1.003851  0  0  0.359552  0  0.988829  0  0  0.278005  0.342184  0  1.014448  0
H  H8  1  0.21139283  0.21695393  0.87088576  1  0  0.382787  0  0.9449  0  0  0.341719  0  1.025953  0  0  0.353342  0  1.009112  0  0  0.277436  0.333565  0  1.037748  0
H  H9  1  0.78860870  0.78304596  0.12911426  1  0  0.382813  0  0.94486  0  0  0.341745  0  1.025914  0  0  0.353367  0  1.009075  0  0  0.277445  0.33359  0  1.03771  0
H  H10  1  0.09899790  0.43631189  0.85640298  1  0  0.383408  0  0.938292  0  0  0.34397  0  1.017445  0  0  0.355013  0  1.001238  0  0  0.280071  0.336202  0  1.02883  0
H  H11  1  0.90100177  0.56368941  0.14359644  1  0  0.383412  0  0.938285  0  0  0.343978  0  1.017433  0  0  0.355019  0  1.001228  0  0  0.280076  0.336209  0  1.02882  0
H  H12  1  0.42472640  0.18707053  0.50353357  1  0  0.079619  0  0.975054  0  0  0.081084  0  1.050113  0  0  0.084631  0  1.047507  0  0  0.115145  0.078446  0  1.052222  0
H  H13  1  0.57527142  0.81293219  0.49646766  1  0  0.079613  0  0.975097  0  0  0.081085  0  1.050138  0  0  0.084631  0  1.047533  0  0  0.11515  0.078448  0  1.052247  0
H  H14  1  0.30707223  0.12898399  0.36564080  1  0  0.08976  0  0.943049  0  0  0.096991  0  1.009019  0  0  0.100175  0  1.006871  0  0  0.118469  0.094639  0  1.010728  0
H  H15  1  0.69292339  0.87102157  0.63435983  1  0  0.089788  0  0.942955  0  0  0.096995  0  1.008942  0  0  0.100178  0  1.006795  0  0  0.118495  0.094644  0  1.010648  0
H  H16  1  0.69327140  0.29797916  0.44625348  1  0  0.099643  0  0.938575  0  0  0.104578  0  1.006964  0  0  0.108192  0  1.003964  0  0  0.123109  0.101865  0  1.00941  0
H  H17  1  0.30672292  0.70201929  0.55374484  1  0  0.099612  0  0.938643  0  0  0.104581  0  1.007007  0  0  0.108197  0  1.004006  0  0  0.123108  0.101868  0  1.009458  0
H  H18  1  0.77547652  0.02118994  0.73740753  1  0  0.083577  0  0.947522  0  0  0.09107  0  1.010474  0  0  0.093289  0  1.009975  0  0  0.126296  0.08936  0  1.011111  0
H  H19  1  0.22452164  0.97881136  0.26259191  1  0  0.083607  0  0.947535  0  0  0.091098  0  1.01048  0  0  0.093318  0  1.009979  0  0  0.126315  0.08939  0  1.011114  0
H  H20  1  0.91651308  0.66532960  0.74450227  1  0  0.08487  0  0.970071  0  0  0.086231  0  1.045366  0  0  0.089604  0  1.04271  0  0  0.123973  0.083764  0  1.047388  0
H  H21  1  0.08348554  0.33467597  0.25549532  1  0  0.084904  0  0.970001  0  0  0.086194  0  1.045359  0  0  0.0896  0  1.042675  0  0  0.123933  0.083727  0  1.047379  0
H  H22  1  0.87984746  0.68091244  0.99362579  1  0  0.096495  0  0.922005  0  0  0.106856  0  0.983099  0  0  0.109928  0  0.980517  0  0  0.13024  0.104595  0  0.985084  0
H  H23  1  0.12016079  0.31908461  0.00637297  1  0  0.096524  0  0.921961  0  0  0.106846  0  0.983098  0  0  0.109916  0  0.980519  0  0  0.130242  0.104585  0  0.985086  0
C  C24  1  0.26128807  0.20424467  0.49060583  1  0  0.08284  0  3.719066  0  0  0.060089  0  3.978358  0  0  0.061248  0  3.995888  0  0  0.052618  0.059236  0  3.966665  0
C  C25  1  0.73870406  0.79575662  0.50939549  1  0  0.082839  0  3.718802  0  0  0.060084  0  3.978106  0  0  0.061243  0  3.995635  0  0  0.052637  0.059231  0  3.966413  0
C  C26  1  0.19436372  0.17503579  0.41431593  1  0  0.061541  0  3.68405  0  0  0.031264  0  3.945887  0  0  0.033051  0  3.963605  0  0  0.046216  0.030062  0  3.933929  0
C  C27  1  0.80563478  0.82496410  0.58568292  1  0  0.061505  0  3.684067  0  0  0.031254  0  3.945928  0  0  0.033039  0  3.963651  0  0  0.046174  0.030051  0  3.933974  0
C  C28  1  0.85788071  0.26520730  0.45910559  1  0  0.06093  0  3.637989  0  0  0.026066  0  3.893316  0  0  0.028082  0  3.908805  0  0  0.06142  0.024662  0  3.883131  0
C  C29  1  0.14211512  0.73479116  0.54089331  1  0  0.060939  0  3.637898  0  0  0.026021  0  3.893222  0  0  0.028037  0  3.908708  0  0  0.061386  0.024616  0  3.883042  0
C  C30  1  0.92517218  0.28846652  0.53683323  1  0  0.125787  0  3.791121  0  0  0.131954  0  4.033431  0  0  0.13458  0  4.053647  0  0  0.128752  0.129886  0  4.019993  0
C  C31  1  0.07482132  0.71152909  0.46316694  1  0  0.125692  0  3.791296  0  0  0.131914  0  4.033539  0  0  0.134541  0  4.053752  0  0  0.128811  0.129846  0  4.020103  0
C  C32  1  0.77877330  0.34314905  0.60369188  1  0  0.203668  0  3.867233  0  0  0.182657  0  4.142255  0  0  0.188206  0  4.162392  0  0  0.195867  0.179163  0  4.128449  0
C  C33  1  0.22122171  0.65684656  0.39630826  1  0  0.20386  0  3.867288  0  0  0.182828  0  4.142309  0  0  0.188375  0  4.162447  0  0  0.195896  0.179332  0  4.128502  0
C  C34  1  0.79689516  0.94424151  0.79481298  1  0  0.093757  0  3.706358  0  0  0.069759  0  3.966946  0  0  0.071453  0  3.983941  0  0  0.066484  0.068484  0  3.955752  0
C  C35  1  0.20310451  0.05575980  0.20518824  1  0  0.093812  0  3.706276  0  0  0.069819  0  3.966857  0  0  0.071515  0  3.983859  0  0  0.066478  0.068545  0  3.95566  0
C  C36  1  0.87571619  0.74844038  0.79860809  1  0  0.070757  0  3.679529  0  0  0.039384  0  3.940792  0  0  0.0416  0  3.957777  0  0  0.061722  0.037731  0  3.929775  0
C  C37  1  0.12428092  0.25156519  0.20138831  1  0  0.07065  0  3.679684  0  0  0.039338  0  3.940961  0  0  0.041526  0  3.957924  0  0  0.061776  0.037695  0  3.929918  0
C  C38  1  0.85601861  0.75663911  0.93599403  1  0  0.072568  0  3.635383  0  0  0.0297  0  3.902212  0  0  0.033059  0  3.916617  0  0  0.066242  0.027425  0  3.892712  0
C  C39  1  0.14398743  0.24336078  0.06400292  1  0  0.072611  0  3.635141  0  0  0.029761  0  3.901948  0  0  0.033122  0  3.916344  0  0  0.066273  0.027483  0  3.892453  0
C  C40  1  0.77677115  0.95385181  0.93213953  1  0  0.135435  0  3.771218  0  0  0.135933  0  4.02596  0  0  0.139093  0  4.043957  0  0  0.132425  0.133445  0  4.014153  0
C  C41  1  0.22323594  0.04614383  0.06786046  1  0  0.135357  0  3.771299  0  0  0.135922  0  4.025985  0  0  0.139083  0  4.043977  0  0  0.132403  0.133431  0  4.014179  0
C  C42  1  0.72337325  0.06718620  0.00404155  1  0  0.212058  0  3.851685  0  0  0.1868  0  4.129523  0  0  0.193689  0  4.148437  0  0  0.204099  0.182355  0  4.116719  0
C  C43  1  0.27663130  0.93281370  0.99596083  1  0  0.212165  0  3.851433  0  0  0.186878  0  4.129278  0  0  0.193766  0  4.148191  0  0  0.204155  0.182437  0  4.11647  0
N  N44  1  0.12851529  0.25793089  0.55213197  1  0  -0.324184  0  3.086065  0  0  -0.287346  0  3.347272  0  0  -0.295231  0  3.361982  0  0  -0.340746  -0.281703  0  3.337329  0
N  N45  1  0.87148273  0.74206473  0.44786633  1  0  -0.324116  0  3.085967  0  0  -0.2873  0  3.347173  0  0  -0.295181  0  3.361879  0  0  -0.34077  -0.28165  0  3.337217  0
N  N46  1  0.99143738  0.20547546  0.39852911  1  0  -0.273477  0  3.119563  0  0  -0.222002  0  3.381121  0  0  -0.231036  0  3.396588  0  0  -0.288663  -0.215586  0  3.370568  0
N  N47  1  0.00855591  0.79452725  0.60147098  1  0  -0.27349  0  3.119531  0  0  -0.22202  0  3.381101  0  0  -0.231053  0  3.396565  0  0  -0.288693  -0.215607  0  3.370554  0
N  N48  1  0.83314519  0.37127336  0.67929696  1  0  -0.363497  0  3.045191  0  0  -0.332663  0  3.334429  0  0  -0.342314  0  3.346291  0  0  -0.297749  -0.326028  0  3.32627  0
N  N49  1  0.16685065  0.62872509  0.32070314  1  0  -0.363488  0  3.045231  0  0  -0.332641  0  3.334449  0  0  -0.342296  0  3.346325  0  0  -0.297676  -0.326009  0  3.326297  0
N  N50  1  0.65422625  0.41221496  0.72142018  1  0  -0.150225  0  3.071819  0  0  -0.125267  0  3.371946  0  0  -0.127559  0  3.38319  0  0  -0.171722  -0.123342  0  3.364082  0
N  N51  1  0.34577040  0.58778634  0.27858048  1  0  -0.15022  0  3.071795  0  0  -0.125269  0  3.371925  0  0  -0.12756  0  3.383164  0  0  -0.171746  -0.123344  0  3.364055  0
N  N52  1  0.49838995  0.40880692  0.67297987  1  0  -0.180197  0  3.059077  0  0  -0.154128  0  3.358468  0  0  -0.156509  0  3.369529  0  0  -0.192016  -0.152248  0  3.350776  0
N  N53  1  0.50160705  0.59119296  0.32702140  1  0  -0.180169  0  3.059076  0  0  -0.154092  0  3.358461  0  0  -0.156472  0  3.369519  0  0  -0.191985  -0.152211  0  3.350765  0
N  N54  1  0.57246452  0.36574925  0.59849759  1  0  -0.292999  0  2.993433  0  0  -0.271736  0  3.279574  0  0  -0.281643  0  3.294985  0  0  -0.221141  -0.264812  0  3.268941  0
N  N55  1  0.42753016  0.63424779  0.40150314  1  0  -0.29316  0  2.993554  0  0  -0.27191  0  3.279724  0  0  -0.281817  0  3.295132  0  0  -0.221235  -0.264987  0  3.269091  0
N  N56  1  0.74657524  0.04710139  0.86077260  1  0  -0.323236  0  3.083881  0  0  -0.285874  0  3.348916  0  0  -0.293324  0  3.361841  0  0  -0.339563  -0.2806  0  3.340322  0
N  N57  1  0.25342662  0.95289707  0.13922623  1  0  -0.323298  0  3.083899  0  0  -0.285977  0  3.348934  0  0  -0.293426  0  3.361854  0  0  -0.339612  -0.280701  0  3.340337  0
N  N58  1  0.90497436  0.65495838  0.86949148  1  0  -0.274863  0  3.152733  0  0  -0.217153  0  3.408542  0  0  -0.227129  0  3.423292  0  0  -0.285781  -0.210209  0  3.398591  0
N  N59  1  0.09503018  0.34504151  0.13050849  1  0  -0.274808  0  3.152851  0  0  -0.21711  0  3.408643  0  0  -0.227082  0  3.423405  0  0  -0.285787  -0.210165  0  3.398692  0
N  N60  1  0.63966051  0.25538852  0.00266321  1  0  -0.34244  0  3.017838  0  0  -0.314174  0  3.309147  0  0  -0.324305  0  3.322043  0  0  -0.276519  -0.307264  0  3.30036  0
N  N61  1  0.36034623  0.74460853  0.99733737  1  0  -0.342452  0  3.017684  0  0  -0.314184  0  3.309002  0  0  -0.324312  0  3.321895  0  0  -0.276507  -0.307272  0  3.300211  0
N  N62  1  0.61196704  0.30289546  0.08007379  1  0  -0.153474  0  3.076337  0  0  -0.131931  0  3.382172  0  0  -0.134657  0  3.395449  0  0  -0.17674  -0.12977  0  3.373001  0
N  N63  1  0.38803634  0.69710301  0.91992561  1  0  -0.153432  0  3.076249  0  0  -0.131885  0  3.38208  0  0  -0.134614  0  3.395362  0  0  -0.176697  -0.129725  0  3.372914  0
N  N64  1  0.67715575  0.15029448  0.12642106  1  0  -0.097621  0  3.055412  0  0  -0.066093  0  3.329778  0  0  -0.070369  0  3.346286  0  0  -0.086606  -0.062855  0  3.318408  0
N  N65  1  0.32284914  0.84970399  0.87357953  1  0  -0.097569  0  3.055482  0  0  -0.066037  0  3.329835  0  0  -0.07031  0  3.346344  0  0  -0.086599  -0.062803  0  3.318471  0
N  N66  1  0.74822936  0.99991431  0.08012546  1  0  -0.296867  0  3.05615  0  0  -0.254202  0  3.318757  0  0  -0.267192  0  3.335575  0  0  -0.202775  -0.245349  0  3.307368  0
N  N67  1  0.25177552  0.00008417  0.91987513  1  0  -0.297029  0  3.056167  0  0  -0.254365  0  3.318783  0  0  -0.267355  0  3.335599  0  0  -0.202867  -0.245514  0  3.307398  0
O  O68  1  0.29213676  0.93932797  0.70705669  1  0  -0.869019  0  1.799883  0  0  -0.817763  0  1.977139  0  0  -0.834185  0  1.944766  0  0  -0.66932  -0.805894  0  1.999716  0
O  O69  1  0.70786963  0.06067051  0.29294388  1  0  -0.868987  0  1.799887  0  0  -0.81774  0  1.977144  0  0  -0.834163  0  1.944777  0  0  -0.669279  -0.805889  0  1.999759  0
O  O70  1  0.21858357  0.33491187  0.83878118  1  0  -0.91281  0  1.842499  0  0  -0.851513  0  2.045798  0  0  -0.868403  0  2.008807  0  0  -0.713073  -0.839509  0  2.071576  0
O  O71  1  0.78141796  0.66508802  0.16121943  1  0  -0.912826  0  1.842476  0  0  -0.851534  0  2.045763  0  0  -0.868422  0  2.008771  0  0  -0.713076  -0.839531  0  2.071543  0
