# generated using pymatgen
data_Fe3H36C36S4(NO8)2
_symmetry_space_group_name_H-M   'P 1'
_cell_length_a   8.49525734
_cell_length_b   11.09430797
_cell_length_c   11.33697046
_cell_angle_alpha   90.94872322
_cell_angle_beta   111.11562410
_cell_angle_gamma   89.44942897
_symmetry_Int_Tables_number   1
_chemical_formula_structural   Fe3H36C36S4(NO8)2
_chemical_formula_sum   'Fe3 H36 C36 S4 N2 O16'
_cell_volume   996.60994180
_cell_formula_units_Z   1
loop_
 _symmetry_equiv_pos_site_id
 _symmetry_equiv_pos_as_xyz
  1  'x, y, z'
loop_
 _atom_site_type_symbol
 _atom_site_label
 _atom_site_symmetry_multiplicity
 _atom_site_fract_x
 _atom_site_fract_y
 _atom_site_fract_z
 _atom_site_occupancy
 _atom_site_hle17_ddec_charge
 _atom_site_hle17_ddec_spin_density
 _atom_site_hle17_ddec_sum_bond_order
 _atom_site_hle17_magmom
 _atom_site_pbe_cm5_charge
 _atom_site_pbe_ddec_charge
 _atom_site_pbe_ddec_spin_density
 _atom_site_pbe_ddec_sum_bond_order
 _atom_site_pbe_magmom
Fe  Fe0  1  0.80685397  0.83362472  0.92509583  1  1.139385  3.889738  1.939469  3.658  0.67423  0.99405  3.867438  2.462132  3.622
Fe  Fe1  1  0.19314045  0.16639798  0.07489489  1  1.139359  3.889718  1.939279  3.657  0.674183  0.993996  3.867971  2.461926  3.622
Fe  Fe2  1  0.49999503  0.00000295  0.00000452  1  1.161682  3.899643  2.011548  3.669  0.688597  1.021537  3.876057  2.542877  3.629
H  H3  1  0.92620887  0.00802786  0.83192307  1  0.41699  -0.000284  0.884244  0.0  0.294869  0.37984  7e-05  0.963097  0.001
H  H4  1  0.07376396  0.99197879  0.16806348  1  0.416848  -0.000283  0.884322  0.0  0.29482  0.379703  7e-05  0.963262  0.001
H  H5  1  0.80084472  0.93839008  0.71283326  1  0.405468  -0.000743  0.857127  -0.001  0.298228  0.371499  -0.000186  0.943803  0.0
H  H6  1  0.19914689  0.06160200  0.28715717  1  0.405343  -0.000742  0.857313  -0.001  0.298181  0.371374  -0.000187  0.943886  0.0
H  H7  1  0.66884798  0.53183095  0.07307708  1  0.102019  4e-05  0.947658  0.0  0.106245  0.111151  -4e-05  1.006759  0.0
H  H8  1  0.33119317  0.46819140  0.92693042  1  0.102053  4e-05  0.947452  0.0  0.106237  0.11115  -4e-05  1.006589  0.0
H  H9  1  0.58733847  0.35830259  0.17618552  1  0.101418  -0.000223  0.966193  0.0  0.101799  0.109132  -0.000143  1.026441  0.0
H  H10  1  0.41269109  0.64170991  0.82380554  1  0.101409  -0.000223  0.966063  0.0  0.101898  0.109268  -0.000139  1.026169  0.0
H  H11  1  0.48922204  0.39794683  0.35626828  1  0.081852  -4.6e-05  0.982534  0.0  0.091039  0.084223  -0.000344  1.059239  0.0
H  H12  1  0.51078706  0.60204417  0.64371089  1  0.081966  -4.6e-05  0.98257  0.0  0.091061  0.084315  -0.000341  1.059197  0.0
H  H13  1  0.47805461  0.60742647  0.43316263  1  0.084721  -7.5e-05  0.998493  0.0  0.089565  0.091616  7.2e-05  1.06626  0.0
H  H14  1  0.52195971  0.39255734  0.56684076  1  0.084686  -7.5e-05  0.998576  0.0  0.089551  0.091632  7.1e-05  1.06628  0.0
H  H15  1  0.11236703  0.87105672  0.70449824  1  0.110485  -8.3e-05  0.96703  0.0  0.101286  0.114161  -5.6e-05  1.0347  0.0
H  H16  1  0.88762221  0.12894170  0.29550047  1  0.110346  -8.2e-05  0.96697  0.0  0.101254  0.114087  -5.8e-05  1.034598  0.0
H  H17  1  0.87843226  0.86209051  0.49276623  1  0.072968  2.7e-05  1.010671  0.0  0.082785  0.073736  7.6e-05  1.088857  0.0
H  H18  1  0.12155701  0.13790972  0.50723340  1  0.073057  2.6e-05  1.010769  0.0  0.082816  0.073847  7.4e-05  1.088921  0.0
H  H19  1  0.94851516  0.83315220  0.29909542  1  0.098945  -0.000275  0.943006  0.0  0.10364  0.108631  -0.000564  1.001604  0.0
H  H20  1  0.05148415  0.16683894  0.70090939  1  0.098959  -0.000275  0.94299  0.0  0.103626  0.108641  -0.000566  1.001551  0.0
H  H21  1  0.24612051  0.81496935  0.31582693  1  0.085647  -1.7e-05  1.015224  0.0  0.088146  0.086225  -7e-06  1.090638  0.0
H  H22  1  0.75388138  0.18501819  0.68418733  1  0.085504  -1.7e-05  1.015141  0.0  0.088116  0.086156  -8e-06  1.090482  0.0
H  H23  1  0.76585246  0.18777468  0.01174728  1  0.031074  0.000242  0.897206  0.001  0.125228  0.04338  0.000863  0.961869  0.002
H  H24  1  0.23411920  0.81223380  0.98824604  1  0.031002  0.000241  0.897289  0.001  0.125231  0.043301  0.000865  0.962006  0.002
H  H25  1  0.90762048  0.71120260  0.70473140  1  0.044383  0.000139  0.942936  0.001  0.124018  0.052548  0.000348  1.020633  0.001
H  H26  1  0.09238634  0.28879477  0.29526490  1  0.044377  0.000139  0.943025  0.001  0.124051  0.052552  0.000345  1.020686  0.001
H  H27  1  0.93462304  0.58203061  0.56999112  1  0.098332  -1.2e-05  0.949715  0.0  0.107275  0.118041  1.2e-05  1.014633  0.0
H  H28  1  0.06536100  0.41795253  0.43000512  1  0.098259  -1.2e-05  0.949953  0.0  0.107241  0.117999  1e-05  1.01481  0.0
H  H29  1  0.83189577  0.44102054  0.56526854  1  0.101597  8.4e-05  0.940659  0.0  0.101968  0.121832  0.00021  1.001992  0.0
H  H30  1  0.16808973  0.55896533  0.43474488  1  0.101515  8.4e-05  0.940691  0.0  0.101896  0.121647  0.00021  1.002132  0.0
H  H31  1  0.05641074  0.45104884  0.63724153  1  0.099235  2.2e-05  0.949969  0.0  0.102636  0.118928  9e-05  1.012405  0.0
H  H32  1  0.94357964  0.54893337  0.36276078  1  0.099173  2.2e-05  0.950137  0.0  0.102668  0.118892  9.1e-05  1.012517  0.0
H  H33  1  0.80608825  0.43388950  0.84757132  1  0.104813  4.9e-05  0.931968  0.0  0.105401  0.126499  0.000133  0.99245  0.0
H  H34  1  0.19391380  0.56611877  0.15243974  1  0.104827  4.9e-05  0.931775  0.0  0.10533  0.126478  0.000133  0.992287  0.0
H  H35  1  0.03030871  0.44340157  0.91940446  1  0.1164  -8e-05  0.951267  0.0  0.109522  0.13135  3.4e-05  1.021289  0.0
H  H36  1  0.96968932  0.55659498  0.08059391  1  0.116398  -8e-05  0.951294  0.0  0.109518  0.131342  3.4e-05  1.021333  0.0
H  H37  1  0.93863795  0.34695937  0.78638502  1  0.109487  -7.8e-05  0.952298  0.0  0.108459  0.130716  -0.000129  1.014805  0.0
H  H38  1  0.06135014  0.65303909  0.21362398  1  0.109479  -7.8e-05  0.952213  0.0  0.108471  0.130714  -0.000128  1.014712  0.0
C  C39  1  0.56100976  0.68855851  0.29429729  1  0.031687  -0.008588  3.738906  -0.006  -0.009425  0.041028  -0.00779  3.977991  -0.005
C  C40  1  0.43900865  0.31144242  0.70572065  1  0.031953  -0.008588  3.738452  -0.006  -0.009422  0.041098  -0.007809  3.977776  -0.005
C  C41  1  0.61480943  0.66557221  0.19121297  1  -0.120864  0.005365  3.759907  0.01  -0.027023  -0.096771  0.002298  3.984445  0.008
C  C42  1  0.38520643  0.33442964  0.80880166  1  -0.121215  0.005362  3.760427  0.01  -0.027059  -0.096999  0.002291  3.984865  0.008
C  C43  1  0.62705166  0.54609851  0.15256281  1  -0.063361  -0.008951  3.749463  -0.006  -0.08591  -0.089465  -0.009146  3.987971  -0.005
C  C44  1  0.37297922  0.45390590  0.84744084  1  -0.063  -0.008949  3.749322  -0.006  -0.085784  -0.089094  -0.009161  3.9878  -0.005
C  C45  1  0.58256573  0.44979791  0.21072259  1  -0.080881  0.002621  3.754923  0.004  -0.098776  -0.094942  0.000769  3.99959  0.003
C  C46  1  0.41746757  0.55020465  0.78927373  1  -0.080866  0.00262  3.755041  0.004  -0.098756  -0.09504  0.000776  3.999673  0.003
C  C47  1  0.52806298  0.47260806  0.31161154  1  -0.042058  -0.011044  3.752813  -0.007  -0.09237  -0.062338  -0.013308  3.998106  -0.008
C  C48  1  0.47196637  0.52737830  0.68838263  1  -0.042504  -0.011042  3.753374  -0.007  -0.092599  -0.06275  -0.013325  3.998763  -0.008
C  C49  1  0.51918574  0.59051059  0.35370381  1  -0.141978  0.002487  3.791708  0.004  -0.106879  -0.154879  0.000839  4.025193  0.002
C  C50  1  0.48083362  0.40947587  0.64629741  1  -0.141947  0.002486  3.791578  0.004  -0.10685  -0.154825  0.00084  4.025073  0.002
C  C51  1  0.65033263  0.76484579  0.11852749  1  0.659192  -0.020881  3.879583  -0.012  0.208245  0.572379  -0.026598  4.192874  -0.015
C  C52  1  0.34966309  0.23516612  0.88147665  1  0.659395  -0.020882  3.879468  -0.012  0.208361  0.572601  -0.026641  4.19269  -0.015
C  C53  1  0.34822256  0.82999223  0.51918589  1  0.039892  -0.000143  3.743949  0.0  -0.010196  0.047229  -0.002797  3.987494  -0.002
C  C54  1  0.65177816  0.17000614  0.48082733  1  0.039948  -0.000153  3.744075  0.0  -0.010202  0.047266  -0.002799  3.987588  -0.002
C  C55  1  0.30856498  0.84457444  0.62983425  1  -0.12123  0.002997  3.748506  0.005  -0.02731  -0.097146  0.002309  3.970426  0.005
C  C56  1  0.69143700  0.15542661  0.37017669  1  -0.121407  0.003004  3.748528  0.005  -0.027286  -0.097239  0.002308  3.970334  0.005
C  C57  1  0.13899142  0.85547619  0.61833359  1  -0.057977  -8e-06  3.72798  0.0  -0.086668  -0.08196  -0.003661  3.960453  -0.002
C  C58  1  0.86100670  0.14452308  0.38167101  1  -0.057669  -1.9e-05  3.727826  0.0  -0.086631  -0.081712  -0.003667  3.960243  -0.002
C  C59  1  0.00941853  0.85058944  0.50103780  1  -0.089463  -3e-06  3.794639  0.0  -0.104594  -0.098496  0.000256  4.0338  0.001
C  C60  1  0.99057830  0.14940803  0.49896555  1  -0.089908  7e-06  3.794811  0.0  -0.104788  -0.099002  0.000254  4.034047  0.001
C  C61  1  0.04861165  0.83519690  0.39217550  1  -0.032436  -0.000237  3.738864  0.0  -0.086833  -0.051123  -0.006091  3.978133  -0.004
C  C62  1  0.95138641  0.16479426  0.60783074  1  -0.032157  -0.00025  3.738534  0.0  -0.08663  -0.05081  -0.006094  3.977784  -0.004
C  C63  1  0.21627848  0.82503104  0.40131947  1  -0.157187  8.8e-05  3.806435  0.0  -0.110797  -0.171383  0.000563  4.048505  0.001
C  C64  1  0.78372339  0.17495829  0.59869128  1  -0.157116  9.5e-05  3.806267  0.0  -0.110837  -0.171394  0.000563  4.048404  0.001
C  C65  1  0.43976609  0.85027734  0.75843818  1  0.669483  -0.000248  3.869325  0.001  0.210796  0.585884  -0.00594  4.17732  -0.002
C  C66  1  0.56023209  0.14973184  0.24156305  1  0.669595  -0.000241  3.869205  0.001  0.210855  0.585988  -0.005946  4.177161  -0.002
C  C67  1  0.81268579  0.11054796  0.97078952  1  0.622745  0.001978  3.791272  0.004  0.171001  0.52092  0.009047  4.101899  0.014
C  C68  1  0.18729713  0.88945771  0.02919968  1  0.622902  0.001976  3.791367  0.004  0.17093  0.521006  0.00906  4.102023  0.014
C  C69  1  0.90969097  0.64385807  0.77547018  1  0.396156  -0.001676  3.777094  0.0  0.182182  0.297399  0.002126  4.057098  0.004
C  C70  1  0.09031464  0.35614023  0.22452934  1  0.396218  -0.001682  3.777007  0.0  0.182226  0.297499  0.002129  4.056939  0.004
C  C71  1  0.93700649  0.49904013  0.62175940  1  -0.175019  0.000328  3.668414  0.0  -0.130116  -0.277823  0.000516  3.903335  0.001
C  C72  1  0.06298391  0.50094567  0.37824121  1  -0.174785  0.000328  3.668617  0.0  -0.130051  -0.277527  0.000514  3.903532  0.001
C  C73  1  0.92462064  0.43316343  0.82941195  1  -0.167806  -0.00034  3.614024  0.0  -0.135627  -0.276783  -8e-05  3.857138  0.0
C  C74  1  0.07537244  0.56683767  0.17059046  1  -0.167736  -0.00034  3.613835  0.0  -0.135489  -0.276665  -8.1e-05  3.856905  0.0
S  S75  1  0.55109082  0.84071849  0.34527170  1  0.044487  -0.001241  2.502892  0.0  0.045772  0.036525  -0.00025  2.880481  0.001
S  S76  1  0.44890733  0.15927719  0.65473904  1  0.044535  -0.00124  2.502773  0.0  0.045841  0.036638  -0.000251  2.880416  0.001
S  S77  1  0.56307221  0.82226389  0.53011660  1  -0.031642  0.000612  2.544207  0.002  0.02582  -0.034579  0.001837  2.93332  0.003
S  S78  1  0.43693476  0.17772903  0.46989819  1  -0.031744  0.000612  2.544323  0.002  0.025746  -0.034742  0.00183  2.933487  0.003
N  N79  1  0.92284662  0.52979085  0.74270850  1  -0.080328  0.002638  3.508675  0.005  -0.272832  0.043134  0.004785  3.718865  0.009
N  N80  1  0.07715267  0.47020389  0.25729194  1  -0.080479  0.002638  3.508799  0.005  -0.272921  0.042968  0.004789  3.718963  0.009
O  O81  1  0.73741947  0.74254283  0.05009724  1  -0.622896  0.029859  2.123449  0.056  -0.313178  -0.552001  0.033073  2.432755  0.061
O  O82  1  0.26256632  0.25749078  0.94990105  1  -0.623046  0.02987  2.123482  0.056  -0.313317  -0.55215  0.033087  2.432727  0.061
O  O83  1  0.58650542  0.86797205  0.12902063  1  -0.627857  0.025283  2.160243  0.039  -0.311217  -0.544708  0.028131  2.45038  0.04
O  O84  1  0.41349535  0.13202903  0.87099440  1  -0.627876  0.025291  2.159903  0.039  -0.311255  -0.544837  0.028136  2.450194  0.04
O  O85  1  0.59107336  0.82418403  0.76695506  1  -0.643209  0.026198  2.168013  0.051  -0.307829  -0.554113  0.032182  2.454071  0.058
O  O86  1  0.40892366  0.17583237  0.23304949  1  -0.643377  0.026195  2.167981  0.051  -0.307847  -0.554246  0.032194  2.453984  0.058
O  O87  1  0.39658465  0.87797889  0.85183228  1  -0.636501  0.020991  2.091597  0.036  -0.318459  -0.567116  0.025491  2.380154  0.041
O  O88  1  0.60341736  0.12202667  0.14817785  1  -0.636419  0.020988  2.091648  0.036  -0.318507  -0.567104  0.025491  2.380211  0.041
O  O89  1  0.74073231  0.00917589  0.96908092  1  -0.623841  0.041513  2.236618  0.065  -0.307094  -0.52849  0.054352  2.537953  0.078
O  O90  1  0.25924684  0.99082622  0.03091253  1  -0.624  0.041503  2.236738  0.065  -0.307062  -0.528511  0.054351  2.537984  0.078
O  O91  1  0.93185922  0.12650054  0.93049642  1  -0.603609  0.010272  2.089871  0.016  -0.301169  -0.513956  0.017272  2.345389  0.024
O  O92  1  0.06810978  0.87351333  0.06947862  1  -0.603542  0.010275  2.089878  0.016  -0.301137  -0.513959  0.01727  2.345589  0.024
O  O93  1  0.90066470  0.67380015  0.88062983  1  -0.52373  0.025116  2.134941  0.037  -0.295493  -0.437382  0.031814  2.408671  0.044
O  O94  1  0.09933584  0.32620268  0.11936223  1  -0.523655  0.025122  2.134862  0.037  -0.295524  -0.437413  0.031829  2.408659  0.044
O  O95  1  0.90067180  0.92694061  0.78921805  1  -0.805814  0.016781  1.926672  0.028  -0.564589  -0.737291  0.021865  2.156695  0.034
O  O96  1  0.09932124  0.07306859  0.21077300  1  -0.805516  0.016777  1.926787  0.028  -0.564518  -0.736988  0.021865  2.156982  0.034
