# generated using pymatgen
data_CuH12C12(NO)4
_symmetry_space_group_name_H-M   'P 1'
_cell_length_a   8.89558825
_cell_length_b   8.62421277
_cell_length_c   8.62417941
_cell_angle_alpha   77.88475220
_cell_angle_beta   86.33952266
_cell_angle_gamma   86.33896978
_symmetry_Int_Tables_number   1
_chemical_formula_structural   CuH12C12(NO)4
_chemical_formula_sum   'Cu2 H24 C24 N8 O8'
_cell_volume   644.70555427
_cell_formula_units_Z   2
loop_
 _symmetry_equiv_pos_site_id
 _symmetry_equiv_pos_as_xyz
  1  'x, y, z'
loop_
 _atom_site_type_symbol
 _atom_site_label
 _atom_site_symmetry_multiplicity
 _atom_site_fract_x
 _atom_site_fract_y
 _atom_site_fract_z
 _atom_site_occupancy
 _atom_site_pbe_cm5_charge
 _atom_site_pbe_ddec_charge
 _atom_site_pbe_ddec_spin_density
 _atom_site_pbe_ddec_sum_bond_order
 _atom_site_pbe_magmom
Cu  Cu0  1  0.25000078  0.16819758  0.83179824  1  0.733693  0.764121  0.73341  2.229407  0.575
Cu  Cu1  1  0.74999979  0.83180516  0.16818986  1  0.73374  0.764126  0.733445  2.229392  0.575
H  H2  1  0.98727890  0.35233461  0.71118170  1  0.112247  0.086413  0.001267  1.022856  0.002
H  H3  1  0.51273144  0.28882217  0.64766806  1  0.112229  0.086377  0.001267  1.022972  0.002
H  H4  1  0.01272947  0.64766789  0.28881875  1  0.112226  0.0864  0.001267  1.0229  0.002
H  H5  1  0.48728129  0.71118257  0.35233866  1  0.11222  0.086369  0.001267  1.022855  0.002
H  H6  1  0.82088545  0.38289925  0.48251495  1  0.099016  0.109379  0.000499  1.027371  0.001
H  H7  1  0.67911678  0.51749251  0.61711447  1  0.099058  0.109415  0.000499  1.027375  0.001
H  H8  1  0.17912028  0.61711155  0.51748520  1  0.099053  0.109408  0.000499  1.027379  0.001
H  H9  1  0.32088998  0.48251805  0.38290075  1  0.099051  0.109426  0.000499  1.027375  0.001
H  H10  1  0.14905100  0.08424817  0.27489305  1  0.105655  0.131637  0.001025  1.016335  0.001
H  H11  1  0.35094046  0.72509660  0.91576604  1  0.105679  0.131745  0.001025  1.016224  0.001
H  H12  1  0.85094508  0.91575331  0.72510135  1  0.105661  0.131729  0.001025  1.016307  0.001
H  H13  1  0.64905235  0.27489990  0.08424459  1  0.10568  0.131706  0.001025  1.01633  0.001
H  H14  1  0.90337823  0.24067364  0.26114575  1  0.102175  0.102787  0.000233  1.041201  0.0
H  H15  1  0.59661476  0.73885446  0.75934739  1  0.102141  0.102737  0.000233  1.041337  0.0
H  H16  1  0.09662188  0.75933720  0.73885356  1  0.10214  0.102754  0.000233  1.041268  0.0
H  H17  1  0.40338107  0.26114905  0.24066750  1  0.102168  0.102772  0.000233  1.041278  0.0
H  H18  1  0.38184307  0.01556785  0.61800820  1  0.301248  0.31356  -0.000133  1.005599  0.0
H  H19  1  0.11815597  0.38198297  0.98443336  1  0.301336  0.313776  -0.000134  1.005432  0.0
H  H20  1  0.61815322  0.98442887  0.38198828  1  0.301257  0.313575  -0.000134  1.005516  0.0
H  H21  1  0.88184627  0.61800656  0.01556648  1  0.301245  0.313572  -0.000134  1.005563  0.0
H  H22  1  0.36434551  0.99023249  0.42270321  1  0.303387  0.312704  -0.000125  0.968094  0.0
H  H23  1  0.13564595  0.57728560  0.00977179  1  0.303331  0.312577  -0.000125  0.968054  0.0
H  H24  1  0.63564895  0.00975471  0.57729637  1  0.303321  0.312627  -0.000125  0.96811  0.0
H  H25  1  0.86434847  0.42270021  0.99024083  1  0.303396  0.312634  -0.000125  0.968209  0.0
C  C26  1  0.04543517  0.92657471  0.97719201  1  0.208857  0.479749  -0.0015  4.182501  -0.002
C  C27  1  0.45456522  0.02279762  0.07342082  1  0.208854  0.479601  -0.0015  4.182525  -0.002
C  C28  1  0.95455034  0.07343500  0.02280836  1  0.208657  0.479415  -0.0015  4.182919  -0.002
C  C29  1  0.54544543  0.97718393  0.92655689  1  0.208387  0.479065  -0.0015  4.183271  -0.002
C  C30  1  0.19470853  0.12867566  0.50437124  1  0.229193  0.454815  0.001613  4.072237  0.002
C  C31  1  0.30528968  0.49562284  0.87132899  1  0.229224  0.454878  0.001613  4.072172  0.002
C  C32  1  0.80529003  0.87132108  0.49562278  1  0.229163  0.454789  0.001613  4.072372  0.002
C  C33  1  0.69471206  0.50437606  0.12867719  1  0.229193  0.454967  0.001612  4.072132  0.002
C  C34  1  0.01729301  0.29428227  0.61224750  1  0.029318  0.089754  -0.001383  4.019629  -0.001
C  C35  1  0.48271346  0.38775188  0.70572669  1  0.029348  0.089714  -0.001383  4.019851  -0.001
C  C36  1  0.98271180  0.70572507  0.38774758  1  0.029363  0.089797  -0.001382  4.019744  -0.001
C  C37  1  0.51729598  0.61225047  0.29428301  1  0.029362  0.089884  -0.001382  4.019594  -0.001
C  C38  1  0.92575038  0.31056615  0.48580012  1  -0.114777  -0.185348  0.003449  4.042097  0.004
C  C39  1  0.57425112  0.51420177  0.68945028  1  -0.114816  -0.185399  0.003449  4.041948  0.004
C  C40  1  0.07425183  0.68944829  0.51419605  1  -0.114798  -0.185378  0.003449  4.042187  0.004
C  C41  1  0.42575468  0.48580527  0.31056336  1  -0.114805  -0.185438  0.003449  4.042181  0.004
C  C42  1  0.10772234  0.14463650  0.36941173  1  -0.101483  -0.238656  0.004139  3.911467  0.005
C  C43  1  0.39227217  0.63058248  0.85537588  1  -0.101534  -0.238814  0.004139  3.911529  0.005
C  C44  1  0.89227243  0.85536850  0.63058438  1  -0.101487  -0.238762  0.004139  3.911382  0.005
C  C45  1  0.60772728  0.36941635  0.14463507  1  -0.101493  -0.238809  0.004139  3.911412  0.005
C  C46  1  0.97304526  0.23343324  0.36180018  1  -0.078162  -0.005182  -0.002873  4.002147  -0.002
C  C47  1  0.52695017  0.63820136  0.76658164  1  -0.078099  -0.00509  -0.002873  4.001971  -0.002
C  C48  1  0.02695265  0.76657645  0.63819832  1  -0.078176  -0.005185  -0.002873  4.002108  -0.002
C  C49  1  0.47305129  0.36180213  0.23343293  1  -0.078164  -0.005142  -0.002873  4.002112  -0.002
N  N50  1  0.14872409  0.20533392  0.62336266  1  -0.364724  -0.36213  0.060089  3.545272  0.078
N  N51  1  0.35127954  0.37663154  0.79467226  1  -0.364748  -0.362081  0.060088  3.545211  0.078
N  N52  1  0.85127753  0.79466993  0.37662980  1  -0.364702  -0.362098  0.06009  3.545358  0.078
N  N53  1  0.64872329  0.62336857  0.20533130  1  -0.364764  -0.362266  0.06009  3.545361  0.078
N  N54  1  0.32381096  0.03690412  0.51698030  1  -0.585576  -0.638466  -0.000883  3.352111  0.0
N  N55  1  0.17618768  0.48301086  0.96310030  1  -0.585602  -0.638548  -0.000883  3.352075  0.0
N  N56  1  0.67618554  0.96308782  0.48301825  1  -0.58549  -0.638369  -0.000883  3.352026  0.0
N  N57  1  0.82381219  0.51697975  0.03690642  1  -0.585573  -0.638389  -0.000883  3.352144  0.0
O  O58  1  0.16529904  0.95118728  0.88903392  1  -0.3075  -0.488809  0.059548  2.402687  0.085
O  O59  1  0.33469623  0.11095032  0.04881368  1  -0.307528  -0.488716  0.059549  2.402566  0.085
O  O60  1  0.83468771  0.04882006  0.11096683  1  -0.307545  -0.488719  0.059548  2.402765  0.085
O  O61  1  0.66531125  0.88902646  0.95116746  1  -0.307361  -0.488526  0.05955  2.402638  0.085
O  O62  1  0.99532003  0.79089922  0.02945267  1  -0.305718  -0.544269  0.00832  2.318531  0.013
O  O63  1  0.50466806  0.97051887  0.20910107  1  -0.305671  -0.544135  0.008322  2.318574  0.013
O  O64  1  0.00465167  0.20911773  0.97054361  1  -0.305519  -0.544109  0.00832  2.318539  0.013
O  O65  1  0.49533859  0.02945204  0.79087778  1  -0.305455  -0.543922  0.008318  2.31886  0.013
