# generated using pymatgen
data_MnH12C18S(NO)4
_symmetry_space_group_name_H-M   'P 1'
_cell_length_a   10.88410645
_cell_length_b   10.88409035
_cell_length_c   19.06069100
_cell_angle_alpha   80.86205005
_cell_angle_beta   80.86218844
_cell_angle_gamma   87.64399999
_symmetry_Int_Tables_number   1
_chemical_formula_structural   MnH12C18S(NO)4
_chemical_formula_sum   'Mn4 H48 C72 S4 N16 O16'
_cell_volume   2200.75695369
_cell_formula_units_Z   4
loop_
 _symmetry_equiv_pos_site_id
 _symmetry_equiv_pos_as_xyz
  1  'x, y, z'
loop_
 _atom_site_type_symbol
 _atom_site_label
 _atom_site_symmetry_multiplicity
 _atom_site_fract_x
 _atom_site_fract_y
 _atom_site_fract_z
 _atom_site_occupancy
 _atom_site_pbe_bader_charge
 _atom_site_pbe_bader_spin_density
 _atom_site_pbe_cm5_charge
 _atom_site_pbe_ddec_charge
 _atom_site_pbe_ddec_spin_density
 _atom_site_pbe_ddec_sum_bond_order
 _atom_site_pbe_magmom
Mn  Mn0  1  0.87162192  0.58876318  0.44590239  1  1.508636  4.484005  0.618627  0.890925  4.629286  2.427093  4.406
Mn  Mn1  1  0.41124135  0.12838560  0.05409561  1  1.508716  4.483985  0.618699  0.89108  4.629287  2.42694  4.406
Mn  Mn2  1  0.12838755  0.41123757  0.55409557  1  1.508615  4.484001  0.618715  0.891109  4.629291  2.42688  4.406
Mn  Mn3  1  0.58876812  0.87161701  0.94590375  1  1.508501  4.484071  0.618659  0.890963  4.629339  2.426902  4.406
H  H4  1  0.39235540  0.98276401  0.33882622  1  0.110331  0.000167  0.115864  0.088813  5e-06  1.005808  0.0
H  H5  1  0.01723575  0.60764699  0.16118106  1  0.110321  0.000166  0.11588  0.088858  4e-06  1.005875  0.0
H  H6  1  0.60764103  0.01723696  0.66117867  1  0.110258  0.000167  0.115865  0.088834  4e-06  1.005638  0.0
H  H7  1  0.98276441  0.39235764  0.83882106  1  0.11025  0.000167  0.115883  0.088891  4e-06  1.00574  0.0
H  H8  1  0.98588551  0.47232274  0.28339600  1  0.142951  3.1e-05  0.1094  0.13807  -0.000468  1.034579  0.0
H  H9  1  0.52767306  0.01411373  0.21660683  1  0.1429  3.1e-05  0.1094  0.138033  -0.000468  1.034688  0.0
H  H10  1  0.01411278  0.52767169  0.71660511  1  0.142899  3.1e-05  0.109395  0.138026  -0.000468  1.034687  0.0
H  H11  1  0.47232617  0.98588813  0.78339195  1  0.14294  3.1e-05  0.109412  0.138063  -0.000468  1.034648  0.0
H  H12  1  0.12819384  0.95752878  0.49653726  1  0.114086  0.000566  0.111227  0.115593  0.000286  1.019601  0.0
H  H13  1  0.04246578  0.87180136  0.00346784  1  0.115841  0.000565  0.111199  0.115572  0.000285  1.019622  0.0
H  H14  1  0.87179794  0.04246669  0.50346434  1  0.114268  0.000566  0.11124  0.115667  0.000285  1.019707  0.0
H  H15  1  0.95753717  0.12819950  0.99653332  1  0.115761  0.000565  0.111208  0.115595  0.000286  1.019619  0.0
H  H16  1  0.10506903  0.65959362  0.33051124  1  0.102622  0.001232  0.119023  0.085901  0.000593  1.010069  0.0
H  H17  1  0.34040690  0.89493056  0.16948890  1  0.102602  0.001232  0.11901  0.085883  0.000593  1.010081  0.0
H  H18  1  0.89493672  0.34040440  0.66948573  1  0.102534  0.001233  0.11904  0.085911  0.000593  1.010087  0.0
H  H19  1  0.65959326  0.10506755  0.83051380  1  0.102495  0.001233  0.119007  0.085892  0.000593  1.010129  0.0
H  H20  1  0.47121332  0.32993565  0.56733048  1  0.126241  0.0007  0.1104  0.12579  5e-06  1.018666  0.0
H  H21  1  0.67008096  0.52878717  0.93266795  1  0.126602  0.0007  0.110396  0.125826  5e-06  1.018667  0.0
H  H22  1  0.52878593  0.67008389  0.43266670  1  0.126539  0.000701  0.110432  0.125874  5e-06  1.018593  0.0
H  H23  1  0.32992572  0.47121549  0.06733061  1  0.12657  0.0007  0.110405  0.12586  5e-06  1.018626  0.0
H  H24  1  0.37605833  0.17452571  0.51966364  1  0.152216  0.000195  0.121896  0.100329  -0.000426  1.013696  0.0
H  H25  1  0.82548351  0.62393596  0.98034078  1  0.152546  0.000196  0.12181  0.100271  -0.000426  1.013842  0.0
H  H26  1  0.62392882  0.82548939  0.48033608  1  0.152435  0.000196  0.121798  0.100275  -0.000426  1.013814  0.0
H  H27  1  0.17451944  0.37606490  0.01966091  1  0.152082  0.000196  0.121818  0.100282  -0.000426  1.013754  0.0
H  H28  1  0.64479009  0.48084618  0.55936870  1  0.111905  0.001202  0.117941  0.091558  0.000396  1.000193  0.0
H  H29  1  0.51916419  0.35521484  0.94062624  1  0.111846  0.001202  0.117962  0.091587  0.000396  1.000158  0.0
H  H30  1  0.35521567  0.51916209  0.44062734  1  0.111773  0.001202  0.117968  0.091581  0.000396  1.000124  0.0
H  H31  1  0.48084156  0.64478784  0.05937083  1  0.111927  0.001202  0.117959  0.091565  0.000396  1.000176  0.0
H  H32  1  0.07783501  0.38261225  0.16297492  1  0.121867  0.000408  0.107925  0.122549  0.000178  1.009929  0.0
H  H33  1  0.61738983  0.92216368  0.33702532  1  0.121869  0.000408  0.107922  0.122535  0.000178  1.009962  0.0
H  H34  1  0.92216049  0.61738409  0.83702627  1  0.121871  0.000408  0.107907  0.122526  0.000178  1.009906  0.0
H  H35  1  0.38261499  0.07784181  0.66297211  1  0.121831  0.000408  0.107918  0.122527  0.000178  1.009922  0.0
H  H36  1  0.66384233  0.21318517  0.37249304  1  0.108007  0.000637  0.114247  0.12381  0.000292  0.991834  0.0
H  H37  1  0.78680659  0.33615385  0.12751092  1  0.108016  0.000637  0.114284  0.123836  0.000292  0.991917  0.0
H  H38  1  0.33615317  0.78681396  0.62750895  1  0.108018  0.000637  0.11425  0.123796  0.000292  0.991913  0.0
H  H39  1  0.21318705  0.66384904  0.87249142  1  0.108026  0.000637  0.114261  0.123822  0.000292  0.991907  0.0
H  H40  1  0.94968390  0.81162320  0.51054932  1  0.090972  0.001272  0.121247  0.091244  0.00057  0.99794  0.0
H  H41  1  0.18837574  0.05031226  0.98945057  1  0.090999  0.001271  0.12122  0.091231  0.00057  0.997931  0.0
H  H42  1  0.05030974  0.18837039  0.48944756  1  0.09094  0.001271  0.121191  0.091199  0.00057  0.997952  0.0
H  H43  1  0.81163093  0.94968668  0.01055042  1  0.090948  0.001272  0.121242  0.09122  0.00057  0.997942  0.0
H  H44  1  0.28712510  0.80314672  0.30672890  1  0.054999  0.000703  0.109403  0.1173  0.000367  0.998912  0.0
H  H45  1  0.19685488  0.71287419  0.19327277  1  0.054831  0.000703  0.109423  0.117347  0.000367  0.999005  0.0
H  H46  1  0.71287599  0.19685603  0.69327173  1  0.054887  0.000703  0.109386  0.117291  0.000367  0.998951  0.0
H  H47  1  0.80314342  0.28712768  0.80672872  1  0.055009  0.000703  0.109432  0.117376  0.000367  0.998988  0.0
H  H48  1  0.82964325  0.36713508  0.37318785  1  0.120164  0.001324  0.119392  0.092038  0.000575  1.009083  0.001
H  H49  1  0.63285480  0.17035718  0.12681327  1  0.119913  0.001324  0.119398  0.092054  0.000575  1.009168  0.001
H  H50  1  0.17035968  0.63285275  0.62681501  1  0.120041  0.001324  0.119391  0.092054  0.000575  1.009198  0.001
H  H51  1  0.36714257  0.82964565  0.87318611  1  0.119918  0.001324  0.11938  0.092053  0.000575  1.009172  0.001
C  C52  1  0.11328508  0.40300330  0.40519896  1  1.588606  0.020415  0.209382  0.579147  0.021333  4.258279  0.018
C  C53  1  0.59699468  0.88671747  0.09480026  1  1.588546  0.020419  0.209331  0.578983  0.021335  4.258716  0.018
C  C54  1  0.88671972  0.59698916  0.59480069  1  1.588538  0.020418  0.209432  0.579207  0.021334  4.258396  0.018
C  C55  1  0.40300640  0.11327598  0.90519859  1  1.588521  0.020415  0.209465  0.579224  0.02133  4.258364  0.018
C  C56  1  0.22202861  0.89188899  0.40031359  1  -0.004652  0.007267  0.012526  0.117304  0.005527  4.010806  0.004
C  C57  1  0.10810708  0.77797261  0.09968935  1  -0.004538  0.007262  0.012654  0.117439  0.005522  4.010819  0.004
C  C58  1  0.77796689  0.10810921  0.59968795  1  -0.004393  0.00726  0.012571  0.11736  0.005521  4.010799  0.004
C  C59  1  0.89189029  0.22203115  0.90031152  1  -0.004682  0.007263  0.01258  0.117383  0.005523  4.01066  0.004
C  C60  1  0.29853714  0.22742156  0.16526215  1  1.586323  0.008908  0.191999  0.563004  0.010502  4.273905  0.006
C  C61  1  0.77257936  0.70146682  0.33473637  1  1.586387  0.008907  0.191925  0.562907  0.010501  4.273907  0.006
C  C62  1  0.70146767  0.77257183  0.83473794  1  1.586194  0.008907  0.19194  0.563048  0.0105  4.273852  0.006
C  C63  1  0.22741987  0.29853597  0.66526285  1  1.58637  0.008908  0.191949  0.562995  0.010503  4.273852  0.006
C  C64  1  0.32831065  0.97344672  0.38999414  1  0.610714  0.009698  0.071472  0.030792  0.008164  3.929301  0.006
C  C65  1  0.02655408  0.67168977  0.11001319  1  0.61109  0.0097  0.071329  0.030609  0.008166  3.929255  0.006
C  C66  1  0.67168485  0.02655241  0.61000837  1  0.611207  0.0097  0.071429  0.030774  0.008166  3.929153  0.006
C  C67  1  0.97344608  0.32831393  0.88999059  1  0.611296  0.009693  0.071393  0.030678  0.00816  3.92925  0.006
C  C68  1  0.06875584  0.41311236  0.27626716  1  0.002288  0.005686  -0.104425  -0.129469  0.004172  3.998746  0.003
C  C69  1  0.58688021  0.93124496  0.22373424  1  0.002396  0.005688  -0.104456  -0.129477  0.004173  3.998732  0.003
C  C70  1  0.93124338  0.58687926  0.72373360  1  0.002367  0.005688  -0.104455  -0.129481  0.004174  3.998776  0.003
C  C71  1  0.41311902  0.06875783  0.77626445  1  0.002355  0.005686  -0.104438  -0.129442  0.004172  3.998862  0.003
C  C72  1  0.13924584  0.37571981  0.33098475  1  -0.274995  0.004191  -0.033861  -0.144403  0.002249  4.022558  0.002
C  C73  1  0.62427408  0.86075524  0.16901500  1  -0.274945  0.00419  -0.033802  -0.144249  0.002248  4.022422  0.002
C  C74  1  0.86075337  0.62426995  0.66901460  1  -0.27485  0.004189  -0.033846  -0.14433  0.002248  4.022505  0.002
C  C75  1  0.37572236  0.13924481  0.83098419  1  -0.274795  0.004191  -0.033848  -0.144385  0.002249  4.02245  0.002
C  C76  1  0.55377115  0.26040134  0.47002070  1  -0.010085  0.014016  0.008765  0.108895  0.01084  3.996763  0.008
C  C77  1  0.73960090  0.44622619  0.02998106  1  -0.010165  0.014019  0.008702  0.108738  0.010843  3.997082  0.008
C  C78  1  0.44622343  0.73960432  0.52997920  1  -0.010133  0.014021  0.008774  0.108943  0.010844  3.996992  0.008
C  C79  1  0.26039833  0.55377474  0.97001886  1  -0.010156  0.014014  0.008733  0.10884  0.010839  3.997031  0.008
C  C80  1  0.22430330  0.29353869  0.21977158  1  -0.214616  0.004889  -0.027957  -0.119451  0.003113  3.996066  0.002
C  C81  1  0.70645950  0.77569638  0.28022696  1  -0.214695  0.004891  -0.027959  -0.119421  0.003114  3.99606  0.002
C  C82  1  0.77569313  0.70645205  0.78022688  1  -0.214562  0.00489  -0.027938  -0.119492  0.003114  3.996079  0.002
C  C83  1  0.29353973  0.22430268  0.71977259  1  -0.214677  0.004888  -0.027918  -0.119394  0.003112  3.995964  0.002
C  C84  1  0.12503866  0.89330903  0.45851360  1  -0.039671  0.002131  -0.074086  -0.15738  0.001358  3.918732  0.001
C  C85  1  0.10668743  0.87495919  0.04148903  1  -0.041711  0.002134  -0.074118  -0.157458  0.00136  3.91861  0.001
C  C86  1  0.87495405  0.10668457  0.54148546  1  -0.040005  0.002135  -0.074174  -0.157584  0.001361  3.918661  0.001
C  C87  1  0.89331552  0.12504260  0.95851205  1  -0.041448  0.002131  -0.074126  -0.157477  0.001357  3.918552  0.001
C  C88  1  0.11366570  0.72782954  0.36560188  1  0.496627  0.007998  0.052802  0.098081  0.00607  3.943479  0.005
C  C89  1  0.27217145  0.88633646  0.13439847  1  0.498661  0.007984  0.052828  0.098085  0.006064  3.943659  0.005
C  C90  1  0.88633632  0.27216762  0.63439550  1  0.496861  0.007991  0.052771  0.098056  0.006064  3.943684  0.005
C  C91  1  0.72782684  0.11366541  0.86560354  1  0.496845  0.007995  0.05277  0.097992  0.006068  3.943647  0.005
C  C92  1  0.54968726  0.33608534  0.52363137  1  -0.037241  0.00087  -0.076944  -0.166191  -0.000339  3.921705  0.0
C  C93  1  0.66392401  0.45031259  0.97636782  1  -0.037581  0.000868  -0.076892  -0.16611  -0.000341  3.921802  0.0
C  C94  1  0.45030827  0.66392682  0.47636629  1  -0.037631  0.000869  -0.076949  -0.166245  -0.000341  3.921875  0.0
C  C95  1  0.33607988  0.54968825  0.02363115  1  -0.037475  0.000868  -0.07694  -0.166224  -0.000341  3.921804  0.0
C  C96  1  0.45221453  0.17553028  0.47430470  1  0.596787  0.007619  0.084098  0.069797  0.006031  3.871667  0.003
C  C97  1  0.82447785  0.54777885  0.02570160  1  0.596732  0.007617  0.084203  0.069888  0.006028  3.872032  0.003
C  C98  1  0.54777540  0.82447919  0.52569529  1  0.596716  0.007616  0.084171  0.069835  0.006028  3.871818  0.003
C  C99  1  0.17552510  0.45222107  0.97430174  1  0.597083  0.007613  0.084173  0.06987  0.006025  3.871777  0.003
C  C100  1  0.64511521  0.41912585  0.51947521  1  0.498569  0.013509  0.048968  0.087791  0.010747  3.961699  0.008
C  C101  1  0.58088149  0.35488822  0.98052280  1  0.498658  0.013512  0.048872  0.087655  0.01075  3.961608  0.008
C  C102  1  0.35488775  0.58088246  0.48052265  1  0.498824  0.013512  0.048887  0.087697  0.01075  3.961649  0.008
C  C103  1  0.41912333  0.64511354  0.01947496  1  0.498565  0.013508  0.048915  0.08773  0.010747  3.96168  0.008
C  C104  1  0.11804807  0.36658746  0.21251909  1  -0.035789  0.002688  -0.101347  -0.1156  0.002079  4.003461  0.001
C  C105  1  0.63340988  0.88195027  0.28748216  1  -0.035952  0.002688  -0.101335  -0.115578  0.002079  4.003365  0.001
C  C106  1  0.88194650  0.63340517  0.78748147  1  -0.035919  0.002688  -0.101288  -0.115482  0.002078  4.003293  0.001
C  C107  1  0.36659121  0.11805155  0.71251750  1  -0.035934  0.002689  -0.101349  -0.115586  0.00208  4.003513  0.001
C  C108  1  0.65669121  0.27115577  0.41462513  1  -0.03184  0.000586  -0.073399  -0.155354  -0.000632  3.92257  0.0
C  C109  1  0.72884241  0.34330503  0.08537820  1  -0.031828  0.000583  -0.073391  -0.155363  -0.000634  3.922788  0.0
C  C110  1  0.34330522  0.72884335  0.58537677  1  -0.031937  0.000583  -0.073366  -0.155344  -0.000635  3.922688  0.0
C  C111  1  0.27115589  0.65669777  0.91462320  1  -0.031838  0.000583  -0.07334  -0.155336  -0.000634  3.922763  0.0
C  C112  1  0.02742185  0.81202273  0.46667161  1  0.490224  0.006986  0.053825  0.098446  0.005372  3.935212  0.004
C  C113  1  0.18797686  0.97257658  0.03332806  1  0.490288  0.00698  0.053844  0.098486  0.005367  3.935057  0.004
C  C114  1  0.97257552  0.18797544  0.53332558  1  0.490618  0.006979  0.053903  0.098554  0.005366  3.934926  0.004
C  C115  1  0.81202609  0.02742335  0.96667266  1  0.490617  0.006982  0.053849  0.098508  0.00537  3.934903  0.004
C  C116  1  0.21396336  0.80774201  0.35256109  1  -0.006733  0.002244  -0.078874  -0.173691  0.001535  3.935621  0.001
C  C117  1  0.19225747  0.78603571  0.14744284  1  -0.006655  0.002247  -0.078916  -0.173748  0.001537  3.93574  0.001
C  C118  1  0.78603587  0.19225706  0.64743899  1  -0.006977  0.002247  -0.078853  -0.1737  0.001537  3.93579  0.001
C  C119  1  0.80774176  0.21396801  0.85255945  1  -0.006803  0.002244  -0.078894  -0.173783  0.001534  3.93571  0.001
C  C120  1  0.74815775  0.35583534  0.41488941  1  0.464389  0.011508  0.048211  0.090991  0.008828  3.945413  0.007
C  C121  1  0.64416021  0.25184196  0.08511018  1  0.464593  0.011512  0.048204  0.09102  0.008832  3.945631  0.007
C  C122  1  0.25184333  0.64415904  0.58511198  1  0.464428  0.011512  0.048152  0.090937  0.008832  3.945579  0.007
C  C123  1  0.35583902  0.74815897  0.91488868  1  0.464546  0.011507  0.048137  0.090919  0.008828  3.945622  0.007
S  S124  1  0.26447636  0.28320133  0.30415824  1  0.281861  0.006493  0.100713  0.172204  0.004658  2.911091  0.003
S  S125  1  0.71679577  0.73552556  0.19584023  1  0.281924  0.006494  0.100683  0.172132  0.004658  2.910964  0.003
S  S126  1  0.73552100  0.71678754  0.69584031  1  0.28194  0.006493  0.100695  0.172158  0.004658  2.910942  0.003
S  S127  1  0.28320067  0.26447449  0.80415949  1  0.281886  0.006493  0.100683  0.172151  0.004657  2.91103  0.003
N  N128  1  0.02176181  0.72890972  0.42179632  1  -1.252467  0.048613  -0.311374  -0.227831  0.03089  3.489034  0.014
N  N129  1  0.27108931  0.97823505  0.07820463  1  -1.254458  0.048619  -0.311389  -0.22788  0.030895  3.489159  0.014
N  N130  1  0.97823556  0.27108659  0.57820156  1  -1.252697  0.048605  -0.311393  -0.227909  0.030894  3.489081  0.014
N  N131  1  0.72891457  0.02176486  0.92179705  1  -1.252689  0.048615  -0.31133  -0.227741  0.030889  3.488972  0.014
N  N132  1  0.45029087  0.10465376  0.42574029  1  -0.742824  0.009091  -0.214435  -0.183838  0.00696  3.306545  0.007
N  N133  1  0.89534817  0.54970277  0.07426449  1  -0.743254  0.009089  -0.214453  -0.183872  0.006958  3.306762  0.007
N  N134  1  0.54969998  0.89535196  0.57426362  1  -0.743108  0.009097  -0.214454  -0.18395  0.006964  3.306441  0.007
N  N135  1  0.10464920  0.45029819  0.92573664  1  -0.743106  0.009091  -0.214468  -0.18393  0.00696  3.306513  0.007
N  N136  1  0.74319323  0.42968256  0.46615054  1  -1.283164  0.05393  -0.318713  -0.237978  0.033245  3.490021  0.017
N  N137  1  0.57031713  0.25680948  0.03384783  1  -1.283096  0.053943  -0.318691  -0.237943  0.033247  3.490014  0.017
N  N138  1  0.25681065  0.57031550  0.53384817  1  -1.283016  0.053941  -0.318638  -0.237868  0.033245  3.489838  0.017
N  N139  1  0.42968583  0.74319231  0.96614904  1  -1.283111  0.053928  -0.318617  -0.237845  0.033242  3.489857  0.017
N  N140  1  0.34522959  0.03226898  0.44149522  1  -0.758719  0.004145  -0.20566  -0.160346  0.002847  3.356669  0.002
N  N141  1  0.96773236  0.65476502  0.05850898  1  -0.758937  0.004143  -0.205579  -0.160203  0.002846  3.35639  0.002
N  N142  1  0.65476127  0.96773489  0.55850834  1  -0.759111  0.00414  -0.20561  -0.160237  0.002843  3.356617  0.002
N  N143  1  0.03226501  0.34523687  0.94149206  1  -0.759178  0.004142  -0.205584  -0.160241  0.002845  3.356658  0.002
O  O144  1  0.27788377  0.25633394  0.09993327  1  -1.186693  0.061372  -0.316344  -0.54498  0.042594  2.245528  0.03
O  O145  1  0.74366309  0.72211921  0.40006566  1  -1.186674  0.061372  -0.316304  -0.544929  0.042592  2.245575  0.03
O  O146  1  0.72212662  0.74366028  0.90006467  1  -1.18667  0.061356  -0.316306  -0.545029  0.042594  2.245615  0.03
O  O147  1  0.25633334  0.27788177  0.59993450  1  -1.186655  0.061368  -0.316331  -0.544988  0.042596  2.24563  0.03
O  O148  1  0.00928015  0.45414221  0.42516016  1  -1.224607  0.075128  -0.307403  -0.572357  0.056568  2.454677  0.034
O  O149  1  0.54585497  0.99072450  0.07484042  1  -1.224705  0.075143  -0.307375  -0.572287  0.056573  2.454745  0.034
O  O150  1  0.99072838  0.54585204  0.57484161  1  -1.224826  0.075145  -0.307454  -0.572372  0.056571  2.454676  0.034
O  O151  1  0.45414333  0.00927179  0.92515528  1  -1.224713  0.07512  -0.307462  -0.572332  0.056563  2.454726  0.034
O  O152  1  0.19399372  0.37045910  0.44708185  1  -1.185389  0.07449  -0.313402  -0.543008  0.052375  2.256431  0.038
O  O153  1  0.62954143  0.80601202  0.05291692  1  -1.185329  0.074494  -0.313387  -0.542938  0.052371  2.256663  0.038
O  O154  1  0.80601387  0.62953331  0.55291598  1  -1.185472  0.074512  -0.313417  -0.543073  0.052376  2.256581  0.038
O  O155  1  0.37045965  0.19398236  0.94708342  1  -1.185367  0.074511  -0.313475  -0.543164  0.052379  2.256671  0.038
O  O156  1  0.37946277  0.14593129  0.18294791  1  -1.191757  0.04307  -0.321164  -0.568562  0.031245  2.172772  0.026
O  O157  1  0.85407534  0.62054529  0.31705245  1  -1.19173  0.043071  -0.321112  -0.56853  0.031247  2.172673  0.026
O  O158  1  0.62054204  0.85406768  0.81705483  1  -1.191577  0.04307  -0.321144  -0.568584  0.031248  2.172621  0.026
O  O159  1  0.14592854  0.37945835  0.68294785  1  -1.191776  0.04307  -0.321114  -0.568563  0.031246  2.172723  0.026
