# generated using pymatgen
data_Cu3H20C14I2N7
_symmetry_space_group_name_H-M   'P 1'
_cell_length_a   7.88515674
_cell_length_b   11.38620823
_cell_length_c   12.59635654
_cell_angle_alpha   78.00035066
_cell_angle_beta   71.79080669
_cell_angle_gamma   69.76580939
_symmetry_Int_Tables_number   1
_chemical_formula_structural   Cu3H20C14I2N7
_chemical_formula_sum   'Cu6 H40 C28 I4 N14'
_cell_volume   1001.65134333
_cell_formula_units_Z   2
loop_
 _symmetry_equiv_pos_site_id
 _symmetry_equiv_pos_as_xyz
  1  'x, y, z'
loop_
 _atom_site_type_symbol
 _atom_site_label
 _atom_site_symmetry_multiplicity
 _atom_site_fract_x
 _atom_site_fract_y
 _atom_site_fract_z
 _atom_site_occupancy
 _atom_site_hle17_bader_spin_density
 _atom_site_hle17_ddec_charge
 _atom_site_hle17_ddec_spin_density
 _atom_site_hle17_ddec_sum_bond_order
 _atom_site_hle17_magmom
 _atom_site_hse06_10hf_bader_spin_density
 _atom_site_hse06_10hf_ddec_charge
 _atom_site_hse06_10hf_ddec_spin_density
 _atom_site_hse06_10hf_ddec_sum_bond_order
 _atom_site_hse06_10hf_magmom
 _atom_site_hse06_bader_spin_density
 _atom_site_hse06_ddec_charge
 _atom_site_hse06_ddec_spin_density
 _atom_site_hse06_ddec_sum_bond_order
 _atom_site_hse06_magmom
 _atom_site_pbe_bader_spin_density
 _atom_site_pbe_cm5_charge
 _atom_site_pbe_ddec_charge
 _atom_site_pbe_ddec_spin_density
 _atom_site_pbe_ddec_sum_bond_order
 _atom_site_pbe_magmom
Cu  Cu0  1  0.19986216  0.24998290  0.74991562  1  0  0.31145  0  2.098593  0  0  0.240873  0  2.563801  0  0  0.260291  0  2.501471  0  0  0.27303  0.228544  0  2.60579  0
Cu  Cu1  1  0.80013959  0.75001871  0.25008279  1  0  0.311402  0  2.098663  0  0  0.240835  0  2.563871  0  0  0.260247  0  2.50152  0  0  0.272999  0.228503  0  2.605855  0
Cu  Cu2  1  0.41487408  0.39877475  0.71092186  1  0  0.331462  0  1.942855  0  0  0.216791  0  2.410746  0  0  0.232907  0  2.356607  0  0  0.403156  0.207658  0  2.446899  0
Cu  Cu3  1  0.52407887  0.10157581  0.78940109  1  0  0.331171  0  1.944679  0  0  0.216604  0  2.413106  0  0  0.232661  0  2.358876  0  0  0.402943  0.207664  0  2.448942  0
Cu  Cu4  1  0.58513176  0.60122118  0.28907160  1  0  0.331478  0  1.942848  0  0  0.21678  0  2.410777  0  0  0.232891  0  2.356629  0  0  0.403124  0.207605  0  2.446946  0
Cu  Cu5  1  0.47592340  0.89842579  0.21059547  1  0  0.331216  0  1.944663  0  0  0.216618  0  2.413041  0  0  0.232683  0  2.358816  0  0  0.402963  0.207701  0  2.448877  0
H  H6  1  0.83984122  0.79106088  0.76919578  1  0  0.117995  0  0.962486  0  0  0.127552  0  1.025203  0  0  0.129872  0  1.024717  0  0  0.118121  0.125743  0  1.025856  0
H  H7  1  0.40057967  0.70873094  0.73086673  1  0  0.117215  0  0.961883  0  0  0.126741  0  1.024886  0  0  0.129063  0  1.024356  0  0  0.117637  0.124784  0  1.025816  0
H  H8  1  0.16016734  0.20893040  0.23080820  1  0  0.117915  0  0.962504  0  0  0.1275  0  1.025187  0  0  0.129819  0  1.024704  0  0  0.118089  0.125689  0  1.02584  0
H  H9  1  0.59940586  0.29127353  0.26913562  1  0  0.117191  0  0.96194  0  0  0.12671  0  1.024955  0  0  0.129031  0  1.02442  0  0  0.117626  0.124756  0  1.025884  0
H  H10  1  0.05296662  0.56921555  0.86579877  1  0  0.096554  0  0.995481  0  0  0.100809  0  1.06744  0  0  0.103874  0  1.065553  0  0  0.096289  0.098619  0  1.068694  0
H  H11  1  0.48838142  0.93059098  0.63430198  1  0  0.096581  0  0.995084  0  0  0.1006  0  1.067265  0  0  0.103678  0  1.065408  0  0  0.096336  0.098219  0  1.068933  0
H  H12  1  0.94703609  0.43077192  0.13419981  1  0  0.096494  0  0.995586  0  0  0.100785  0  1.067491  0  0  0.103849  0  1.065605  0  0  0.096292  0.098574  0  1.068762  0
H  H13  1  0.51160272  0.06941535  0.36569806  1  0  0.096528  0  0.995096  0  0  0.100555  0  1.067266  0  0  0.103629  0  1.065415  0  0  0.09631  0.098171  0  1.068935  0
H  H14  1  0.29151059  0.60545756  0.51446956  1  0  0.090048  0  0.967167  0  0  0.094321  0  1.044515  0  0  0.098229  0  1.038923  0  0  0.121969  0.09118  0  1.04896  0
H  H15  1  0.41115746  0.89479223  0.98577026  1  0  0.090152  0  0.965713  0  0  0.093773  0  1.04409  0  0  0.097876  0  1.038265  0  0  0.121456  0.090574  0  1.048524  0
H  H16  1  0.70848751  0.39454030  0.48553189  1  0  0.090035  0  0.967132  0  0  0.094303  0  1.044485  0  0  0.098211  0  1.03889  0  0  0.121988  0.091162  0  1.048933  0
H  H17  1  0.58884306  0.10521223  0.01423181  1  0  0.090167  0  0.965765  0  0  0.093775  0  1.044146  0  0  0.09789  0  1.038307  0  0  0.121457  0.090578  0  1.048582  0
H  H18  1  0.15695910  0.93002445  0.55900837  1  0  0.072633  0  0.945775  0  0  0.089189  0  1.008843  0  0  0.090077  0  1.009726  0  0  0.083771  0.088452  0  1.008352  0
H  H19  1  0.64581081  0.57003970  0.94076393  1  0  0.072374  0  0.945362  0  0  0.088723  0  1.008892  0  0  0.089607  0  1.009806  0  0  0.084319  0.088075  0  1.008193  0
H  H20  1  0.84304074  0.06996969  0.44100139  1  0  0.072611  0  0.945741  0  0  0.089145  0  1.008819  0  0  0.090051  0  1.009687  0  0  0.083767  0.088406  0  1.008329  0
H  H21  1  0.35418552  0.42996568  0.05923514  1  0  0.07236  0  0.945447  0  0  0.088721  0  1.008955  0  0  0.089605  0  1.009868  0  0  0.084336  0.088076  0  1.008252  0
H  H22  1  0.91376315  0.98503996  0.62758538  1  0  0.067194  0  0.949435  0  0  0.082993  0  1.019131  0  0  0.084574  0  1.017778  0  0  0.086845  0.081759  0  1.020189  0
H  H23  1  0.52561413  0.51502488  0.87247538  1  0  0.066746  0  0.948882  0  0  0.083017  0  1.018386  0  0  0.084646  0  1.017033  0  0  0.086195  0.081645  0  1.019688  0
H  H24  1  0.08623856  0.01495418  0.37242385  1  0  0.067157  0  0.949455  0  0  0.082943  0  1.019153  0  0  0.084524  0  1.017808  0  0  0.086835  0.081707  0  1.020209  0
H  H25  1  0.47438525  0.48498143  0.12752147  1  0  0.066721  0  0.948888  0  0  0.083001  0  1.018387  0  0  0.084628  0  1.017036  0  0  0.086163  0.081632  0  1.019685  0
H  H26  1  0.96062122  0.46206206  0.59099537  1  0  0.123524  0  0.947595  0  0  0.143925  0  1.009727  0  0  0.14559  0  1.009493  0  0  0.093012  0.142651  0  1.010051  0
H  H27  1  0.01359057  0.03825501  0.90896404  1  0  0.124389  0  0.947549  0  0  0.144373  0  1.010051  0  0  0.146003  0  1.009838  0  0  0.093352  0.14305  0  1.010382  0
H  H28  1  0.03938391  0.53793670  0.40899990  1  0  0.123554  0  0.947618  0  0  0.143948  0  1.009751  0  0  0.145614  0  1.009518  0  0  0.093017  0.142675  0  1.01007  0
H  H29  1  0.98641225  0.96174661  0.09103463  1  0  0.124378  0  0.947604  0  0  0.14437  0  1.010094  0  0  0.145998  0  1.009885  0  0  0.09335  0.143047  0  1.010426  0
H  H30  1  0.85025637  0.52157803  0.72267192  1  0  0.126078  0  0.962534  0  0  0.145686  0  1.024941  0  0  0.147199  0  1.025819  0  0  0.094024  0.144618  0  1.024355  0
H  H31  1  0.09446161  0.97868850  0.77727491  1  0  0.126331  0  0.961424  0  0  0.145674  0  1.024422  0  0  0.14717  0  1.02527  0  0  0.093431  0.144594  0  1.023775  0
H  H32  1  0.14974704  0.47842637  0.27732196  1  0  0.126155  0  0.962379  0  0  0.145724  0  1.024854  0  0  0.147237  0  1.025728  0  0  0.094035  0.144657  0  1.024271  0
H  H33  1  0.90553949  0.02131217  0.22272334  1  0  0.126311  0  0.961442  0  0  0.145636  0  1.024469  0  0  0.147132  0  1.025316  0  0  0.093401  0.144556  0  1.023823  0
H  H34  1  0.71188689  0.53088469  0.63115193  1  0  0.113929  0  0.969912  0  0  0.126591  0  1.049524  0  0  0.129645  0  1.046583  0  0  0.084291  0.12429  0  1.051733  0
H  H35  1  0.87395516  0.96929192  0.86869535  1  0  0.11455  0  0.969727  0  0  0.127402  0  1.04921  0  0  0.130475  0  1.046226  0  0  0.084302  0.125058  0  1.051432  0
H  H36  1  0.28811740  0.46911596  0.36884314  1  0  0.113917  0  0.969949  0  0  0.126608  0  1.049532  0  0  0.129663  0  1.046592  0  0  0.08431  0.124307  0  1.051738  0
H  H37  1  0.12604642  0.03071062  0.13130005  1  0  0.114626  0  0.969688  0  0  0.127517  0  1.049125  0  0  0.13059  0  1.046139  0  0  0.084358  0.125171  0  1.051349  0
H  H38  1  0.84675262  0.84108394  0.53281018  1  0  0.073297  0  0.941029  0  0  0.086162  0  1.008987  0  0  0.087055  0  1.008468  0  0  0.098366  0.08532  0  1.009573  0
H  H39  1  0.22054248  0.65900789  0.96741940  1  0  0.072719  0  0.941272  0  0  0.085384  0  1.010264  0  0  0.086389  0  1.009597  0  0  0.097615  0.0847  0  1.010507  0
H  H40  1  0.15324775  0.15891488  0.46719380  1  0  0.073295  0  0.941038  0  0  0.086148  0  1.00902  0  0  0.087045  0  1.0085  0  0  0.098369  0.085311  0  1.00961  0
H  H41  1  0.77945310  0.34099562  0.03258145  1  0  0.072749  0  0.941269  0  0  0.085417  0  1.010235  0  0  0.086423  0  1.009563  0  0  0.097619  0.084733  0  1.010478  0
H  H42  1  0.08245270  0.79784949  0.45077825  1  0  0.084116  0  0.943639  0  0  0.097706  0  1.00643  0  0  0.097343  0  1.008907  0  0  0.110675  0.097851  0  1.004845  0
H  H43  1  0.33136549  0.70212868  0.04938484  1  0  0.083199  0  0.943849  0  0  0.097406  0  1.006525  0  0  0.097074  0  1.008941  0  0  0.111187  0.097496  0  1.005046  0
H  H44  1  0.91754939  0.20215028  0.54922616  1  0  0.084133  0  0.943667  0  0  0.097713  0  1.006472  0  0  0.097353  0  1.008953  0  0  0.110699  0.097875  0  1.004872  0
H  H45  1  0.66863303  0.29787483  0.95061575  1  0  0.083252  0  0.943855  0  0  0.097436  0  1.006541  0  0  0.097096  0  1.008969  0  0  0.111173  0.097537  0  1.005053  0
C  C46  1  0.96478577  0.71916425  0.73195216  1  0  -0.06145  0  3.665598  0  0  -0.097983  0  3.91475  0  0  -0.096952  0  3.935137  0  0  -0.001385  -0.098474  0  3.900987  0
C  C47  1  0.41614856  0.78073202  0.76819056  1  0  -0.05901  0  3.664736  0  0  -0.0956  0  3.913966  0  0  -0.094504  0  3.934273  0  0  -0.000832  -0.096274  0  3.900489  0
C  C48  1  0.03521036  0.28083268  0.26805176  1  0  -0.06137  0  3.665872  0  0  -0.097913  0  3.915005  0  0  -0.096882  0  3.935393  0  0  -0.001356  -0.098406  0  3.901243  0
C  C49  1  0.58384015  0.21927433  0.23181159  1  0  -0.058969  0  3.664769  0  0  -0.095555  0  3.913997  0  0  -0.094453  0  3.934297  0  0  -0.000796  -0.09622  0  3.900494  0
C  C50  1  0.07194348  0.60973105  0.77871178  1  0  -0.020014  0  3.766289  0  0  -0.050904  0  4.0292  0  0  -0.049567  0  4.047849  0  0  -0.016058  -0.051962  0  4.016929  0
C  C51  1  0.46061326  0.89017357  0.72143337  1  0  -0.021281  0  3.766293  0  0  -0.051944  0  4.029279  0  0  -0.05064  0  4.04781  0  0  -0.016621  -0.052857  0  4.016996  0
C  C52  1  0.92806312  0.39025740  0.22129171  1  0  -0.019878  0  3.766541  0  0  -0.050796  0  4.029396  0  0  -0.04946  0  4.048048  0  0  -0.01599  -0.051831  0  4.017132  0
C  C53  1  0.53937797  0.10982712  0.27856937  1  0  -0.021228  0  3.766333  0  0  -0.051892  0  4.029304  0  0  -0.050582  0  4.047837  0  0  -0.016599  -0.052801  0  4.01702  0
C  C54  1  0.81428030  0.34685518  0.71281590  1  0  0.388722  0  3.75083  0  0  0.3773  0  4.012542  0  0  0.392126  0  4.028442  0  0  0.203304  0.367379  0  4.001721  0
C  C55  1  0.87394390  0.15336204  0.78704084  1  0  0.387559  0  3.749643  0  0  0.377227  0  4.010024  0  0  0.391956  0  4.026017  0  0  0.204177  0.367281  0  3.999282  0
C  C56  1  0.18572332  0.65314643  0.28718198  1  0  0.388721  0  3.750783  0  0  0.37733  0  4.012478  0  0  0.392154  0  4.028376  0  0  0.203351  0.367403  0  4.00165  0
C  C57  1  0.12605968  0.84664145  0.21295604  1  0  0.387662  0  3.749438  0  0  0.377344  0  4.009825  0  0  0.392071  0  4.025818  0  0  0.204238  0.367397  0  3.999071  0
C  C58  1  0.19862974  0.62227981  0.59755240  1  0  0.14933  0  3.65795  0  0  0.093205  0  3.915476  0  0  0.105847  0  3.929183  0  0  0.130284  0.084953  0  3.906322  0
C  C59  1  0.41829642  0.87788173  0.90264906  1  0  0.150163  0  3.653019  0  0  0.094409  0  3.910332  0  0  0.106915  0  3.924025  0  0  0.130871  0.086448  0  3.901099  0
C  C60  1  0.80136726  0.37771333  0.40244875  1  0  0.149311  0  3.657791  0  0  0.093185  0  3.915304  0  0  0.105816  0  3.929037  0  0  0.130224  0.084934  0  3.906149  0
C  C61  1  0.58169665  0.12212553  0.09734823  1  0  0.150143  0  3.652807  0  0  0.094405  0  3.910106  0  0  0.106893  0  3.923819  0  0  0.130875  0.08644  0  3.90088  0
C  C62  1  0.01498278  0.94994239  0.54964151  1  0  -0.124095  0  3.684816  0  0  -0.162967  0  3.938738  0  0  -0.164849  0  3.95246  0  0  -0.167505  -0.161495  0  3.929312  0
C  C63  1  0.51431095  0.55009385  0.95037802  1  0  -0.124068  0  3.682277  0  0  -0.16318  0  3.938028  0  0  -0.165157  0  3.951961  0  0  -0.167474  -0.161613  0  3.928476  0
C  C64  1  0.98501968  0.05005362  0.45036594  1  0  -0.124064  0  3.684728  0  0  -0.162855  0  3.938605  0  0  -0.164758  0  3.95234  0  0  -0.16748  -0.161392  0  3.92919  0
C  C65  1  0.48568710  0.44991248  0.04962148  1  0  -0.124134  0  3.68235  0  0  -0.163244  0  3.938061  0  0  -0.165212  0  3.951979  0  0  -0.167512  -0.161677  0  3.928512  0
C  C66  1  0.83422112  0.47240443  0.66173524  1  0  -0.383593  0  3.71233  0  0  -0.464791  0  3.947636  0  0  -0.46855  0  3.952821  0  0  -0.240512  -0.462016  0  3.944153  0
C  C67  1  0.96835477  0.02781827  0.83817073  1  0  -0.384867  0  3.712049  0  0  -0.466158  0  3.947672  0  0  -0.469785  0  3.952734  0  0  -0.240794  -0.463357  0  3.944314  0
C  C68  1  0.16578275  0.52759716  0.33825973  1  0  -0.38365  0  3.712302  0  0  -0.464857  0  3.947689  0  0  -0.468618  0  3.952874  0  0  -0.24053  -0.462071  0  3.944201  0
C  C69  1  0.03164763  0.97218429  0.16182784  1  0  -0.384952  0  3.712149  0  0  -0.466268  0  3.947754  0  0  -0.469891  0  3.952811  0  0  -0.240847  -0.463466  0  3.944393  0
C  C70  1  0.99181685  0.82835437  0.53227483  1  0  0.00073  0  3.615865  0  0  -0.054794  0  3.864094  0  0  -0.051064  0  3.876327  0  0  -0.054641  -0.057139  0  3.85583  0
C  C71  1  0.35243429  0.67165874  0.96790029  1  0  0.004685  0  3.614543  0  0  -0.052012  0  3.864217  0  0  -0.048296  0  3.8765  0  0  -0.053801  -0.054362  0  3.855771  0
C  C72  1  0.00818384  0.17164258  0.46773121  1  0  0.000795  0  3.615794  0  0  -0.054738  0  3.864035  0  0  -0.051007  0  3.876269  0  0  -0.054621  -0.057097  0  3.855778  0
C  C73  1  0.64756273  0.32834571  0.03209994  1  0  0.004643  0  3.614569  0  0  -0.052022  0  3.86421  0  0  -0.048302  0  3.876493  0  0  -0.053664  -0.05438  0  3.855765  0
I  I74  1  0.43319912  0.22565495  0.55933376  1  0  -0.461551  0  1.365793  0  0  -0.399203  0  1.761007  0  0  -0.416466  0  1.722074  0  0  -0.20815  -0.386793  0  1.787614  0
I  I75  1  0.21742739  0.27422193  0.94085395  1  0  -0.462018  0  1.365917  0  0  -0.399336  0  1.761076  0  0  -0.416628  0  1.721996  0  0  -0.208468  -0.387315  0  1.787254  0
I  I76  1  0.56679877  0.77434571  0.44066370  1  0  -0.461568  0  1.36579  0  0  -0.399221  0  1.761011  0  0  -0.416477  0  1.722066  0  0  -0.208161  -0.386809  0  1.787616  0
I  I77  1  0.78258422  0.72577496  0.05914389  1  0  -0.462043  0  1.365932  0  0  -0.399313  0  1.761014  0  0  -0.416603  0  1.721927  0  0  -0.208468  -0.387291  0  1.78719  0
N  N78  1  0.66194893  0.31213148  0.72679120  1  0  -0.313286  0  3.377425  0  0  -0.249468  0  3.679769  0  0  -0.263959  0  3.688903  0  0  -0.322593  -0.240519  0  3.674081  0
N  N79  1  0.70080877  0.18807156  0.77318025  1  0  -0.31375  0  3.375903  0  0  -0.250665  0  3.678397  0  0  -0.265109  0  3.687526  0  0  -0.3242  -0.241741  0  3.672727  0
N  N80  1  0.33805723  0.68786916  0.27320334  1  0  -0.313266  0  3.377392  0  0  -0.249431  0  3.679725  0  0  -0.263917  0  3.688854  0  0  -0.322553  -0.240471  0  3.674009  0
N  N81  1  0.29919754  0.81192814  0.22681333  1  0  -0.313837  0  3.375985  0  0  -0.250766  0  3.678461  0  0  -0.26521  0  3.687594  0  0  -0.324282  -0.241853  0  3.672794  0
N  N82  1  0.04658639  0.72526090  0.61749234  1  0  -0.051021  0  3.568541  0  0  0.045717  0  3.776101  0  0  0.031119  0  3.803477  0  0  -0.240473  0.055345  0  3.757393  0
N  N83  1  0.38937163  0.77476194  0.88269634  1  0  -0.054031  0  3.567751  0  0  0.043234  0  3.775518  0  0  0.028574  0  3.803018  0  0  -0.240915  0.052836  0  3.756841  0
N  N84  1  0.95341646  0.27473415  0.38251125  1  0  -0.051037  0  3.568398  0  0  0.045699  0  3.775964  0  0  0.031103  0  3.803346  0  0  -0.24048  0.055328  0  3.757263  0
N  N85  1  0.61062365  0.22524347  0.11730643  1  0  -0.054052  0  3.567696  0  0  0.043198  0  3.775466  0  0  0.028537  0  3.802964  0  0  -0.241029  0.0528  0  3.756797  0
N  N86  1  0.94906663  0.25011347  0.74986507  1  0  -0.463256  0  3.250688  0  0  -0.399521  0  3.544856  0  0  -0.420795  0  3.550183  0  0  -0.394298  -0.38548  0  3.541123  0
N  N87  1  0.05093565  0.74988813  0.25013148  1  0  -0.463241  0  3.250455  0  0  -0.399543  0  3.544654  0  0  -0.420814  0  3.549972  0  0  -0.394331  -0.385504  0  3.540912  0
N  N88  1  0.21785456  0.54990707  0.69391505  1  0  -0.343345  0  3.486226  0  0  -0.266964  0  3.802327  0  0  -0.282297  0  3.808394  0  0  -0.410843  -0.257177  0  3.798248  0
N  N89  1  0.46168814  0.95015630  0.80626521  1  0  -0.344233  0  3.483492  0  0  -0.267909  0  3.799617  0  0  -0.283228  0  3.805692  0  0  -0.411397  -0.258223  0  3.795313  0
N  N90  1  0.78214337  0.45008512  0.30608436  1  0  -0.343416  0  3.486174  0  0  -0.267003  0  3.802265  0  0  -0.282336  0  3.808323  0  0  -0.41087  -0.257208  0  3.798158  0
N  N91  1  0.53830731  0.04984625  0.19373364  1  0  -0.344247  0  3.483319  0  0  -0.267921  0  3.799418  0  0  -0.283252  0  3.805507  0  0  -0.411396  -0.258241  0  3.795126  0
