# generated using pymatgen
data_Zn2H2C10O9
_symmetry_space_group_name_H-M   'P 1'
_cell_length_a   11.54350652
_cell_length_b   16.08061067
_cell_length_c   13.06852670
_cell_angle_alpha   90.00020616
_cell_angle_beta   90.00069568
_cell_angle_gamma   89.99646096
_symmetry_Int_Tables_number   1
_chemical_formula_structural   Zn2H2C10O9
_chemical_formula_sum   'Zn16 H16 C80 O72'
_cell_volume   2425.86661930
_cell_formula_units_Z   8
loop_
 _symmetry_equiv_pos_site_id
 _symmetry_equiv_pos_as_xyz
  1  'x, y, z'
loop_
 _atom_site_type_symbol
 _atom_site_label
 _atom_site_symmetry_multiplicity
 _atom_site_fract_x
 _atom_site_fract_y
 _atom_site_fract_z
 _atom_site_occupancy
 _atom_site_pbe_bader_charge
 _atom_site_pbe_bader_spin_density
 _atom_site_pbe_cm5_charge
 _atom_site_pbe_ddec_charge
 _atom_site_pbe_ddec_spin_density
 _atom_site_pbe_ddec_sum_bond_order
 _atom_site_pbe_magmom
Zn  Zn0  1  0.99699100  0.18928071  0.99983631  1  1.334294  0  0.694488  0.941909  0  2.183153  0
Zn  Zn1  1  0.00299904  0.18929917  0.50016636  1  1.334221  0  0.694508  0.941902  0  2.182829  0
Zn  Zn2  1  0.49699692  0.31068939  0.50016073  1  1.334208  0  0.694549  0.942003  0  2.18281  0
Zn  Zn3  1  0.50302478  0.31072828  0.99981881  1  1.334167  0  0.694494  0.941933  0  2.182996  0
Zn  Zn4  1  0.00303089  0.81072164  0.00017178  1  1.333961  0  0.694528  0.941943  0  2.183068  0
Zn  Zn5  1  0.99698214  0.81070568  0.49981342  1  1.334238  0  0.694567  0.942005  0  2.182688  0
Zn  Zn6  1  0.50299379  0.68930426  0.49983741  1  1.334533  0  0.694506  0.941967  0  2.182792  0
Zn  Zn7  1  0.49699192  0.68927283  0.00019540  1  1.334323  0  0.694532  0.942062  0  2.18283  0
Zn  Zn8  1  0.75000794  0.24999716  0.12854686  1  1.426344  0  0.70298  1.021306  0  2.297841  0
Zn  Zn9  1  0.24999623  0.24999824  0.37144704  1  1.425989  0  0.70291  1.02108  0  2.297613  0
Zn  Zn10  1  0.25000270  0.74999960  0.87146658  1  1.426127  0  0.702981  1.021253  0  2.297922  0
Zn  Zn11  1  0.74999707  0.74999976  0.62854268  1  1.426393  0  0.702906  1.021133  0  2.297704  0
Zn  Zn12  1  0.99999138  0.84227927  0.74999234  1  1.385471  0  0.687378  0.991791  0  2.163012  0
Zn  Zn13  1  0.50001331  0.65770063  0.75001252  1  1.384536  0  0.687301  0.991719  0  2.162821  0
Zn  Zn14  1  0.00000886  0.15771003  0.24999968  1  1.385116  0  0.687384  0.991744  0  2.162889  0
Zn  Zn15  1  0.49998693  0.34229426  0.24999633  1  1.384441  0  0.687418  0.991891  0  2.162735  0
H  H16  1  0.08169120  0.43373347  0.87559758  1  0.163586  0  0.118577  0.129631  0  0.973638  0
H  H17  1  0.07104590  0.58594771  0.84131042  1  0.115303  0  0.1081  0.116517  0  1.04014  0
H  H18  1  0.91832041  0.43377126  0.62441626  1  0.164214  0  0.118597  0.129716  0  0.97356  0
H  H19  1  0.92897079  0.58598015  0.65870895  1  0.114692  0  0.108081  0.116586  0  1.039992  0
H  H20  1  0.58168083  0.06621781  0.62440517  1  0.163509  0  0.11856  0.129642  0  0.973877  0
H  H21  1  0.57103057  0.91400763  0.65869155  1  0.11483  0  0.108134  0.116557  0  1.040178  0
H  H22  1  0.41833577  0.06627254  0.87558385  1  0.163673  0  0.118542  0.129613  0  0.973708  0
H  H23  1  0.42895921  0.91405452  0.84130607  1  0.115302  0  0.108096  0.11652  0  1.040101  0
H  H24  1  0.91831857  0.56627325  0.12439826  1  0.16366  0  0.118577  0.129761  0  0.97354  0
H  H25  1  0.92895607  0.41405776  0.15869308  1  0.115413  0  0.108103  0.116467  0  1.040137  0
H  H26  1  0.08165038  0.56625722  0.37555280  1  0.163584  0  0.118523  0.129662  0  0.973647  0
H  H27  1  0.07103118  0.41404273  0.34128307  1  0.114675  0  0.108079  0.116582  0  1.039986  0
H  H28  1  0.41829948  0.93377460  0.37558072  1  0.164138  0  0.118601  0.129748  0  0.973611  0
H  H29  1  0.42894888  0.08598664  0.34130277  1  0.114994  0  0.108144  0.116678  0  1.039962  0
H  H30  1  0.58168266  0.93372982  0.12443801  1  0.163462  0  0.118596  0.129823  0  0.973488  0
H  H31  1  0.57105575  0.08594722  0.15869437  1  0.115369  0  0.108156  0.116664  0  1.040195  0
C  C32  1  0.00052634  0.46749349  0.88456042  1  -0.021468  0  -0.071377  -0.075565  0  3.961977  0
C  C33  1  0.90404184  0.42494764  0.92098345  1  -0.003562  0  -0.005934  -0.048203  0  3.964198  0
C  C34  1  0.91560146  0.33663521  0.95209472  1  1.580879  0  0.219504  0.591607  0  4.183985  0
C  C35  1  0.79767071  0.46714432  0.93477171  1  -0.048507  0  0.005799  -0.056461  0  3.89046  0
C  C36  1  0.78808910  0.55023676  0.90377830  1  0.028361  0  0.009244  -0.03668  0  3.875115  0
C  C37  1  0.67081845  0.59110110  0.90393309  1  1.628644  0  0.226414  0.61255  0  4.175883  0
C  C38  1  0.88747227  0.59362918  0.87012663  1  0.00533  0  0.001928  -0.033306  0  3.876342  0
C  C39  1  0.88151915  0.67774347  0.81824741  1  1.594767  0  0.232015  0.624432  0  4.109657  0
C  C40  1  0.99382634  0.55217244  0.86463389  1  -0.009002  0  -0.080343  -0.097328  0  3.976999  0
C  C41  1  0.69492273  0.41886030  0.97439850  1  1.476304  0  0.242682  0.519133  0  4.046812  0
C  C42  1  0.99948005  0.46752048  0.61545695  1  -0.022999  0  -0.071377  -0.07577  0  3.962343  0
C  C43  1  0.09596720  0.42495576  0.57904844  1  -0.003101  0  -0.005754  -0.047843  0  3.963499  0
C  C44  1  0.08438638  0.33665550  0.54789110  1  1.581347  0  0.219416  0.591321  0  4.184541  0
C  C45  1  0.20235650  0.46714145  0.56526707  1  -0.047521  0  0.005678  -0.056512  0  3.89005  0
C  C46  1  0.21192954  0.55023859  0.59625891  1  0.027254  0  0.009331  -0.036706  0  3.875695  0
C  C47  1  0.32920117  0.59110125  0.59610024  1  1.626896  0  0.22619  0.612119  0  4.175938  0
C  C48  1  0.11254883  0.59363703  0.62988843  1  0.006406  0  0.001836  -0.033279  0  3.877106  0
C  C49  1  0.11848721  0.67776013  0.68176075  1  1.594665  0  0.232101  0.624475  0  4.109149  0
C  C50  1  0.00618864  0.55219704  0.63537355  1  -0.012474  0  -0.080304  -0.097317  0  3.977297  0
C  C51  1  0.30509473  0.41884393  0.52563929  1  1.475922  0  0.242786  0.519575  0  4.046691  0
C  C52  1  0.50050766  0.03247310  0.61545657  1  -0.021938  0  -0.071381  -0.075899  0  3.96299  0
C  C53  1  0.40402250  0.07503634  0.57905465  1  -0.003031  0  -0.00575  -0.047777  0  3.96382  0
C  C54  1  0.41560144  0.16333717  0.54790504  1  1.58092  0  0.219358  0.591372  0  4.184385  0
C  C55  1  0.29763505  0.03285463  0.56527821  1  -0.047557  0  0.005645  -0.056578  0  3.890567  0
C  C56  1  0.28806257  0.94975751  0.59626944  1  0.02696  0  0.009267  -0.036931  0  3.875994  0
C  C57  1  0.17079097  0.90889486  0.59612279  1  1.627571  0  0.226277  0.612314  0  4.175761  0
C  C58  1  0.38745090  0.90635535  0.62989539  1  0.006242  0  0.001882  -0.033389  0  3.876982  0
C  C59  1  0.38150295  0.82223567  0.68177463  1  1.594791  0  0.231955  0.624631  0  4.109563  0
C  C60  1  0.49380775  0.94779587  0.63537632  1  -0.0085  0  -0.080306  -0.097024  0  3.977288  0
C  C61  1  0.19488828  0.08114230  0.52564304  1  1.475807  0  0.242819  0.519729  0  4.046802  0
C  C62  1  0.49949682  0.03251421  0.88454729  1  -0.02219  0  -0.071546  -0.075907  0  3.962411  0
C  C63  1  0.59598712  0.07505906  0.92095764  1  -0.003425  0  -0.005799  -0.047729  0  3.963826  0
C  C64  1  0.58441207  0.16336222  0.95209592  1  1.580239  0  0.219439  0.591275  0  4.184442  0
C  C65  1  0.70236593  0.03285840  0.93474709  1  -0.049009  0  0.005927  -0.056391  0  3.890339  0
C  C66  1  0.71192698  0.94976772  0.90375243  1  0.02846  0  0.009298  -0.036738  0  3.875792  0
C  C67  1  0.82918981  0.90889157  0.90389300  1  1.626865  0  0.226391  0.612599  0  4.175735  0
C  C68  1  0.61253794  0.90637343  0.87011648  1  0.00455  0  0.001921  -0.033137  0  3.876423  0
C  C69  1  0.61849543  0.82225012  0.81824338  1  1.594671  0  0.231918  0.624315  0  4.109605  0
C  C70  1  0.50618634  0.94783212  0.86462176  1  -0.01222  0  -0.080318  -0.097337  0  3.976997  0
C  C71  1  0.80510945  0.08113983  0.97438402  1  1.47681  0  0.24251  0.51912  0  4.046595  0
C  C72  1  0.99947650  0.53251011  0.11544079  1  -0.021543  0  -0.071518  -0.075965  0  3.962113  0
C  C73  1  0.09597052  0.57506094  0.07903536  1  -0.003524  0  -0.005868  -0.048066  0  3.964009  0
C  C74  1  0.08440918  0.66337026  0.04791642  1  1.580927  0  0.219664  0.59171  0  4.184124  0
C  C75  1  0.20234771  0.53286302  0.06525704  1  -0.048173  0  0.005753  -0.056378  0  3.89057  0
C  C76  1  0.21191807  0.44976808  0.09623821  1  0.028417  0  0.009348  -0.036757  0  3.875876  0
C  C77  1  0.32918871  0.40889504  0.09608571  1  1.628963  0  0.226241  0.612307  0  4.176673  0
C  C78  1  0.11253403  0.40637754  0.12987610  1  0.004893  0  0.001875  -0.033334  0  3.876672  0
C  C79  1  0.11848455  0.32225764  0.18174537  1  1.594984  0  0.231984  0.624298  0  4.109702  0
C  C80  1  0.00617736  0.44783240  0.13537344  1  -0.008765  0  -0.080251  -0.097076  0  3.976874  0
C  C81  1  0.30509223  0.58114579  0.02563102  1  1.475358  0  0.242648  0.5194  0  4.046694  0
C  C82  1  0.00049680  0.53250116  0.38452129  1  -0.02204  0  -0.071429  -0.075733  0  3.96219  0
C  C83  1  0.90400532  0.57506028  0.42092597  1  -0.004001  0  -0.005588  -0.047636  0  3.963485  0
C  C84  1  0.91558700  0.66335992  0.45208484  1  1.582132  0  0.219557  0.591278  0  4.184741  0
C  C85  1  0.79762641  0.53286402  0.43471806  1  -0.047603  0  0.005682  -0.056534  0  3.890318  0
C  C86  1  0.78806723  0.44976253  0.40373770  1  0.027065  0  0.009293  -0.036929  0  3.875875  0
C  C87  1  0.67080167  0.40888867  0.40389254  1  1.627204  0  0.226185  0.612198  0  4.17567  0
C  C88  1  0.88745227  0.40637341  0.37010971  1  0.005773  0  0.001961  -0.032887  0  3.876681  0
C  C89  1  0.88152169  0.32224783  0.31824045  1  1.594589  0  0.232068  0.624435  0  4.109166  0
C  C90  1  0.99380294  0.44782273  0.36461082  1  -0.011358  0  -0.080402  -0.097622  0  3.977101  0
C  C91  1  0.69489078  0.58116402  0.47434966  1  1.475737  0  0.242886  0.519732  0  4.046546  0
C  C92  1  0.49946918  0.96751869  0.38453927  1  -0.023067  0  -0.071487  -0.075929  0  3.962557  0
C  C93  1  0.59595088  0.92495545  0.42093660  1  -0.003513  0  -0.005763  -0.047878  0  3.96381  0
C  C94  1  0.58436761  0.83665213  0.45209463  1  1.581883  0  0.21955  0.591492  0  4.184537  0
C  C95  1  0.70233747  0.96713591  0.43470692  1  -0.047206  0  0.005656  -0.056188  0  3.89075  0
C  C96  1  0.71191687  0.05022992  0.40373023  1  0.02636  0  0.009507  -0.036852  0  3.87607  0
C  C97  1  0.82918415  0.09110377  0.40386922  1  1.627447  0  0.226155  0.611924  0  4.175926  0
C  C98  1  0.61252855  0.09363644  0.37010427  1  0.007438  0  0.001866  -0.033155  0  3.876829  0
C  C99  1  0.61848082  0.17775985  0.31824111  1  1.595064  0  0.232157  0.624599  0  4.109327  0
C  C100  1  0.50616909  0.05219716  0.36461800  1  -0.013546  0  -0.080379  -0.097479  0  3.977036  0
C  C101  1  0.80508251  0.91883892  0.47433903  1  1.476329  0  0.242774  0.519285  0  4.046946  0
C  C102  1  0.50052507  0.96748815  0.11547304  1  -0.022669  0  -0.071511  -0.075908  0  3.961995  0
C  C103  1  0.40404170  0.92493770  0.07905121  1  -0.002979  0  -0.005792  -0.04789  0  3.963894  0
C  C104  1  0.41562628  0.83663578  0.04790681  1  1.580359  0  0.219448  0.591447  0  4.184871  0
C  C105  1  0.29765856  0.96713339  0.06526942  1  -0.048012  0  0.005774  -0.056264  0  3.890359  0
C  C106  1  0.28809404  0.05022842  0.09624800  1  0.028023  0  0.009421  -0.036677  0  3.875791  0
C  C107  1  0.17082775  0.09110644  0.09610896  1  1.62815  0  0.226164  0.611958  0  4.176381  0
C  C108  1  0.38747702  0.09362582  0.12988013  1  0.004989  0  0.00178  -0.03339  0  3.87655  0
C  C109  1  0.38152127  0.17774726  0.18174941  1  1.595039  0  0.232032  0.624371  0  4.109482  0
C  C110  1  0.49383383  0.05217086  0.13537867  1  -0.00793  0  -0.080307  -0.097461  0  3.977034  0
C  C111  1  0.19491417  0.91884823  0.02563172  1  1.475759  0  0.242562  0.519124  0  4.046887  0
O  O112  1  0.00684671  0.29616431  0.92679047  1  -1.13584  0  -0.304804  -0.505707  0  2.233161  0
O  O113  1  0.83443834  0.30566880  0.00468232  1  -1.194532  0  -0.305512  -0.574438  0  2.474775  0
O  O114  1  0.68820427  0.41860115  0.07777289  1  -0.558624  0  -0.066619  -0.055924  0  2.333963  0
O  O115  1  0.62332007  0.38481052  0.91779249  1  -1.112801  0  -0.252575  -0.420499  0  2.24473  0
O  O116  1  0.64360086  0.62927165  0.98616245  1  -1.144743  0  -0.30729  -0.522192  0  2.277266  0
O  O117  1  0.61134931  0.58200310  0.82377324  1  -1.158725  0  -0.298426  -0.520443  0  2.333224  0
O  O118  1  0.81794415  0.67669063  0.73956810  1  -1.164967  0  -0.297021  -0.538289  0  2.412907  0
O  O119  1  0.94484232  0.73848232  0.84719686  1  -1.180436  0  -0.302458  -0.579724  0  2.393731  0
O  O120  1  0.61852665  0.34659734  0.11253239  1  -0.597148  0  -0.261496  -0.477618  0  2.154774  0
O  O121  1  0.99316782  0.29617985  0.57322603  1  -1.136271  0  -0.304859  -0.50565  0  2.233207  0
O  O122  1  0.16552717  0.30570360  0.49526846  1  -1.19471  0  -0.305371  -0.574186  0  2.474893  0
O  O123  1  0.31181975  0.41861342  0.42226081  1  -0.558029  0  -0.066739  -0.056315  0  2.334302  0
O  O124  1  0.37665933  0.38474830  0.58223029  1  -1.113358  0  -0.252619  -0.420726  0  2.244332  0
O  O125  1  0.35640097  0.62929160  0.51387839  1  -1.144995  0  -0.307007  -0.521833  0  2.277095  0
O  O126  1  0.38868338  0.58198787  0.67625441  1  -1.157846  0  -0.298587  -0.520567  0  2.333078  0
O  O127  1  0.18205191  0.67671106  0.76044615  1  -1.165097  0  -0.297199  -0.538316  0  2.412686  0
O  O128  1  0.05516124  0.73850361  0.65280127  1  -1.180375  0  -0.302422  -0.579756  0  2.393707  0
O  O129  1  0.38147275  0.34659844  0.38747421  1  -0.597012  0  -0.261499  -0.477457  0  2.154617  0
O  O130  1  0.50682036  0.20381512  0.57325028  1  -1.135751  0  -0.304762  -0.505626  0  2.233127  0
O  O131  1  0.33446772  0.19428754  0.49526333  1  -1.194372  0  -0.305408  -0.574287  0  2.474761  0
O  O132  1  0.18817628  0.08137718  0.42226371  1  -0.557892  0  -0.066685  -0.056196  0  2.334192  0
O  O133  1  0.12333167  0.11523878  0.58223618  1  -1.113226  0  -0.252596  -0.420795  0  2.244554  0
O  O134  1  0.14356930  0.87072030  0.51389535  1  -1.14499  0  -0.3071  -0.521846  0  2.276783  0
O  O135  1  0.11132484  0.91800491  0.67627897  1  -1.158466  0  -0.298561  -0.520603  0  2.333201  0
O  O136  1  0.31796492  0.82329947  0.76047270  1  -1.165402  0  -0.29699  -0.53839  0  2.413535  0
O  O137  1  0.44480855  0.76148089  0.65282016  1  -1.180144  0  -0.302468  -0.579877  0  2.393597  0
O  O138  1  0.11852103  0.15339403  0.38747782  1  -0.597006  0  -0.261518  -0.477468  0  2.15451  0
O  O139  1  0.49321063  0.20385880  0.92673226  1  -1.13571  0  -0.304818  -0.505609  0  2.233413  0
O  O140  1  0.66554046  0.19429295  0.00475304  1  -1.19438  0  -0.305519  -0.574308  0  2.474852  0
O  O141  1  0.81183748  0.08138104  0.07776233  1  -0.558284  0  -0.066611  -0.05594  0  2.333636  0
O  O142  1  0.87667207  0.11522049  0.91778369  1  -1.112504  0  -0.252383  -0.420479  0  2.244661  0
O  O143  1  0.85643361  0.87073756  0.98612901  1  -1.144537  0  -0.307173  -0.522031  0  2.276793  0
O  O144  1  0.88863854  0.91797547  0.82372185  1  -1.158245  0  -0.298617  -0.520762  0  2.33343  0
O  O145  1  0.68203248  0.82330377  0.73954458  1  -1.165222  0  -0.297117  -0.538296  0  2.412945  0
O  O146  1  0.55519869  0.76150205  0.84720635  1  -1.179948  0  -0.30226  -0.579574  0  2.393633  0
O  O147  1  0.88149138  0.15339354  0.11253248  1  -0.597117  0  -0.261523  -0.477532  0  2.154721  0
O  O148  1  0.99315959  0.70383743  0.07320461  1  -1.135676  0  -0.304893  -0.505785  0  2.233432  0
O  O149  1  0.16557316  0.69433356  0.99532807  1  -1.194722  0  -0.305601  -0.574474  0  2.474734  0
O  O150  1  0.31180723  0.58139934  0.92225585  1  -0.558143  0  -0.06659  -0.056114  0  2.334152  0
O  O151  1  0.37668536  0.61520676  0.08223397  1  -1.112398  0  -0.25256  -0.420679  0  2.244594  0
O  O152  1  0.35638205  0.37069775  0.01386400  1  -1.144654  0  -0.307177  -0.522053  0  2.277055  0
O  O153  1  0.38867605  0.41801045  0.17623026  1  -1.15913  0  -0.298422  -0.520457  0  2.333731  0
O  O154  1  0.18206041  0.32331173  0.26042468  1  -1.165131  0  -0.296997  -0.538151  0  2.412905  0
O  O155  1  0.05515792  0.26151569  0.15279975  1  -1.180436  0  -0.302401  -0.579651  0  2.393786  0
O  O156  1  0.38148225  0.65340066  0.88748335  1  -0.597062  0  -0.261536  -0.477541  0  2.154605  0
O  O157  1  0.00681856  0.70382500  0.42676063  1  -1.136129  0  -0.30484  -0.505586  0  2.233434  0
O  O158  1  0.83444101  0.69431120  0.50470213  1  -1.195353  0  -0.305527  -0.574312  0  2.475073  0
O  O159  1  0.68817789  0.58138770  0.57773121  1  -0.557939  0  -0.06668  -0.056191  0  2.334015  0
O  O160  1  0.62332791  0.61525717  0.41776326  1  -1.113194  0  -0.252727  -0.420875  0  2.244508  0
O  O161  1  0.64360360  0.37068650  0.48611134  1  -1.144699  0  -0.307071  -0.521897  0  2.276933  0
O  O162  1  0.61131339  0.41800765  0.32374449  1  -1.158418  0  -0.29859  -0.520614  0  2.333074  0
O  O163  1  0.81796392  0.32329441  0.23954970  1  -1.164896  0  -0.297171  -0.53837  0  2.412944  0
O  O164  1  0.94484766  0.26150559  0.34719993  1  -1.180194  0  -0.302394  -0.579694  0  2.393652  0
O  O165  1  0.61852489  0.65340143  0.61252623  1  -0.59711  0  -0.261502  -0.477501  0  2.154531  0
O  O166  1  0.49314175  0.79618475  0.42676317  1  -1.136108  0  -0.304937  -0.505727  0  2.233037  0
O  O167  1  0.66549700  0.80570425  0.50474016  1  -1.195206  0  -0.305504  -0.574374  0  2.475063  0
O  O168  1  0.81181703  0.91861399  0.57771683  1  -0.55862  0  -0.066754  -0.056236  0  2.334289  0
O  O169  1  0.87662699  0.88473684  0.41773823  1  -1.113016  0  -0.252587  -0.42062  0  2.244574  0
O  O170  1  0.85640409  0.12928517  0.48609667  1  -1.144255  0  -0.307082  -0.521772  0  2.276733  0
O  O171  1  0.88865980  0.08199372  0.32371841  1  -1.158728  0  -0.298574  -0.52046  0  2.33326  0
O  O172  1  0.68203011  0.17670475  0.23955069  1  -1.165312  0  -0.29721  -0.538379  0  2.41299  0
O  O173  1  0.55515876  0.23850468  0.34719251  1  -1.180327  0  -0.302476  -0.579792  0  2.393654  0
O  O174  1  0.88147055  0.84659652  0.61250655  1  -0.597051  0  -0.261459  -0.477401  0  2.15448  0
O  O175  1  0.50682946  0.79614667  0.07327277  1  -1.135148  0  -0.304882  -0.505844  0  2.23348  0
O  O176  1  0.33449703  0.80569884  0.99525582  1  -1.195223  0  -0.3055  -0.574298  0  2.475097  0
O  O177  1  0.18818095  0.91861510  0.92225417  1  -0.558171  0  -0.066558  -0.056041  0  2.334025  0
O  O178  1  0.12336715  0.88475575  0.08223282  1  -1.112777  0  -0.252505  -0.420449  0  2.244653  0
O  O179  1  0.14360821  0.12929154  0.01388597  1  -1.144708  0  -0.307032  -0.521845  0  2.277057  0
O  O180  1  0.11135304  0.08200326  0.17626175  1  -1.158812  0  -0.298566  -0.520411  0  2.333502  0
O  O181  1  0.31795996  0.17669735  0.26043366  1  -1.165407  0  -0.297163  -0.538255  0  2.413018  0
O  O182  1  0.44482667  0.23849285  0.15279179  1  -1.18018  0  -0.302356  -0.579582  0  2.393357  0
O  O183  1  0.11852532  0.84660446  0.88747179  1  -0.59685  0  -0.261491  -0.477449  0  2.154643  0
