# generated using pymatgen
data_Zn3H42C62(NO)12
_symmetry_space_group_name_H-M   'P 1'
_cell_length_a   13.56027731
_cell_length_b   13.56034612
_cell_length_c   26.36364302
_cell_angle_alpha   85.87246242
_cell_angle_beta   85.87199654
_cell_angle_gamma   60.39556127
_symmetry_Int_Tables_number   1
_chemical_formula_structural   Zn3H42C62(NO)12
_chemical_formula_sum   'Zn6 H84 C124 N24 O24'
_cell_volume   4200.30976188
_cell_formula_units_Z   2
loop_
 _symmetry_equiv_pos_site_id
 _symmetry_equiv_pos_as_xyz
  1  'x, y, z'
loop_
 _atom_site_type_symbol
 _atom_site_label
 _atom_site_symmetry_multiplicity
 _atom_site_fract_x
 _atom_site_fract_y
 _atom_site_fract_z
 _atom_site_occupancy
 _atom_site_pbe_bader_charge
 _atom_site_pbe_bader_spin_density
 _atom_site_pbe_cm5_charge
 _atom_site_pbe_ddec_charge
 _atom_site_pbe_ddec_spin_density
 _atom_site_pbe_ddec_sum_bond_order
 _atom_site_pbe_magmom
Zn  Zn0  1  0.15104508  0.36609324  0.43071250  1  1.259976  0  0.695069  0.781528  0  2.433779  0
Zn  Zn1  1  0.63389624  0.84895454  0.06928770  1  1.259729  0  0.695024  0.781553  0  2.433643  0
Zn  Zn2  1  0.84895396  0.63390656  0.56928641  1  1.259915  0  0.695084  0.781576  0  2.433809  0
Zn  Zn3  1  0.36610020  0.15104645  0.93071276  1  1.259737  0  0.695094  0.781601  0  2.433625  0
Zn  Zn4  1  0.95328642  0.04671499  0.74999307  1  1.261818  0  0.686677  0.781432  0  2.395191  0
Zn  Zn5  1  0.04670757  0.95328281  0.25000602  1  1.261842  0  0.686671  0.781392  0  2.395332  0
H  H6  1  0.18851092  0.25532352  0.67632115  1  0.12268  0  0.115754  0.122913  0  1.008469  0
H  H7  1  0.74466498  0.81149019  0.82367980  1  0.122588  0  0.11577  0.122941  0  1.008425  0
H  H8  1  0.81149161  0.74466572  0.32367794  1  0.122534  0  0.115807  0.123014  0  1.008479  0
H  H9  1  0.25533396  0.18851853  0.17631889  1  0.122403  0  0.115753  0.122911  0  1.00858  0
H  H10  1  0.45604743  0.06922801  0.56541222  1  0.109178  0  0.117301  0.132786  0  0.990758  0
H  H11  1  0.93079555  0.54396056  0.93458295  1  0.109307  0  0.117282  0.132783  0  0.990758  0
H  H12  1  0.54395920  0.93077331  0.43458608  1  0.109282  0  0.117264  0.132722  0  0.990737  0
H  H13  1  0.06921744  0.45606335  0.06541953  1  0.109506  0  0.117237  0.132671  0  0.990817  0
H  H14  1  0.51878943  0.00021453  0.72569849  1  0.114796  0  0.117678  0.137597  0  0.98103  0
H  H15  1  0.99979159  0.48122901  0.77429279  1  0.114456  0  0.117629  0.137605  0  0.981034  0
H  H16  1  0.48121570  0.99977428  0.27429827  1  0.11467  0  0.117709  0.137661  0  0.981025  0
H  H17  1  0.00021482  0.51877809  0.22571105  1  0.114534  0  0.117666  0.13767  0  0.980971  0
H  H18  1  0.34076347  0.25175808  0.51748995  1  0.187965  0  0.141402  0.114684  0  0.995509  0
H  H19  1  0.74826222  0.65922482  0.98250944  1  0.187765  0  0.141321  0.114607  0  0.995421  0
H  H20  1  0.65923625  0.74825242  0.48251019  1  0.188127  0  0.141361  0.114707  0  0.995464  0
H  H21  1  0.25175194  0.34078396  0.01748809  1  0.187796  0  0.141289  0.114587  0  0.995419  0
H  H22  1  0.99021644  0.36091073  0.52510350  1  0.148653  0  0.128392  0.131417  0  1.000105  0
H  H23  1  0.63908155  0.00977959  0.97489989  1  0.149202  0  0.128346  0.131276  0  1.00004  0
H  H24  1  0.00979043  0.63907129  0.47489453  1  0.149003  0  0.128349  0.131323  0  1.000034  0
H  H25  1  0.36090701  0.99023386  0.02510577  1  0.149369  0  0.128384  0.1313  0  1.000105  0
H  H26  1  0.07966733  0.24922035  0.61659344  1  0.139328  0  0.13423  0.138305  0  0.990414  0
H  H27  1  0.75077096  0.92033869  0.88340637  1  0.139429  0  0.134195  0.138246  0  0.990206  0
H  H28  1  0.92034461  0.75076445  0.38340325  1  0.139377  0  0.13422  0.138264  0  0.990168  0
H  H29  1  0.24922178  0.07968692  0.11659545  1  0.139442  0  0.134257  0.138399  0  0.990241  0
H  H30  1  0.58375437  0.81774976  0.59825028  1  0.186423  0  0.140743  0.121324  0  0.996398  0
H  H31  1  0.18228584  0.41623704  0.90173903  1  0.186188  0  0.140745  0.121281  0  0.996355  0
H  H32  1  0.41624379  0.18225042  0.40174978  1  0.186285  0  0.140748  0.121323  0  0.996389  0
H  H33  1  0.81773095  0.58376233  0.09825905  1  0.186367  0  0.140746  0.121258  0  0.996382  0
H  H34  1  0.88910788  0.81364544  0.62396595  1  0.12953  0  0.126761  0.124792  0  0.988578  0
H  H35  1  0.18635476  0.11090284  0.87602657  1  0.129567  0  0.12681  0.124845  0  0.988691  0
H  H36  1  0.11089468  0.18635209  0.37602875  1  0.129445  0  0.126778  0.124811  0  0.988603  0
H  H37  1  0.81363741  0.88910842  0.12397184  1  0.129486  0  0.126856  0.124949  0  0.988626  0
H  H38  1  0.71007235  0.01542249  0.65968374  1  0.236819  0  0.123833  0.147458  0  1.061303  0
H  H39  1  0.98458907  0.28994122  0.84030832  1  0.235964  0  0.123791  0.147387  0  1.061427  0
H  H40  1  0.28992848  0.98457884  0.34031091  1  0.236615  0  0.123865  0.147487  0  1.061447  0
H  H41  1  0.01540627  0.71007719  0.15969438  1  0.23604  0  0.123864  0.147509  0  1.061489  0
H  H42  1  0.36457134  0.10853450  0.78928673  1  0.193426  0  0.122984  0.136745  0  0.999654  0
H  H43  1  0.89144595  0.63544165  0.71070930  1  0.193275  0  0.122999  0.136762  0  0.999601  0
H  H44  1  0.63543729  0.89144301  0.21071023  1  0.193244  0  0.12298  0.136739  0  0.999543  0
H  H45  1  0.10854718  0.36455354  0.28929178  1  0.193283  0  0.122981  0.136787  0  0.999584  0
H  H46  1  0.23701386  0.22952937  0.76806647  1  0.091643  0  0.116268  0.10378  0  0.965721  0
H  H47  1  0.77045498  0.76300059  0.73193371  1  0.091544  0  0.11635  0.103847  0  0.965543  0
H  H48  1  0.76299802  0.77045386  0.23193291  1  0.091561  0  0.116368  0.103861  0  0.965532  0
H  H49  1  0.22953817  0.23699611  0.26806619  1  0.091609  0  0.116274  0.103822  0  0.965576  0
H  H50  1  0.07233582  0.19426393  0.74147379  1  0.159549  0  0.145727  0.120516  0  0.975708  0
H  H51  1  0.80572851  0.92767684  0.75851549  1  0.15962  0  0.145739  0.120539  0  0.975844  0
H  H52  1  0.92766754  0.80573164  0.25852322  1  0.159428  0  0.145755  0.120531  0  0.975848  0
H  H53  1  0.19426885  0.07232154  0.24148389  1  0.15954  0  0.145749  0.12049  0  0.975822  0
H  H54  1  0.21001525  0.85068856  0.79048436  1  0.112585  0  0.123528  0.117482  0  0.99461  0
H  H55  1  0.14930516  0.78998263  0.70950365  1  0.112614  0  0.123617  0.117555  0  0.994643  0
H  H56  1  0.78997544  0.14930571  0.20951377  1  0.112951  0  0.12353  0.117459  0  0.994642  0
H  H57  1  0.85068654  0.21001665  0.29048674  1  0.112409  0  0.123587  0.117529  0  0.994699  0
H  H58  1  0.37359697  0.91683013  0.79794638  1  0.16062  0  0.120472  0.12408  0  1.058794  0
H  H59  1  0.08315944  0.62640214  0.70205023  1  0.160542  0  0.120485  0.124021  0  1.058834  0
H  H60  1  0.62639799  0.08315761  0.20205257  1  0.160498  0  0.120491  0.124051  0  1.058854  0
H  H61  1  0.91682800  0.37359918  0.29794059  1  0.160344  0  0.120491  0.124007  0  1.058875  0
H  H62  1  0.79590531  0.56346526  0.30888511  1  0.060534  0  0.094346  0.089992  0  1.025502  0
H  H63  1  0.43654318  0.20408000  0.19111674  1  0.060786  0  0.094375  0.089976  0  1.0255  0
H  H64  1  0.20409361  0.43652991  0.69112000  1  0.060242  0  0.094396  0.089988  0  1.025518  0
H  H65  1  0.56347045  0.79590247  0.80888073  1  0.060353  0  0.094367  0.089947  0  1.025599  0
H  H66  1  0.80734655  0.45670752  0.46643324  1  0.090852  0  0.104474  0.1117  0  1.00611  0
H  H67  1  0.54329265  0.19265819  0.03356808  1  0.090806  0  0.104453  0.111695  0  1.006056  0
H  H68  1  0.19264288  0.54330178  0.53357326  1  0.091147  0  0.104443  0.111657  0  1.006143  0
H  H69  1  0.45670716  0.80735165  0.96642904  1  0.090847  0  0.104442  0.111651  0  1.006117  0
H  H70  1  0.58870193  0.62641642  0.31025233  1  0.056605  0  0.101401  0.10642  0  0.997613  0
H  H71  1  0.37360420  0.41127997  0.18975665  1  0.056505  0  0.101525  0.106585  0  0.997642  0
H  H72  1  0.41129529  0.37358483  0.68975076  1  0.056513  0  0.101475  0.106502  0  0.997585  0
H  H73  1  0.62640836  0.58870643  0.81024719  1  0.056453  0  0.101492  0.106535  0  0.99766  0
H  H74  1  0.60044288  0.52059802  0.46888164  1  0.05205  0  0.101005  0.10526  0  1.011185  0
H  H75  1  0.47941199  0.39955870  0.03112763  1  0.052334  0  0.101032  0.105305  0  1.01116  0
H  H76  1  0.39954395  0.47941846  0.53112436  1  0.052387  0  0.101055  0.105311  0  1.011193  0
H  H77  1  0.52058088  0.60045351  0.96887529  1  0.052372  0  0.101048  0.105281  0  1.011207  0
H  H78  1  0.41124305  0.76304594  0.34319565  1  0.079047  0  0.097615  0.096613  0  1.03663  0
H  H79  1  0.23697290  0.58872466  0.15681741  1  0.07921  0  0.097555  0.096585  0  1.036644  0
H  H80  1  0.58875246  0.23696137  0.65680581  1  0.078978  0  0.097615  0.096595  0  1.036598  0
H  H81  1  0.76304215  0.41125446  0.84319035  1  0.079336  0  0.097552  0.096532  0  1.036596  0
H  H82  1  0.48244396  0.45209846  0.42840850  1  0.106867  0  0.101891  0.106684  0  1.016771  0
H  H83  1  0.54791046  0.51755187  0.07160144  1  0.106978  0  0.101911  0.106718  0  1.016701  0
H  H84  1  0.51754288  0.54791654  0.57159755  1  0.10673  0  0.101919  0.106754  0  1.016733  0
H  H85  1  0.45209190  0.48244021  0.92840252  1  0.107136  0  0.1019  0.106705  0  1.016712  0
H  H86  1  0.15405781  0.66611031  0.36728831  1  0.108841  0  0.104645  0.115963  0  1.011385  0
H  H87  1  0.33387179  0.84593715  0.13272228  1  0.109343  0  0.104649  0.115991  0  1.01145  0
H  H88  1  0.84593605  0.33389787  0.63271127  1  0.108663  0  0.104642  0.116004  0  1.011404  0
H  H89  1  0.66611796  0.15406119  0.86727767  1  0.109248  0  0.104639  0.115956  0  1.011447  0
C  C90  1  0.27567250  0.19013940  0.66766268  1  -0.071928  0  -0.081287  -0.222139  0  3.948162  0
C  C91  1  0.80986091  0.72432973  0.83233535  1  -0.072046  0  -0.081353  -0.222278  0  3.94841  0
C  C92  1  0.72433091  0.80984946  0.33233526  1  -0.071858  0  -0.081402  -0.222303  0  3.948286  0
C  C93  1  0.19014221  0.27568213  0.16766352  1  -0.071469  0  -0.081214  -0.22214  0  3.948549  0
C  C94  1  0.31354078  0.16912122  0.61700814  1  0.378977  0  0.107401  0.207167  0  4.028483  0
C  C95  1  0.83088943  0.68646199  0.88298988  1  0.379155  0  0.107423  0.207464  0  4.028321  0
C  C96  1  0.68646167  0.83087471  0.38299079  1  0.379499  0  0.107362  0.207106  0  4.028551  0
C  C97  1  0.16912197  0.31355308  0.11701287  1  0.378928  0  0.107239  0.207341  0  4.028509  0
C  C98  1  0.42573648  0.08782958  0.60482208  1  -0.00843  0  -0.083071  -0.248998  0  3.929087  0
C  C99  1  0.91219597  0.57426824  0.89517094  1  -0.008491  0  -0.083013  -0.24907  0  3.929121  0
C  C100  1  0.57426854  0.91216964  0.39517441  1  -0.008474  0  -0.082931  -0.24888  0  3.92925  0
C  C101  1  0.08781884  0.42575120  0.10482895  1  -0.008913  0  -0.08289  -0.248877  0  3.928762  0
C  C102  1  0.49867837  0.02910877  0.64431147  1  0.306752  0  0.100614  0.193809  0  4.027944  0
C  C103  1  0.97091335  0.50133218  0.85568160  1  0.307151  0  0.100664  0.193955  0  4.027701  0
C  C104  1  0.50132663  0.97088817  0.35568660  1  0.306561  0  0.100563  0.193751  0  4.027755  0
C  C105  1  0.02909634  0.49868143  0.14432274  1  0.306729  0  0.100655  0.193915  0  4.027744  0
C  C106  1  0.46136476  0.04884699  0.69529934  1  -0.009927  0  -0.078767  -0.21048  0  3.903673  0
C  C107  1  0.95116640  0.53864558  0.80469370  1  -0.045814  0  -0.078724  -0.210625  0  3.903334  0
C  C108  1  0.53863951  0.95114373  0.30469740  1  -0.009983  0  -0.078798  -0.210596  0  3.903375  0
C  C109  1  0.04884006  0.46136458  0.19530702  1  -0.008921  0  -0.078792  -0.21071  0  3.903542  0
C  C110  1  0.34840683  0.12857417  0.70687175  1  0.021008  0  0.000539  0.135901  0  3.976191  0
C  C111  1  0.87142030  0.65160710  0.79312511  1  0.057088  0  0.000519  0.135905  0  3.976  0
C  C112  1  0.65159745  0.87141205  0.29312624  1  0.020803  0  0.000587  0.135928  0  3.975891  0
C  C113  1  0.12857854  0.34840226  0.20687698  1  0.020403  0  0.000494  0.135878  0  3.975931  0
C  C114  1  0.25872281  0.26251283  0.53104405  1  0.958177  0  0.148728  0.095918  0  3.902636  0
C  C115  1  0.73749536  0.74127618  0.96895404  1  0.958662  0  0.148916  0.096134  0  3.902674  0
C  C116  1  0.74127960  0.73748831  0.46895436  1  0.958112  0  0.148772  0.095817  0  3.902594  0
C  C117  1  0.26251456  0.25873166  0.03104476  1  0.958159  0  0.148824  0.09603  0  3.90305  0
C  C118  1  0.07681316  0.31992650  0.53711627  1  0.421365  0  0.014933  0.001633  0  3.943344  0
C  C119  1  0.68007239  0.92317650  0.96288240  1  0.420865  0  0.014856  0.001526  0  3.943478  0
C  C120  1  0.92318697  0.68006262  0.46287833  1  0.421138  0  0.014915  0.001674  0  3.94355  0
C  C121  1  0.31992818  0.07683283  0.03711812  1  0.420823  0  0.0148  0.00159  0  3.942932  0
C  C122  1  0.11967677  0.26624941  0.58270004  1  0.313838  0  0.010723  -0.090446  0  3.880792  0
C  C123  1  0.73374243  0.88032391  0.91730479  1  0.313566  0  0.010809  -0.090171  0  3.880948  0
C  C124  1  0.88033086  0.73373212  0.41730064  1  0.313639  0  0.010763  -0.090387  0  3.881033  0
C  C125  1  0.26625616  0.11969573  0.08270158  1  0.314023  0  0.010722  -0.090488  0  3.880955  0
C  C126  1  0.64255857  0.84406741  0.60937481  1  0.947078  0  0.142267  0.085068  0  3.898323  0
C  C127  1  0.15596068  0.35743844  0.89061487  1  0.948017  0  0.142255  0.085235  0  3.898228  0
C  C128  1  0.35744050  0.15593166  0.39062336  1  0.947509  0  0.142265  0.085026  0  3.898445  0
C  C129  1  0.84404921  0.64256636  0.10938629  1  0.947487  0  0.142314  0.0853  0  3.898496  0
C  C130  1  0.79844541  0.84502719  0.62412811  1  0.315505  0  0.003576  -0.022055  0  3.981085  0
C  C131  1  0.15498393  0.20155638  0.87586575  1  0.315635  0  0.003452  -0.022272  0  3.981126  0
C  C132  1  0.20155370  0.15497193  0.37586854  1  0.315525  0  0.003604  -0.021974  0  3.98079  0
C  C133  1  0.84501242  0.79845502  0.12413407  1  0.315422  0  0.003328  -0.022484  0  3.981089  0
C  C134  1  0.71074778  0.94471587  0.64193419  1  0.322034  0  0.001865  -0.108143  0  3.869874  0
C  C135  1  0.05528990  0.28926842  0.85805601  1  0.322861  0  0.002131  -0.107866  0  3.86965  0
C  C136  1  0.28925734  0.05528045  0.35806010  1  0.321909  0  0.001909  -0.108164  0  3.869718  0
C  C137  1  0.94470972  0.71074723  0.14194551  1  0.322229  0  0.002022  -0.108005  0  3.86965  0
C  C138  1  0.29918689  0.14066729  0.76078304  1  0.197334  0  -0.043614  -0.125558  0  3.858858  0
C  C139  1  0.85931899  0.70082525  0.73921344  1  0.197578  0  -0.043637  -0.125476  0  3.858424  0
C  C140  1  0.70082082  0.85931507  0.23921496  1  0.197486  0  -0.043652  -0.125487  0  3.858223  0
C  C141  1  0.14067498  0.29917478  0.26078560  1  0.197575  0  -0.043503  -0.125569  0  3.858424  0
C  C142  1  0.13260919  0.10876502  0.75438408  1  0.972815  0  0.148482  0.09838  0  3.904715  0
C  C143  1  0.89122237  0.86740139  0.74560661  1  0.972502  0  0.148466  0.098137  0  3.904813  0
C  C144  1  0.86739255  0.89122243  0.24561395  1  0.972902  0  0.148396  0.098157  0  3.904745  0
C  C145  1  0.10877339  0.13259641  0.25438978  1  0.972607  0  0.148498  0.098268  0  3.904556  0
C  C146  1  0.20656454  0.93117124  0.78031799  1  0.391631  0  -0.003166  -0.040396  0  4.012752  0
C  C147  1  0.06882053  0.79343681  0.71967090  1  0.39159  0  -0.003205  -0.040481  0  4.012844  0
C  C148  1  0.79342873  0.06882108  0.21967936  1  0.391545  0  -0.003108  -0.040268  0  4.012704  0
C  C149  1  0.93117033  0.20656365  0.28031872  1  0.391604  0  -0.003202  -0.040453  0  4.012852  0
C  C150  1  0.28831220  0.96173293  0.78425508  1  0.297832  0  0.000595  -0.10649  0  3.918471  0
C  C151  1  0.03825579  0.71169296  0.71573939  1  0.297915  0  0.000495  -0.10649  0  3.918489  0
C  C152  1  0.71168698  0.03825499  0.21574376  1  0.29761  0  0.000487  -0.106664  0  3.918683  0
C  C153  1  0.96173333  0.28830903  0.28425138  1  0.298222  0  0.000558  -0.106491  0  3.918614  0
C  C154  1  0.93986954  0.46162895  0.38452961  1  1.56772  0  0.192212  0.559247  0  4.259694  0
C  C155  1  0.53836150  0.06012804  0.11546809  1  1.568789  0  0.192217  0.55937  0  4.259693  0
C  C156  1  0.06012524  0.53836087  0.61547460  1  1.568702  0  0.192357  0.559527  0  4.259406  0
C  C157  1  0.46164022  0.93986841  0.88452704  1  1.568248  0  0.192301  0.559393  0  4.25943  0
C  C158  1  0.81440861  0.50477989  0.38726587  1  -0.049017  0  -0.030777  -0.053901  0  3.997361  0
C  C159  1  0.49522172  0.18558791  0.11273494  1  -0.049  0  -0.030799  -0.054011  0  3.997448  0
C  C160  1  0.18558609  0.49521735  0.61273853  1  -0.04883  0  -0.030713  -0.053826  0  3.9973  0
C  C161  1  0.50478498  0.81440972  0.88726269  1  -0.048547  0  -0.030728  -0.053893  0  3.997383  0
C  C162  1  0.75174266  0.55479110  0.34368475  1  -0.037389  0  -0.097553  -0.107365  0  4.046955  0
C  C163  1  0.44521923  0.24824151  0.15631904  1  -0.03811  0  -0.097444  -0.107001  0  4.046918  0
C  C164  1  0.24824948  0.44520812  0.65631967  1  -0.037439  0  -0.097559  -0.107296  0  4.046846  0
C  C165  1  0.55479173  0.75174658  0.84368062  1  -0.037396  0  -0.097518  -0.10714  0  4.046942  0
C  C166  1  0.75868715  0.49353781  0.43239729  1  -0.00227  0  -0.086299  -0.085101  0  3.980725  0
C  C167  1  0.50646558  0.24131264  0.06760614  1  -0.002335  0  -0.086296  -0.085182  0  3.980607  0
C  C168  1  0.24130570  0.50646838  0.56760882  1  -0.002999  0  -0.086397  -0.085318  0  3.980811  0
C  C169  1  0.49353511  0.75869305  0.93239182  1  -0.002684  0  -0.086304  -0.085181  0  3.980681  0
C  C170  1  0.63645614  0.59048522  0.34468343  1  -0.088231  0  -0.097116  -0.140793  0  3.991716  0
C  C171  1  0.40952837  0.36353155  0.15532466  1  -0.088292  0  -0.097275  -0.14121  0  3.992018  0
C  C172  1  0.36354190  0.40951633  0.65532039  1  -0.088038  0  -0.09721  -0.140942  0  3.991766  0
C  C173  1  0.59048082  0.63645653  0.84467808  1  -0.088062  0  -0.097259  -0.141073  0  3.99185  0
C  C174  1  0.64321211  0.52888416  0.43349219  1  -0.038839  0  -0.092077  -0.136041  0  3.973638  0
C  C175  1  0.47112550  0.35678561  0.06651409  1  -0.039066  0  -0.092029  -0.135882  0  3.973427  0
C  C176  1  0.35677735  0.47112817  0.56651195  1  -0.039384  0  -0.092028  -0.135845  0  3.973428  0
C  C177  1  0.52887258  0.64321825  0.93348702  1  -0.039242  0  -0.092036  -0.1358  0  3.973397  0
C  C178  1  0.58088399  0.57644318  0.38942814  1  -0.023077  0  -0.005875  0.079009  0  4.005862  0
C  C179  1  0.42356905  0.41910610  0.11058115  1  -0.022945  0  -0.00604  0.078815  0  4.006043  0
C  C180  1  0.41910805  0.42356270  0.61057687  1  -0.022929  0  -0.005941  0.078867  0  4.005957  0
C  C181  1  0.57643585  0.58088849  0.88942154  1  -0.02304  0  -0.005927  0.078835  0  4.005917  0
C  C182  1  0.46089045  0.60619067  0.38779501  1  -0.02727  0  -0.012908  0.058739  0  4.037407  0
C  C183  1  0.39382233  0.53909519  0.11221809  1  -0.028366  0  -0.01302  0.058557  0  4.037855  0
C  C184  1  0.53910074  0.39381861  0.61220917  1  -0.026753  0  -0.012895  0.058774  0  4.037636  0
C  C185  1  0.60618503  0.46089507  0.88778882  1  -0.027474  0  -0.012953  0.058729  0  4.037571  0
C  C186  1  0.38460256  0.70411925  0.36061232  1  -0.01651  0  -0.083798  -0.139502  0  3.947979  0
C  C187  1  0.29589508  0.61537584  0.13940280  1  -0.016564  0  -0.083636  -0.139369  0  3.948088  0
C  C188  1  0.61539036  0.29589151  0.63938950  1  -0.016069  0  -0.083898  -0.13949  0  3.947958  0
C  C189  1  0.70411650  0.38460784  0.86060683  1  -0.016643  0  -0.083743  -0.139448  0  3.947946  0
C  C190  1  0.42402458  0.53147849  0.40879820  1  -0.076261  0  -0.081177  -0.136992  0  3.93567  0
C  C191  1  0.46853330  0.57597077  0.09121612  1  -0.074952  0  -0.081109  -0.136766  0  3.93592  0
C  C192  1  0.57596650  0.46853671  0.59120697  1  -0.076802  0  -0.081196  -0.137119  0  3.936024  0
C  C193  1  0.53147488  0.42402206  0.90879071  1  -0.076145  0  -0.081173  -0.136948  0  3.935809  0
C  C194  1  0.27383461  0.72741635  0.35358090  1  -0.009859  0  -0.020192  -0.026693  0  3.985942  0
C  C195  1  0.27258794  0.72614420  0.14643398  1  -0.012525  0  -0.020082  -0.02651  0  3.985508  0
C  C196  1  0.72615749  0.27259334  0.64642059  1  -0.011868  0  -0.020112  -0.026572  0  3.985855  0
C  C197  1  0.72741774  0.27384540  0.85357299  1  -0.012399  0  -0.020127  -0.02647  0  3.985679  0
C  C198  1  0.31382142  0.55300394  0.40168267  1  -0.020301  0  -0.022663  -0.033682  0  3.992697  0
C  C199  1  0.44700132  0.68616767  0.09833186  1  -0.021208  0  -0.022875  -0.034176  0  3.993652  0
C  C200  1  0.68616297  0.44701238  0.59831999  1  -0.020657  0  -0.022596  -0.033622  0  3.992902  0
C  C201  1  0.55300268  0.31382427  0.90167395  1  -0.020904  0  -0.022782  -0.033967  0  3.993178  0
C  C202  1  0.23856513  0.65128190  0.37412996  1  -0.025961  0  -0.076174  -0.098667  0  3.907378  0
C  C203  1  0.34871357  0.76142583  0.12588399  1  -0.023166  0  -0.076207  -0.098666  0  3.907424  0
C  C204  1  0.76142950  0.34872580  0.62587228  1  -0.023073  0  -0.076207  -0.098787  0  3.907266  0
C  C205  1  0.65128710  0.23856557  0.87412041  1  -0.023614  0  -0.076163  -0.098668  0  3.907264  0
C  C206  1  0.28134837  0.46487697  0.41960657  1  1.54068  0  0.195594  0.566823  0  4.223611  0
C  C207  1  0.53511884  0.71865565  0.08040430  1  1.54016  0  0.195665  0.567061  0  4.223541  0
C  C208  1  0.71864709  0.53513105  0.58039602  1  1.540836  0  0.195596  0.566772  0  4.223681  0
C  C209  1  0.46488011  0.28134331  0.91959805  1  1.539951  0  0.195588  0.566851  0  4.223896  0
C  C210  1  0.20065657  0.82946090  0.32027195  1  1.548571  0  0.196679  0.572065  0  4.207365  0
C  C211  1  0.17053939  0.79931825  0.17974082  1  1.547903  0  0.196759  0.572309  0  4.206352  0
C  C212  1  0.79933738  0.17054287  0.67972623  1  1.548077  0  0.196644  0.571941  0  4.207257  0
C  C213  1  0.82945968  0.20066730  0.82026301  1  1.548541  0  0.196708  0.572103  0  4.20666  0
N  N214  1  0.16420597  0.31681744  0.50555150  1  -1.243386  0  -0.348087  -0.269876  0  3.591793  0
N  N215  1  0.68318468  0.83578518  0.99444876  1  -1.243313  0  -0.348064  -0.269744  0  3.591578  0
N  N216  1  0.83579734  0.68317734  0.49444743  1  -1.24326  0  -0.348074  -0.269863  0  3.591589  0
N  N217  1  0.31681415  0.16422494  0.00555292  1  -1.243388  0  -0.348052  -0.269696  0  3.591845  0
N  N218  1  0.23562074  0.22921303  0.57841500  1  -1.275168  0  -0.222728  0.002487  0  3.801777  0
N  N219  1  0.77079290  0.76437685  0.92158469  1  -1.275273  0  -0.222805  0.002098  0  3.801961  0
N  N220  1  0.76438515  0.77078131  0.42158236  1  -1.275288  0  -0.222666  0.002692  0  3.80172  0
N  N221  1  0.22921772  0.23563945  0.07841539  1  -1.275108  0  -0.222606  0.002281  0  3.802171  0
N  N222  1  0.75509462  0.78317522  0.60444847  1  -1.229818  0  -0.350726  -0.280168  0  3.617128  0
N  N223  1  0.21683906  0.24490587  0.89554378  1  -1.230758  0  -0.350605  -0.280041  0  3.617121  0
N  N224  1  0.24490701  0.21682114  0.39554970  1  -1.230087  0  -0.350748  -0.280204  0  3.617247  0
N  N225  1  0.78316414  0.75509780  0.10445568  1  -1.229957  0  -0.35061  -0.280076  0  3.617105  0
N  N226  1  0.61232783  0.94307299  0.63208243  1  -1.270188  0  -0.226575  -0.000745  0  3.802242  0
N  N227  1  0.05695137  0.38767949  0.86790696  1  -1.270493  0  -0.226893  -0.001107  0  3.802393  0
N  N228  1  0.38767469  0.05692600  0.36791338  1  -1.269735  0  -0.226679  -0.000732  0  3.801957  0
N  N229  1  0.94305250  0.61233186  0.13209532  1  -1.270117  0  -0.226857  -0.001008  0  3.802636  0
N  N230  1  0.11007115  0.02360510  0.76159659  1  -1.226258  0  -0.353003  -0.277799  0  3.597152  0
N  N231  1  0.97638883  0.88993698  0.73839045  1  -1.225934  0  -0.352939  -0.277573  0  3.59702  0
N  N232  1  0.88992801  0.97638956  0.23840017  1  -1.226189  0  -0.352951  -0.277665  0  3.596866  0
N  N233  1  0.02360615  0.11006205  0.26160328  1  -1.226107  0  -0.352964  -0.277658  0  3.596883  0
N  N234  1  0.23968779  0.07461264  0.76793494  1  -1.206527  0  -0.239903  0.041482  0  3.785205  0
N  N235  1  0.92537615  0.76032005  0.73205854  1  -1.206655  0  -0.239954  0.041485  0  3.785103  0
N  N236  1  0.76031310  0.92537523  0.23206309  1  -1.206343  0  -0.239882  0.041631  0  3.784992  0
N  N237  1  0.07461455  0.23968250  0.26793597  1  -1.206667  0  -0.240014  0.041621  0  3.785057  0
O  O238  1  0.98734046  0.47519575  0.34404632  1  -1.194195  0  -0.343729  -0.583462  0  2.131574  0
O  O239  1  0.52480126  0.01265604  0.15594776  1  -1.194463  0  -0.343717  -0.583431  0  2.131816  0
O  O240  1  0.01265363  0.52479013  0.65595422  1  -1.194121  0  -0.343773  -0.583505  0  2.1315  0
O  O241  1  0.47520064  0.98733834  0.84404173  1  -1.193931  0  -0.343798  -0.583542  0  2.13147  0
O  O242  1  0.99097863  0.40959811  0.42584562  1  -1.177417  0  -0.339762  -0.55677  0  2.343787  0
O  O243  1  0.59038117  0.00902520  0.07414670  1  -1.177835  0  -0.33975  -0.556865  0  2.34354  0
O  O244  1  0.00901870  0.59039573  0.57415653  1  -1.178132  0  -0.339878  -0.556991  0  2.343654  0
O  O245  1  0.40961719  0.99097893  0.92584491  1  -1.17805  0  -0.33978  -0.556824  0  2.343671  0
O  O246  1  0.17532088  0.49503972  0.41463631  1  -1.150942  0  -0.336425  -0.55307  0  2.332843  0
O  O247  1  0.50494561  0.82468562  0.08537238  1  -1.150501  0  -0.336423  -0.553171  0  2.332678  0
O  O248  1  0.82467315  0.50496338  0.58535923  1  -1.151313  0  -0.336515  -0.553127  0  2.332926  0
O  O249  1  0.49504833  0.17531663  0.91462698  1  -1.150383  0  -0.336416  -0.553105  0  2.332884  0
O  O250  1  0.35387779  0.36882258  0.43665679  1  -1.198046  0  -0.346161  -0.58623  0  2.097478  0
O  O251  1  0.63117282  0.64613415  0.06335165  1  -1.197654  0  -0.346108  -0.586215  0  2.09763  0
O  O252  1  0.64610989  0.63119425  0.56334880  1  -1.197948  0  -0.34613  -0.586181  0  2.097328  0
O  O253  1  0.36882527  0.35386897  0.93664948  1  -1.197764  0  -0.346089  -0.586156  0  2.097679  0
O  O254  1  0.23815700  0.89415899  0.30332442  1  -1.195899  0  -0.333132  -0.571497  0  2.167264  0
O  O255  1  0.10584258  0.76180796  0.19668863  1  -1.195768  0  -0.333233  -0.571669  0  2.166667  0
O  O256  1  0.76183362  0.10584348  0.69667274  1  -1.195859  0  -0.333139  -0.57147  0  2.166996  0
O  O257  1  0.89415988  0.23817370  0.80331597  1  -1.195813  0  -0.333125  -0.571553  0  2.166743  0
O  O258  1  0.10303753  0.84256699  0.30921635  1  -1.167052  0  -0.346358  -0.563458  0  2.260712  0
O  O259  1  0.15741779  0.89694166  0.19079579  1  -1.166549  0  -0.346369  -0.563582  0  2.260478  0
O  O260  1  0.89695989  0.15742920  0.69078155  1  -1.166872  0  -0.346304  -0.563386  0  2.260753  0
O  O261  1  0.84257288  0.10305108  0.80920390  1  -1.16686  0  -0.346386  -0.563477  0  2.260528  0
