# generated using pymatgen
data_NaCrH27C15NO6
_symmetry_space_group_name_H-M   'P 1'
_cell_length_a   6.08608770
_cell_length_b   9.69967517
_cell_length_c   14.96649369
_cell_angle_alpha   90.00834064
_cell_angle_beta   90.00239855
_cell_angle_gamma   94.79293853
_symmetry_Int_Tables_number   1
_chemical_formula_structural   NaCrH27C15NO6
_chemical_formula_sum   'Na2 Cr2 H54 C30 N2 O12'
_cell_volume   880.42859721
_cell_formula_units_Z   2
loop_
 _symmetry_equiv_pos_site_id
 _symmetry_equiv_pos_as_xyz
  1  'x, y, z'
loop_
 _atom_site_type_symbol
 _atom_site_label
 _atom_site_symmetry_multiplicity
 _atom_site_fract_x
 _atom_site_fract_y
 _atom_site_fract_z
 _atom_site_occupancy
 _atom_site_hle17_ddec_charge
 _atom_site_hle17_ddec_spin_density
 _atom_site_hle17_ddec_sum_bond_order
 _atom_site_hle17_magmom
 _atom_site_hse06_10hf_ddec_charge
 _atom_site_hse06_10hf_ddec_spin_density
 _atom_site_hse06_10hf_ddec_sum_bond_order
 _atom_site_hse06_10hf_magmom
 _atom_site_hse06_ddec_charge
 _atom_site_hse06_ddec_spin_density
 _atom_site_hse06_ddec_sum_bond_order
 _atom_site_hse06_magmom
 _atom_site_pbe_cm5_charge
 _atom_site_pbe_ddec_charge
 _atom_site_pbe_ddec_spin_density
 _atom_site_pbe_ddec_sum_bond_order
 _atom_site_pbe_magmom
Na  Na0  1  0.76299467  0.79241182  0.62630110  1  0.917608  -0.000226  0.401498  0.001  0.881224  0.000549  0.552832  0.001  0.893588  0.000222  0.529312  0.001  0.703509  0.872152  0.000818  0.569351  0.001
Na  Na1  1  0.23700273  0.20763899  0.12632655  1  0.917629  -0.000226  0.401372  0.001  0.881094  0.000549  0.552867  0.001  0.893468  0.000221  0.52935  0.001  0.703404  0.872021  0.000818  0.569383  0.001
Cr  Cr2  1  0.28000068  0.92700281  0.59759505  1  1.611961  1.459534  3.077345  1.407  1.672161  1.130117  3.508401  1.106  1.754739  1.22807  3.475685  1.209  1.228685  1.613083  1.075198  3.536018  1.046
Cr  Cr3  1  0.71993626  0.07300907  0.09760165  1  1.611572  1.459704  3.077334  1.407  1.671716  1.130117  3.508518  1.106  1.754325  1.228143  3.475759  1.209  1.228423  1.612567  1.075156  3.536195  1.046
H  H4  1  0.20072916  0.08580635  0.75406412  1  0.0103  -0.000632  0.935791  -0.001  0.017061  -0.000128  1.011434  0.0  0.016427  -7.2e-05  1.011703  0.0  0.090875  0.017346  -0.000129  1.011439  0.0
H  H5  1  0.79917440  0.91417898  0.25407494  1  0.010423  -0.000632  0.93594  -0.001  0.017199  -0.000127  1.011393  0.0  0.016603  -7.2e-05  1.011682  0.0  0.090943  0.01748  -0.000128  1.011398  0.0
H  H6  1  0.50732999  0.98579694  0.81780431  1  0.024826  -0.002714  0.94667  -0.003  0.039898  -0.001112  1.007709  -0.001  0.0394  -0.0013  1.007523  -0.001  0.098058  0.040116  -0.000975  1.008069  -0.001
H  H7  1  0.49263722  0.01422416  0.31779881  1  0.024743  -0.002723  0.946464  -0.003  0.039723  -0.001115  1.007536  -0.001  0.039169  -0.001304  1.007414  -0.001  0.097983  0.039974  -0.000977  1.007856  -0.001
H  H8  1  0.55251766  0.73821149  0.82528324  1  0.074026  -2.3e-05  0.94591  0.0  0.092373  7e-06  1.00782  0.0  0.093114  -1.4e-05  1.008364  0.0  0.095243  0.091744  3.2e-05  1.007505  0.0
H  H9  1  0.44749617  0.26180837  0.32531872  1  0.074136  -2.4e-05  0.946235  0.0  0.092431  7e-06  1.00821  0.0  0.093185  -1.4e-05  1.008751  0.0  0.095273  0.091795  3.2e-05  1.007906  0.0
H  H10  1  0.29792327  0.69833415  0.77004980  1  0.069358  2.6e-05  0.937429  0.0  0.084968  -6.3e-05  1.004536  0.0  0.086628  -3.9e-05  1.003184  0.0  0.092948  0.083775  -7.9e-05  1.005376  0.0
H  H11  1  0.70207137  0.30172134  0.27012483  1  0.069352  2.5e-05  0.937544  0.0  0.084964  -6.3e-05  1.004688  0.0  0.086618  -3.9e-05  1.003343  0.0  0.093083  0.083772  -7.9e-05  1.00553  0.0
H  H12  1  0.25831092  0.66578797  0.93754008  1  0.055379  -2.6e-05  0.963814  0.0  0.073058  4.8e-05  1.030325  0.0  0.073126  4e-05  1.031777  0.0  0.084869  0.072893  5.8e-05  1.029427  0.0
H  H13  1  0.74171616  0.33416822  0.43760479  1  0.055252  -2.6e-05  0.964226  0.0  0.073019  4.8e-05  1.030607  0.0  0.073082  4e-05  1.03207  0.0  0.08482  0.072856  5.8e-05  1.029709  0.0
H  H14  1  0.34649298  0.84241920  0.95322475  1  0.06922  -0.000268  0.932434  0.0  0.091025  -0.000245  0.988963  0.0  0.09113  -0.00024  0.990372  0.0  0.09121  0.090861  -0.000245  0.988109  0.0
H  H15  1  0.65347096  0.15757050  0.45324943  1  0.069301  -0.000269  0.932375  0.0  0.091127  -0.000245  0.988924  0.0  0.091234  -0.000241  0.99033  0.0  0.091138  0.090954  -0.000245  0.988073  0.0
H  H16  1  0.94043611  0.73181526  0.84449120  1  0.054458  -9.2e-05  0.949156  0.0  0.072494  -7.4e-05  1.014179  0.0  0.073854  -7.3e-05  1.01334  0.0  0.087583  0.071359  -7.6e-05  1.014909  0.0
H  H17  1  0.05958920  0.26817603  0.34457000  1  0.0544  -9.2e-05  0.948372  0.0  0.072339  -7.5e-05  1.013621  0.0  0.073686  -7.3e-05  1.012782  0.0  0.087458  0.071205  -7.6e-05  1.01435  0.0
H  H18  1  0.92959227  0.80356684  0.95305428  1  0.073731  -0.00063  0.956363  0.0  0.095108  -0.000501  1.012341  0.0  0.095448  -0.000511  1.012934  0.0  0.087673  0.094668  -0.000494  1.012178  0.0
H  H19  1  0.07039137  0.19637115  0.45308916  1  0.073596  -0.000631  0.956293  0.0  0.094988  -0.000501  1.012269  0.0  0.095332  -0.000511  1.012856  0.0  0.087629  0.094545  -0.000495  1.012115  0.0
H  H20  1  0.08688264  0.02822298  0.90194279  1  0.082022  -0.000504  0.937571  0.0  0.098431  -0.000255  1.000803  0.0  0.09949  -0.000304  1.000765  0.0  0.096656  0.097576  -0.000217  1.001005  0.0
H  H21  1  0.91311213  0.97174030  0.40193154  1  0.081922  -0.000506  0.937608  0.0  0.098344  -0.000256  1.000789  0.0  0.099412  -0.000306  1.000754  0.0  0.096629  0.097489  -0.000219  1.000998  0.0
H  H22  1  0.85928496  0.97717177  0.83305502  1  0.070697  0.000118  0.957564  0.0  0.088008  0.000178  1.020943  0.0  0.089395  0.000109  1.02002  0.0  0.091213  0.086957  0.000247  1.021791  0.0
H  H23  1  0.14070919  0.02282918  0.33308765  1  0.070867  0.000118  0.957609  0.0  0.088038  0.000178  1.021107  0.0  0.089439  0.000109  1.020179  0.0  0.091226  0.086984  0.000247  1.02196  0.0
H  H24  1  0.05403647  0.71818676  0.41160727  1  0.021511  -0.002874  0.930165  -0.003  0.036985  -0.00121  0.991023  -0.001  0.036501  -0.001418  0.991039  -0.001  0.096733  0.037141  -0.001062  0.991308  -0.001
H  H25  1  0.94601355  0.28180271  0.91166105  1  0.021524  -0.002879  0.929857  -0.003  0.036953  -0.001211  0.990876  -0.001  0.036448  -0.00142  0.990885  -0.001  0.096725  0.037112  -0.001063  0.991152  -0.001
H  H26  1  0.34488195  0.90029252  0.40725185  1  0.0106  -0.000659  0.963997  -0.001  0.017908  -0.000249  1.038225  0.0  0.01798  -0.000169  1.037318  0.0  0.092294  0.017561  -0.000273  1.039227  0.0
H  H27  1  0.65520327  0.09966706  0.90728563  1  0.010721  -0.00066  0.963903  -0.001  0.017857  -0.000248  1.038316  0.0  0.01793  -0.000168  1.037402  0.0  0.092267  0.017558  -0.000272  1.039269  0.0
H  H28  1  0.45916921  0.71957652  0.31645897  1  0.065969  -0.000307  0.943355  0.0  0.085081  -0.000128  1.005051  0.0  0.084887  -0.000176  1.006688  0.0  0.08945  0.085134  -9.6e-05  1.004015  0.0
H  H29  1  0.54079165  0.28036977  0.81645681  1  0.066086  -0.000308  0.943441  0.0  0.08524  -0.000127  1.005061  0.0  0.085051  -0.000175  1.006706  0.0  0.089465  0.085284  -9.5e-05  1.00403  0.0
H  H30  1  0.69379317  0.78464748  0.37728389  1  0.070552  0.000167  0.960768  0.0  0.086495  0.000216  1.028169  0.0  0.087724  0.00014  1.02739  0.0  0.092079  0.085544  0.00029  1.028932  0.0
H  H31  1  0.30622010  0.21536489  0.87730301  1  0.070435  0.000166  0.960955  0.0  0.086514  0.000217  1.028171  0.0  0.08774  0.000141  1.02741  0.0  0.092114  0.085565  0.00029  1.02893  0.0
H  H32  1  0.65784436  0.58418581  0.47946852  1  0.060397  -8.1e-05  0.952184  0.0  0.077617  -4.6e-05  1.018681  0.0  0.078688  -5e-05  1.018461  0.0  0.091009  0.076732  -4.2e-05  1.018994  0.0
H  H33  1  0.34210622  0.41583275  0.97947553  1  0.060434  -8e-05  0.95196  0.0  0.077671  -4.6e-05  1.018533  0.0  0.078736  -5e-05  1.018328  0.0  0.091102  0.076771  -4.2e-05  1.018855  0.0
H  H34  1  0.64920190  0.52189289  0.36837674  1  0.059255  -0.000103  0.954908  0.0  0.082797  -3.8e-05  1.010768  0.0  0.082532  -3e-05  1.012737  0.0  0.089087  0.082986  -4.3e-05  1.009359  0.0
H  H35  1  0.35083077  0.47808538  0.86838501  1  0.059271  -0.000102  0.954361  0.0  0.082842  -3.8e-05  1.010324  0.0  0.082577  -2.9e-05  1.012294  0.0  0.08909  0.083028  -4.3e-05  1.008913  0.0
H  H36  1  0.24067569  0.48755582  0.37375161  1  0.057989  -1.4e-05  0.938839  0.0  0.07922  -1.1e-05  0.998986  0.0  0.079677  -1e-05  1.000041  0.0  0.087219  0.078827  -9e-06  0.9983  0.0
H  H37  1  0.75937617  0.51240102  0.87382964  1  0.058073  -1.4e-05  0.93883  0.0  0.079187  -1.1e-05  0.999021  0.0  0.079642  -1e-05  1.000078  0.0  0.087273  0.078799  -9e-06  0.998313  0.0
H  H38  1  0.35395845  0.39679521  0.46200284  1  0.064236  -8.8e-05  0.945197  0.0  0.082837  -3.6e-05  1.008928  0.0  0.082899  -4.1e-05  1.009989  0.0  0.089974  0.082618  -3.1e-05  1.008486  0.0
H  H39  1  0.64599343  0.60323478  0.96202923  1  0.064244  -8.9e-05  0.94507  0.0  0.082771  -3.7e-05  1.008855  0.0  0.082836  -4.2e-05  1.009909  0.0  0.089968  0.082545  -3.1e-05  1.008424  0.0
H  H40  1  0.04209594  0.52537072  0.51860922  1  0.070583  -1.1e-05  0.946372  0.0  0.088783  1.5e-05  1.006643  0.0  0.089539  -2e-06  1.007288  0.0  0.090159  0.088287  3.3e-05  1.006137  0.0
H  H41  1  0.95792260  0.47457115  0.01866738  1  0.070675  -1.1e-05  0.946535  0.0  0.08882  1.5e-05  1.00683  0.0  0.089541  -2e-06  1.007527  0.0  0.090126  0.088324  3.3e-05  1.00632  0.0
H  H42  1  0.29432338  0.59249634  0.56745230  1  0.075589  4.1e-05  0.940434  0.0  0.089342  -5.8e-05  1.009015  0.0  0.090786  -2.9e-05  1.00838  0.0  0.09673  0.08836  -7.5e-05  1.009492  0.0
H  H43  1  0.70563606  0.40752302  0.06749314  1  0.075763  4.1e-05  0.940561  0.0  0.089465  -5.8e-05  1.009173  0.0  0.09091  -3e-05  1.008543  0.0  0.096836  0.088479  -7.5e-05  1.009647  0.0
H  H44  1  0.54127285  0.38537567  0.61158473  1  0.030906  -3.5e-05  0.926292  0.0  0.04273  -4.8e-05  0.99379  0.0  0.044143  -4.1e-05  0.9893  0.0  0.119971  0.041507  -5e-05  0.997179  0.0
H  H45  1  0.45883601  0.61464610  0.11160851  1  0.030909  -3.4e-05  0.926257  0.0  0.042793  -4.8e-05  0.993684  0.0  0.044184  -4.1e-05  0.989196  0.0  0.11999  0.041568  -5e-05  0.997076  0.0
H  H46  1  0.17665203  0.35659887  0.67857788  1  0.097115  -5.3e-05  0.931888  0.0  0.120022  -6.7e-05  0.992341  0.0  0.120065  -5.5e-05  0.9925  0.0  0.106395  0.11992  -7.4e-05  0.992232  0.0
H  H47  1  0.82338962  0.64337016  0.17859062  1  0.097017  -5.1e-05  0.93222  0.0  0.11997  -6.7e-05  0.99259  0.0  0.120006  -5.5e-05  0.992761  0.0  0.106435  0.119868  -7.4e-05  0.992492  0.0
H  H48  1  0.03776712  0.34357733  0.78334276  1  0.086603  -7.2e-05  0.960005  0.0  0.105642  -5.7e-05  1.030054  0.0  0.106343  -5.2e-05  1.029828  0.0  0.100162  0.10496  -5.9e-05  1.030376  0.0
H  H49  1  0.96222335  0.65643472  0.28333908  1  0.086555  -7.2e-05  0.960261  0.0  0.105634  -5.7e-05  1.030254  0.0  0.106333  -5.2e-05  1.030028  0.0  0.100233  0.104995  -5.9e-05  1.030538  0.0
H  H50  1  0.04847855  0.50298102  0.72210213  1  0.111423  2e-06  0.949335  0.0  0.127713  -1e-06  1.017428  0.0  0.130147  2e-06  1.015117  0.0  0.114746  0.125851  0.0  1.019157  0.0
H  H51  1  0.95158522  0.49701066  0.22209745  1  0.111441  3e-06  0.948933  0.0  0.127727  -1e-06  1.017072  0.0  0.130166  2e-06  1.014746  0.0  0.114774  0.125868  0.0  1.018808  0.0
H  H52  1  0.63044836  0.17750809  0.61919952  1  0.107883  -0.000316  0.973509  0.0  0.121394  -0.000325  1.049906  0.0  0.122656  -0.000303  1.048482  0.0  0.108099  0.120442  -0.000318  1.050865  0.0
H  H53  1  0.36952798  0.82251204  0.11920035  1  0.107682  -0.000318  0.973554  0.0  0.121253  -0.000325  1.049935  0.0  0.122522  -0.000302  1.048502  0.0  0.108061  0.120299  -0.000318  1.050896  0.0
H  H54  1  0.77350182  0.14099687  0.71899999  1  0.101174  -7e-05  0.939744  0.0  0.12077  -4.8e-05  1.004824  0.0  0.121757  -4.9e-05  1.004293  0.0  0.10418  0.119924  -4.4e-05  1.00536  0.0
H  H55  1  0.22649257  0.85903322  0.21900375  1  0.10112  -7.2e-05  0.939861  0.0  0.120685  -4.8e-05  1.005002  0.0  0.121678  -4.9e-05  1.00446  0.0  0.104098  0.119829  -4.4e-05  1.005548  0.0
H  H56  1  0.92145360  0.15780724  0.61644096  1  0.11428  -0.000445  0.944034  0.0  0.134507  -0.000398  1.005136  0.0  0.135298  -0.000396  1.004819  0.0  0.110112  0.133831  -0.000389  1.005393  0.0
H  H57  1  0.07850364  0.84218117  0.11645595  1  0.114231  -0.000448  0.944021  0.0  0.134497  -0.000399  1.005104  0.0  0.135292  -0.000396  1.004781  0.0  0.110047  0.133821  -0.00039  1.005359  0.0
C  C58  1  0.17194747  0.97350600  0.76817397  1  0.184673  0.004339  3.682943  0.006  0.166834  0.005401  3.939133  0.006  0.173606  0.004362  3.951712  0.005  -0.023326  0.16227  0.006363  3.930299  0.007
C  C59  1  0.82800497  0.02647759  0.26817544  1  0.184061  0.004326  3.684255  0.006  0.166462  0.005391  3.939768  0.006  0.173066  0.004353  3.952639  0.005  -0.023313  0.161911  0.006354  3.930922  0.007
C  C60  1  0.39751792  0.91530190  0.77656463  1  0.195788  0.006349  3.646789  0.009  0.178562  0.006785  3.901151  0.008  0.18587  0.005395  3.91193  0.007  -0.017684  0.173485  0.00812  3.893785  0.01
C  C61  1  0.60242602  0.08473741  0.27656026  1  0.195862  0.006335  3.647787  0.009  0.178952  0.006773  3.901564  0.008  0.186332  0.00538  3.912348  0.007  -0.017616  0.17386  0.008107  3.894193  0.01
C  C62  1  0.38478338  0.77070566  0.81755403  1  -0.165673  -0.002074  3.670178  -0.002  -0.210025  -0.000906  3.927345  -0.001  -0.211435  -0.000864  3.939434  -0.001  -0.167663  -0.208763  -0.000915  3.918804  -0.001
C  C63  1  0.61517703  0.22930088  0.31757737  1  -0.165328  -0.002069  3.670774  -0.002  -0.209789  -0.000905  3.927929  -0.001  -0.2112  -0.000864  3.939996  -0.001  -0.167615  -0.208532  -0.000915  3.9194  -0.001
C  C64  1  0.26005479  0.76851912  0.90638327  1  -0.105086  -0.000154  3.683981  0.0  -0.143418  1.2e-05  3.942535  0.0  -0.144986  -9.9e-05  3.95885  0.0  -0.168089  -0.142119  0.000107  3.931138  0.0
C  C65  1  0.73992953  0.23146173  0.40641900  1  -0.105273  -0.000155  3.683976  0.0  -0.143711  1e-05  3.942714  0.0  -0.145275  -9.9e-05  3.959019  0.0  -0.168061  -0.1424  0.000106  3.931301  0.0
C  C66  1  0.02482470  0.80734818  0.89063051  1  -0.101662  -0.000676  3.683983  0.0  -0.140124  -0.00053  3.938542  0.0  -0.140938  -0.00062  3.953239  0.0  -0.168356  -0.139313  -0.00047  3.928189  0.0
C  C67  1  0.97511230  0.19260922  0.39067807  1  -0.101462  -0.000677  3.683017  0.0  -0.139888  -0.00053  3.937606  0.0  -0.14068  -0.00062  3.952302  0.0  -0.168306  -0.139067  -0.00047  3.927229  0.0
C  C68  1  0.02676063  0.95231781  0.85086310  1  -0.15637  -0.00391  3.652311  -0.003  -0.198875  -0.001698  3.907104  -0.001  -0.200245  -0.001935  3.918779  -0.001  -0.16543  -0.197834  -0.001508  3.899131  -0.001
C  C69  1  0.97319971  0.04763551  0.35085637  1  -0.15633  -0.003916  3.652673  -0.003  -0.198793  -0.001701  3.907259  -0.001  -0.200148  -0.001937  3.919004  -0.001  -0.165404  -0.197756  -0.00151  3.89928  -0.001
C  C70  1  0.16801939  0.72600440  0.46933891  1  0.198864  0.005491  3.661527  0.008  0.181153  0.005977  3.918863  0.008  0.188349  0.004733  3.929885  0.007  -0.017914  0.176083  0.00718  3.911506  0.009
C  C71  1  0.83198790  0.27399021  0.96938197  1  0.198974  0.005481  3.661545  0.008  0.181128  0.005966  3.919115  0.008  0.188413  0.004726  3.930008  0.007  -0.017883  0.176047  0.007169  3.911762  0.009
C  C72  1  0.38565138  0.80590825  0.44293887  1  0.18418  0.004886  3.682507  0.007  0.164599  0.005773  3.941045  0.007  0.171201  0.004688  3.952955  0.006  -0.024974  0.160225  0.006778  3.932796  0.007
C  C73  1  0.61436702  0.19409158  0.94293663  1  0.184283  0.0049  3.681323  0.007  0.164827  0.005787  3.939861  0.007  0.171411  0.0047  3.951753  0.006  -0.024819  0.160419  0.006794  3.931618  0.007
C  C74  1  0.53297928  0.72490328  0.38379961  1  -0.155962  -0.004022  3.669067  -0.003  -0.198481  -0.001732  3.924255  -0.001  -0.19931  -0.002014  3.936271  -0.002  -0.166953  -0.197785  -0.001527  3.916059  -0.001
C  C75  1  0.46706188  0.27507759  0.88380370  1  -0.156258  -0.004003  3.669436  -0.003  -0.198796  -0.001728  3.924582  -0.001  -0.19965  -0.002009  3.936626  -0.002  -0.167074  -0.198095  -0.001524  3.916377  -0.001
C  C76  1  0.55852867  0.57874250  0.41787516  1  -0.1066  4e-06  3.696058  0.0  -0.146514  -2.9e-05  3.953867  0.0  -0.147252  -2.9e-05  3.968276  0.0  -0.16847  -0.145943  -2.8e-05  3.943916  0.0
C  C77  1  0.44153112  0.42126708  0.91789776  1  -0.106539  0.0  3.695303  0.0  -0.146673  -2.8e-05  3.953511  0.0  -0.147395  -3e-05  3.967897  0.0  -0.168567  -0.146106  -2.8e-05  3.943578  0.0
C  C78  1  0.33389751  0.50152138  0.43680992  1  -0.10317  0.000147  3.688319  0.0  -0.143541  0.000181  3.951487  0.0  -0.145013  0.00015  3.967698  0.0  -0.165711  -0.142108  0.000186  3.939963  0.0
C  C79  1  0.66612310  0.49850081  0.93685898  1  -0.103015  0.000148  3.688859  0.0  -0.143109  0.00018  3.95177  0.0  -0.144569  0.00015  3.967971  0.0  -0.165712  -0.141673  0.000185  3.940228  0.0
C  C80  1  0.20282134  0.58106051  0.50397986  1  -0.169742  -0.001847  3.665523  -0.001  -0.21139  -0.000887  3.918668  -0.001  -0.213248  -0.000789  3.93176  -0.001  -0.169195  -0.210055  -0.000946  3.909586  -0.001
C  C81  1  0.79715103  0.41895643  0.00403338  1  -0.170292  -0.001851  3.665875  -0.001  -0.211831  -0.000889  3.919013  -0.001  -0.213676  -0.00079  3.932036  -0.001  -0.16936  -0.210482  -0.000947  3.909914  -0.001
C  C82  1  0.68702118  0.43585983  0.64675089  1  0.396211  -1.5e-05  3.869217  0.0  0.326076  -1.8e-05  4.159643  0.0  0.353571  -3e-05  4.159921  0.0  0.174113  0.30778  -1.2e-05  4.158968  0.0
C  C83  1  0.31306787  0.56415875  0.14676343  1  0.396204  -1.6e-05  3.870395  0.0  0.326143  -1.9e-05  4.160828  0.0  0.353655  -3e-05  4.161079  0.0  0.174144  0.307814  -1.2e-05  4.160134  0.0
C  C84  1  0.03558840  0.39012026  0.71634992  1  -0.163474  -0.000125  3.660635  0.0  -0.26599  -0.000117  3.909348  0.0  -0.26223  -0.000123  3.919649  0.0  -0.129183  -0.268166  -0.00012  3.902434  0.0
C  C85  1  0.96445922  0.60987832  0.21635130  1  -0.163402  -0.000129  3.660801  0.0  -0.265907  -0.000118  3.909664  0.0  -0.262146  -0.000123  3.919973  0.0  -0.129326  -0.268157  -0.00012  3.902706  0.0
C  C86  1  0.78672976  0.19730649  0.65522827  1  -0.181869  -0.001241  3.643879  -0.001  -0.284984  -0.000864  3.897325  -0.001  -0.280854  -0.001  3.906987  -0.001  -0.132504  -0.287326  -0.000778  3.890528  -0.001
C  C87  1  0.21325528  0.80270141  0.15523524  1  -0.181659  -0.001229  3.643878  -0.001  -0.284777  -0.000865  3.897282  -0.001  -0.280655  -0.001001  3.906939  -0.001  -0.132469  -0.287145  -0.000778  3.890458  -0.001
N  N88  1  0.83152199  0.34505307  0.67092124  1  -0.10288  -0.000216  3.517914  0.0  0.001929  -0.000115  3.750364  0.0  -0.019457  -0.000124  3.777125  0.0  -0.287585  0.01606  -9e-05  3.731868  0.0
N  N89  1  0.16850241  0.65495446  0.17092303  1  -0.10288  -0.000221  3.517572  0.0  0.001658  -0.000115  3.750347  0.0  -0.019724  -0.000125  3.777106  0.0  -0.287612  0.015903  -9.1e-05  3.731734  0.0
O  O90  1  0.07448302  0.90734104  0.69100434  1  -0.688983  -0.041234  1.957124  -0.046  -0.67057  -0.00089  2.24185  -0.009  -0.698694  -0.00944  2.238957  -0.017  -0.464025  -0.650368  0.004857  2.243363  -0.003
O  O91  1  0.92544516  0.09269476  0.19104641  1  -0.688748  -0.041277  1.957634  -0.046  -0.670353  -0.000881  2.242127  -0.009  -0.698455  -0.009454  2.239342  -0.017  -0.463921  -0.650141  0.00488  2.243632  -0.003
O  O92  1  0.70891006  0.56288247  0.66025180  1  -0.588974  -4.3e-05  1.983617  0.0  -0.551325  1.9e-05  2.232983  0.0  -0.569934  1.5e-05  2.221911  0.0  -0.386992  -0.538417  5.4e-05  2.24003  0.0
O  O93  1  0.29121069  0.43718072  0.16026683  1  -0.588788  -4.2e-05  1.985321  0.0  -0.551114  1.8e-05  2.234712  0.0  -0.569722  1.5e-05  2.223643  0.0  -0.3869  -0.538209  5.4e-05  2.241757  0.0
O  O94  1  0.48477948  0.91420970  0.68796609  1  -0.683242  -0.048492  1.978387  -0.053  -0.667783  -0.007057  2.270567  -0.015  -0.695353  -0.014919  2.267042  -0.023  -0.462175  -0.648284  -0.002085  2.272748  -0.011
O  O95  1  0.51515493  0.08578713  0.18797835  1  -0.683079  -0.048502  1.979159  -0.053  -0.667682  -0.007048  2.271179  -0.015  -0.695257  -0.014917  2.267646  -0.023  -0.462126  -0.64817  -0.002073  2.273363  -0.011
O  O96  1  0.07630705  0.80847829  0.53637903  1  -0.685911  -0.046023  1.96614  -0.05  -0.673844  -0.005598  2.259078  -0.013  -0.700331  -0.013528  2.253931  -0.021  -0.463849  -0.654771  -0.00053  2.262677  -0.009
O  O97  1  0.92366584  0.19152969  0.03639820  1  -0.685798  -0.046063  1.966588  -0.05  -0.673622  -0.005624  2.259533  -0.014  -0.70014  -0.013555  2.254364  -0.021  -0.463736  -0.654528  -0.000557  2.263126  -0.009
O  O98  1  0.48731917  0.84615208  0.52575862  1  -0.680011  -0.041703  1.93411  -0.046  -0.662391  -0.001913  2.216746  -0.01  -0.689986  -0.009801  2.213345  -0.017  -0.460646  -0.642718  0.003356  2.218909  -0.005
O  O99  1  0.51269822  0.15390420  0.02578853  1  -0.680221  -0.04167  1.933341  -0.046  -0.662531  -0.001873  2.215884  -0.01  -0.690133  -0.009768  2.212474  -0.017  -0.460784  -0.642844  0.003398  2.218073  -0.005
O  O100  1  0.27767938  0.08417906  0.56488413  1  -0.639789  -0.279071  1.300761  -0.244  -0.655549  -0.127809  1.554108  -0.11  -0.671287  -0.187223  1.540334  -0.164  -0.490269  -0.644099  -0.099869  1.56457  -0.085
O  O101  1  0.72233469  0.91580673  0.06490446  1  -0.639652  -0.279178  1.30064  -0.244  -0.655456  -0.127847  1.554064  -0.11  -0.671198  -0.187294  1.540283  -0.164  -0.49019  -0.64399  -0.099894  1.564537  -0.085
