# generated using pymatgen
data_Cd2H9C13NO6
_symmetry_space_group_name_H-M   'P 1'
_cell_length_a   3.81672998
_cell_length_b   15.57559203
_cell_length_c   21.58600000
_cell_angle_alpha   102.00033593
_cell_angle_beta   90.00000000
_cell_angle_gamma   90.00000000
_symmetry_Int_Tables_number   1
_chemical_formula_structural   Cd2H9C13NO6
_chemical_formula_sum   'Cd8 H36 C52 N4 O24'
_cell_volume   1255.19738216
_cell_formula_units_Z   4
loop_
 _symmetry_equiv_pos_site_id
 _symmetry_equiv_pos_as_xyz
  1  'x, y, z'
loop_
 _atom_site_type_symbol
 _atom_site_label
 _atom_site_symmetry_multiplicity
 _atom_site_fract_x
 _atom_site_fract_y
 _atom_site_fract_z
 _atom_site_occupancy
 _atom_site_hle17_bader_spin_density
 _atom_site_hle17_ddec_charge
 _atom_site_hle17_ddec_spin_density
 _atom_site_hle17_ddec_sum_bond_order
 _atom_site_hle17_magmom
 _atom_site_hse06_10hf_bader_spin_density
 _atom_site_hse06_10hf_ddec_charge
 _atom_site_hse06_10hf_ddec_spin_density
 _atom_site_hse06_10hf_ddec_sum_bond_order
 _atom_site_hse06_10hf_magmom
 _atom_site_hse06_bader_spin_density
 _atom_site_hse06_ddec_charge
 _atom_site_hse06_ddec_spin_density
 _atom_site_hse06_ddec_sum_bond_order
 _atom_site_hse06_magmom
 _atom_site_pbe_bader_charge
 _atom_site_pbe_bader_spin_density
 _atom_site_pbe_cm5_charge
 _atom_site_pbe_ddec_charge
 _atom_site_pbe_ddec_spin_density
 _atom_site_pbe_ddec_sum_bond_order
 _atom_site_pbe_magmom
Cd  Cd0  1  0.38572286  0.46058443  0.68168320  1  0  1.299266  0  1.659203  0  0  1.134446  0  2.104137  0  0  1.191308  0  2.0434  0  1.307021  0  0.720109  1.093398  0  2.146064  0
Cd  Cd1  1  0.88572155  0.53941564  0.81831667  1  0  1.299307  0  1.659124  0  0  1.134472  0  2.104059  0  0  1.191333  0  2.043322  0  1.307076  0  0.720137  1.093423  0  2.145987  0
Cd  Cd2  1  0.61427191  0.53941498  0.31831610  1  0  1.299233  0  1.659232  0  0  1.134356  0  2.104213  0  0  1.191224  0  2.043466  0  1.307148  0  0.720103  1.09332  0  2.14612  0
Cd  Cd3  1  0.11427583  0.46058640  0.18168396  1  0  1.299302  0  1.65917  0  0  1.134437  0  2.104142  0  0  1.191312  0  2.043371  0  1.306962  0  0.720137  1.093374  0  2.146094  0
Cd  Cd4  1  0.03384311  0.64229706  0.46504997  1  0  1.230364  0  1.606966  0  0  1.04207  0  2.055964  0  0  1.101523  0  1.998172  0  1.264669  0  0.749876  0.999133  0  2.096079  0
Cd  Cd5  1  0.53384180  0.35770038  0.03494858  1  0  1.230344  0  1.606967  0  0  1.042033  0  2.055972  0  0  1.101486  0  1.998182  0  1.264643  0  0.74986  0.999095  0  2.096085  0
Cd  Cd6  1  0.96615952  0.35769906  0.53494885  1  0  1.230338  0  1.607041  0  0  1.042021  0  2.056037  0  0  1.101474  0  1.998246  0  1.264657  0  0.749856  0.999083  0  2.096152  0
Cd  Cd7  1  0.46616083  0.64230100  0.96505195  1  0  1.230389  0  1.607022  0  0  1.042072  0  2.056025  0  0  1.101532  0  1.998217  0  1.264647  0  0.749883  0.999134  0  2.096141  0
H  H8  1  0.79466455  0.71448774  0.71479494  1  0  0.132574  0  0.942383  0  0  0.139729  0  1.003587  0  0  0.144555  0  1.000123  0  0.168398  0  0.115454  0.136159  0  1.006367  0
H  H9  1  0.29466585  0.28550970  0.78520269  1  0  0.132601  0  0.942417  0  0  0.139744  0  1.003645  0  0  0.144569  0  1.000181  0  0.168572  0  0.115456  0.136174  0  1.006426  0
H  H10  1  0.20534332  0.28550970  0.28520315  1  0  0.132604  0  0.942438  0  0  0.139751  0  1.003663  0  0  0.144575  0  1.000202  0  0.168573  0  0.115453  0.136181  0  1.006444  0
H  H11  1  0.70534725  0.71449430  0.21479778  1  0  0.132521  0  0.942388  0  0  0.139671  0  1.00362  0  0  0.144495  0  1.000158  0  0.168762  0  0.115432  0.136101  0  1.006399  0
H  H12  1  0.57055909  0.86781022  0.72471642  1  0  0.094852  0  0.9649  0  0  0.107331  0  1.026555  0  0  0.109667  0  1.025522  0  0.079236  0  0.106043  0.10562  0  1.027342  0
H  H13  1  0.07056564  0.13218591  0.77528147  1  0  0.094826  0  0.964789  0  0  0.107317  0  1.026451  0  0  0.109652  0  1.025417  0  0.079181  0  0.106046  0.105605  0  1.027239  0
H  H14  1  0.42943567  0.13218526  0.27528091  1  0  0.094789  0  0.964821  0  0  0.10731  0  1.026446  0  0  0.109647  0  1.02541  0  0.079589  0  0.106045  0.105597  0  1.027237  0
H  H15  1  0.92941864  0.86782269  0.22472015  1  0  0.09479  0  0.964854  0  0  0.107316  0  1.026456  0  0  0.109652  0  1.025422  0  0.079907  0  0.106077  0.105605  0  1.027242  0
H  H16  1  0.69379810  0.83338732  0.52183139  1  0  0.085015  0  0.977986  0  0  0.090923  0  1.048582  0  0  0.094172  0  1.045502  0  0.142003  0  0.115591  0.088416  0  1.051039  0
H  H17  1  0.19380203  0.16661209  0.97816746  1  0  0.085043  0  0.977872  0  0  0.090807  0  1.048646  0  0  0.094054  0  1.045564  0  0.142033  0  0.115536  0.088332  0  1.05107  0
H  H18  1  0.30621763  0.16661275  0.47816848  1  0  0.084933  0  0.977994  0  0  0.090877  0  1.048561  0  0  0.094133  0  1.045466  0  0.14202  0  0.115586  0.088369  0  1.051019  0
H  H19  1  0.80623466  0.83339060  0.02183142  1  0  0.085047  0  0.977974  0  0  0.090973  0  1.048544  0  0  0.094228  0  1.045453  0  0.141982  0  0.115632  0.088465  0  1.051002  0
H  H20  1  0.74680683  0.00983380  0.71652905  1  0  0.079678  0  0.980918  0  0  0.088826  0  1.051284  0  0  0.091369  0  1.050512  0  0.053338  0  0.093378  0.087057  0  1.051795  0
H  H21  1  0.24681075  0.99016561  0.78347211  1  0  0.079709  0  0.980869  0  0  0.088862  0  1.051231  0  0  0.091399  0  1.050476  0  0.053272  0  0.093399  0.087093  0  1.05174  0
H  H22  1  0.25316174  0.99015970  0.28347586  1  0  0.079678  0  0.980923  0  0  0.088801  0  1.05131  0  0  0.091326  0  1.050583  0  0.053345  0  0.093415  0.087036  0  1.051809  0
H  H23  1  0.75316829  0.00983708  0.21652630  1  0  0.079679  0  0.980912  0  0  0.088785  0  1.051324  0  0  0.091329  0  1.050561  0  0.053258  0  0.09339  0.087016  0  1.051833  0
H  H24  1  0.59905469  0.16512606  0.71346383  1  0  0.093076  0  0.96551  0  0  0.102529  0  1.030611  0  0  0.105574  0  1.028677  0  0.064175  0  0.101262  0.10035  0  1.031979  0
H  H25  1  0.09904814  0.83487401  0.78653511  1  0  0.093055  0  0.965422  0  0  0.102491  0  1.030556  0  0  0.105542  0  1.028613  0  0.064222  0  0.101243  0.100307  0  1.031938  0
H  H26  1  0.40087457  0.83486810  0.28654442  1  0  0.092983  0  0.965514  0  0  0.102454  0  1.03058  0  0  0.105546  0  1.028593  0  0.062992  0  0.101288  0.100263  0  1.031981  0
H  H27  1  0.90095449  0.16512737  0.21346496  1  0  0.093056  0  0.965506  0  0  0.102512  0  1.030611  0  0  0.105549  0  1.028687  0  0.064169  0  0.101272  0.100339  0  1.031967  0
H  H28  1  0.09019763  0.07956504  0.53505542  1  0  0.088166  0  0.983596  0  0  0.098233  0  1.048608  0  0  0.101163  0  1.046402  0  0.048189  0  0.099661  0.096164  0  1.050126  0
H  H29  1  0.59017798  0.92043306  0.96494230  1  0  0.088155  0  0.983539  0  0  0.0982  0  1.048584  0  0  0.101142  0  1.046345  0  0.048475  0  0.09964  0.096133  0  1.050103  0
H  H30  1  0.90979976  0.92043109  0.46494432  1  0  0.088149  0  0.983568  0  0  0.098218  0  1.04858  0  0  0.101159  0  1.046345  0  0.048111  0  0.099633  0.09615  0  1.050099  0
H  H31  1  0.40980630  0.07956832  0.03505684  1  0  0.08816  0  0.983521  0  0  0.098199  0  1.04856  0  0  0.101134  0  1.046338  0  0.048131  0  0.099656  0.096131  0  1.050082  0
H  H32  1  0.25315126  0.92531451  0.53490840  1  0  0.087413  0  0.977273  0  0  0.098977  0  1.040928  0  0  0.101521  0  1.039741  0  0.072026  0  0.099873  0.097121  0  1.041928  0
H  H33  1  0.75314209  0.07468293  0.96509108  1  0  0.087424  0  0.977298  0  0  0.098985  0  1.040942  0  0  0.101532  0  1.039761  0  0.072056  0  0.099867  0.097129  0  1.041944  0
H  H34  1  0.74686447  0.07468030  0.46508929  1  0  0.087388  0  0.977328  0  0  0.098935  0  1.041005  0  0  0.101484  0  1.039824  0  0.072083  0  0.099871  0.097083  0  1.042003  0
H  H35  1  0.24686053  0.92531780  0.03491028  1  0  0.087333  0  0.977428  0  0  0.098902  0  1.041072  0  0  0.101447  0  1.039896  0  0.072096  0  0.09984  0.097048  0  1.04207  0
H  H36  1  0.43863989  0.47871939  0.56134961  1  0  0.40236  0  0.912856  0  0  0.3715  0  0.977478  0  0  0.383526  0  0.960295  0  0.631289  0  0.269103  0.362895  0  0.98973  0
H  H37  1  0.93863858  0.52128067  0.93864934  1  0  0.402356  0  0.912862  0  0  0.371493  0  0.977491  0  0  0.383518  0  0.960309  0  0.631272  0  0.269089  0.362888  0  0.989744  0
H  H38  1  0.56136012  0.52128002  0.43864785  1  0  0.402358  0  0.912862  0  0  0.371505  0  0.977463  0  0  0.383531  0  0.960279  0  0.631277  0  0.269079  0.3629  0  0.989715  0
H  H39  1  0.06135881  0.47872136  0.06135175  1  0  0.40231  0  0.91292  0  0  0.371449  0  0.977531  0  0  0.383474  0  0.96035  0  0.63118  0  0.269047  0.362844  0  0.989784  0
H  H40  1  0.88563247  0.36672684  0.72375390  1  0  0.411192  0  0.874126  0  0  0.387349  0  0.932823  0  0  0.396303  0  0.920166  0  0.583374  0  0.283468  0.380891  0  0.941932  0
H  H41  1  0.38563640  0.63327257  0.77624541  1  0  0.411117  0  0.874152  0  0  0.387268  0  0.932919  0  0  0.396224  0  0.920258  0  0.583386  0  0.283436  0.38081  0  0.942028  0
H  H42  1  0.11435705  0.63327323  0.27624504  1  0  0.411158  0  0.874198  0  0  0.387298  0  0.932879  0  0  0.396247  0  0.920232  0  0.583474  0  0.28347  0.38084  0  0.941988  0
H  H43  1  0.61436623  0.36672749  0.22375354  1  0  0.411125  0  0.874157  0  0  0.387257  0  0.93292  0  0  0.396207  0  0.920271  0  0.583381  0  0.283442  0.3808  0  0.942027  0
C  C44  1  0.03558544  0.60668876  0.60598968  1  0  0.61774  0  3.934272  0  0  0.563269  0  4.231437  0  0  0.596985  0  4.225866  0  1.603209  0  0.203685  0.540382  0  4.23426  0
C  C45  1  0.53558937  0.39331065  0.89400546  1  0  0.617728  0  3.934423  0  0  0.563358  0  4.231468  0  0  0.597076  0  4.225899  0  1.603251  0  0.203723  0.540467  0  4.234292  0
C  C46  1  0.96443291  0.39331459  0.39400419  1  0  0.617758  0  3.934364  0  0  0.563369  0  4.231409  0  0  0.597086  0  4.225838  0  1.602907  0  0.203696  0.540479  0  4.234236  0
C  C47  1  0.46442112  0.60669270  0.10599444  1  0  0.617601  0  3.934574  0  0  0.563304  0  4.231522  0  0  0.597022  0  4.225959  0  1.602627  0  0.20372  0.540414  0  4.234345  0
C  C48  1  0.87135585  0.69648798  0.61387855  1  0  0.103976  0  3.738742  0  0  0.106686  0  3.979909  0  0  0.107984  0  4.00042  0  0.428955  0  0.109231  0.105679  0  3.96606  0
C  C49  1  0.37136502  0.30351077  0.88611973  1  0  0.103976  0  3.738669  0  0  0.106614  0  3.979857  0  0  0.107907  0  4.000377  0  0.428839  0  0.109237  0.105617  0  3.965998  0
C  C50  1  0.12865463  0.30351405  0.38612208  1  0  0.103893  0  3.738727  0  0  0.106558  0  3.979895  0  0  0.107854  0  4.000414  0  0.42888  0  0.109227  0.105556  0  3.966046  0
C  C51  1  0.62868215  0.69648733  0.11388031  1  0  0.103987  0  3.738752  0  0  0.106517  0  3.980052  0  0  0.10781  0  4.000574  0  0.429148  0  0.109167  0.105515  0  3.966202  0
C  C52  1  0.76852437  0.74391300  0.67335289  1  0  -0.10093  0  3.675515  0  0  -0.121537  0  3.924089  0  0  -0.125675  0  3.942397  0  0.001095  0  -0.072969  -0.118943  0  3.912109  0
C  C53  1  0.26853878  0.25608510  0.82664623  1  0  -0.101053  0  3.675525  0  0  -0.121647  0  3.924108  0  0  -0.125786  0  3.942417  0  0.001001  0  -0.073046  -0.119057  0  3.912128  0
C  C54  1  0.23147040  0.25608576  0.32664633  1  0  -0.100979  0  3.675536  0  0  -0.121603  0  3.924134  0  0  -0.125742  0  3.942442  0  0.001018  0  -0.072996  -0.119012  0  3.912156  0
C  C55  1  0.73147433  0.74391956  0.17335480  1  0  -0.100984  0  3.675398  0  0  -0.121566  0  3.924017  0  0  -0.125708  0  3.942336  0  0.000892  0  -0.07304  -0.118973  0  3.912032  0
C  C56  1  0.64377622  0.82910842  0.67847102  1  0  -0.055672  0  3.68182  0  0  -0.078945  0  3.929448  0  0  -0.077729  0  3.948152  0  -0.083066  0  -0.067869  -0.07954  0  3.916833  0
C  C57  1  0.14378015  0.17088968  0.82152856  1  0  -0.055569  0  3.681537  0  0  -0.078863  0  3.929125  0  0  -0.077646  0  3.947826  0  -0.083062  0  -0.06784  -0.079459  0  3.916512  0
C  C58  1  0.35622903  0.17088968  0.32152810  1  0  -0.055537  0  3.681579  0  0  -0.078826  0  3.929194  0  0  -0.077606  0  3.947891  0  -0.083538  0  -0.067827  -0.079422  0  3.916585  0
C  C59  1  0.85623034  0.82911564  0.17847210  1  0  -0.055586  0  3.681619  0  0  -0.078873  0  3.929194  0  0  -0.077657  0  3.947894  0  -0.084146  0  -0.067826  -0.079466  0  3.916575  0
C  C60  1  0.61429811  0.86517290  0.62435319  1  0  0.018064  0  3.760586  0  0  0.033542  0  3.994838  0  0  0.030771  0  4.018344  0  0.001724  0  -2.1e-05  0.035106  0  3.978994  0
C  C61  1  0.11428893  0.13482519  0.87564685  1  0  0.017989  0  3.760616  0  0  0.033525  0  3.994791  0  0  0.030754  0  4.018294  0  0.001732  0  -3.7e-05  0.035089  0  3.978951  0
C  C62  1  0.38570976  0.13482454  0.37564629  1  0  0.018031  0  3.760768  0  0  0.033484  0  3.995086  0  0  0.030714  0  4.018588  0  0.001749  0  -5.1e-05  0.035048  0  3.979243  0
C  C63  1  0.88570845  0.86517815  0.12435490  1  0  0.018195  0  3.760525  0  0  0.03366  0  3.994778  0  0  0.030891  0  4.018278  0  0.001949  0  -2.4e-05  0.035223  0  3.978934  0
C  C64  1  0.71019171  0.81101677  0.56632849  1  0  0.087829  0  3.677189  0  0  0.049481  0  3.934532  0  0  0.055585  0  3.950612  0  0.500483  0  0.047735  0.045543  0  3.923604  0
C  C65  1  0.21019564  0.18898330  0.93366999  1  0  0.087885  0  3.677317  0  0  0.049629  0  3.934633  0  0  0.05574  0  3.950715  0  0.50046  0  0.047779  0.045667  0  3.92369  0
C  C66  1  0.28981877  0.18898330  0.43367046  1  0  0.0879  0  3.677428  0  0  0.049536  0  3.934757  0  0  0.055641  0  3.950836  0  0.500495  0  0.047747  0.045597  0  3.923831  0
C  C67  1  0.78984105  0.81101808  0.06632915  1  0  0.087716  0  3.677269  0  0  0.049329  0  3.934653  0  0  0.055425  0  3.950745  0  0.500832  0  0.047669  0.045392  0  3.923723  0
C  C68  1  0.50560559  0.95629013  0.62617416  1  0  0.046816  0  3.805075  0  0  0.06306  0  4.031318  0  0  0.063683  0  4.056391  0  0.00269  0  -0.010699  0.062873  0  4.014143  0
C  C69  1  0.00559117  0.04370928  0.87382562  1  0  0.046781  0  3.805133  0  0  0.062993  0  4.031405  0  0  0.063615  0  4.056484  0  0.002554  0  -0.010727  0.062806  0  4.014228  0
C  C70  1  0.49438394  0.04370797  0.37382913  1  0  0.046567  0  3.805182  0  0  0.062782  0  4.031522  0  0  0.063406  0  4.056589  0  0.002837  0  -0.010784  0.062595  0  4.014348  0
C  C71  1  0.99440621  0.95629276  0.12617409  1  0  0.046534  0  3.804727  0  0  0.062796  0  4.030974  0  0  0.063418  0  4.056046  0  0.002655  0  -0.010818  0.062608  0  4.0138  0
C  C72  1  0.59660757  0.02475910  0.67707036  1  0  -0.120023  0  3.747143  0  0  -0.137929  0  3.996984  0  0  -0.14185  0  4.018837  0  -0.09685  0  -0.092905  -0.135253  0  3.982048  0
C  C73  1  0.09660364  0.97524163  0.82293007  1  0  -0.120038  0  3.747125  0  0  -0.137934  0  3.996957  0  0  -0.141864  0  4.01882  0  -0.096761  0  -0.092941  -0.135258  0  3.98202  0
C  C74  1  0.40334527  0.97523309  0.32293435  1  0  -0.12003  0  3.747164  0  0  -0.137889  0  3.997014  0  0  -0.141811  0  4.018866  0  -0.097136  0  -0.092955  -0.135212  0  3.982077  0
C  C75  1  0.90338589  0.02476303  0.17707095  1  0  -0.119997  0  3.746949  0  0  -0.137871  0  3.9968  0  0  -0.141797  0  4.01865  0  -0.096719  0  -0.092946  -0.135198  0  3.981869  0
C  C76  1  0.51617746  0.11147862  0.67550155  1  0  -0.074113  0  3.754612  0  0  -0.097595  0  4.003566  0  0  -0.097744  0  4.024581  0  -0.036982  0  -0.086919  -0.097214  0  3.989256  0
C  C77  1  0.01616567  0.88852211  0.82449749  1  0  -0.074195  0  3.754587  0  0  -0.09767  0  4.003569  0  0  -0.09783  0  4.024596  0  -0.036509  0  -0.086971  -0.097291  0  3.989258  0
C  C78  1  0.48381730  0.88851883  0.32450071  1  0  -0.074044  0  3.75445  0  0  -0.097447  0  4.003445  0  0  -0.09763  0  4.024435  0  -0.03595  0  -0.086925  -0.097067  0  3.989125  0
C  C79  1  0.98382647  0.11148255  0.17550214  1  0  -0.074143  0  3.754538  0  0  -0.097618  0  4.003525  0  0  -0.097767  0  4.024551  0  -0.036663  0  -0.086967  -0.097236  0  3.989216  0
C  C80  1  0.33327744  0.13217082  0.62429662  1  0  -0.047627  0  3.71229  0  0  -0.024067  0  3.941512  0  0  -0.031483  0  3.963662  0  0.021618  0  -0.012897  -0.019559  0  3.927073  0
C  C81  1  0.83325255  0.86782925  0.87570047  1  0  -0.047476  0  3.712204  0  0  -0.023945  0  3.941463  0  0  -0.03133  0  3.963559  0  0.02121  0  -0.012741  -0.019436  0  3.927021  0
C  C82  1  0.66669112  0.86782466  0.37570951  1  0  -0.047435  0  3.711688  0  0  -0.024123  0  3.941204  0  0  -0.031549  0  3.963385  0  0.022157  0  -0.012955  -0.019615  0  3.926762  0
C  C83  1  0.16673959  0.13217344  0.12429840  1  0  -0.04759  0  3.712282  0  0  -0.024072  0  3.941584  0  0  -0.031472  0  3.963703  0  0.021265  0  -0.01281  -0.019563  0  3.927144  0
C  C84  1  0.24280995  0.22625551  0.62263894  1  0  0.662595  0  3.915136  0  0  0.610848  0  4.212135  0  0  0.646052  0  4.204916  0  1.58519  0  0.203622  0.586963  0  4.216048  0
C  C85  1  0.74280078  0.77374193  0.87735729  1  0  0.662481  0  3.914983  0  0  0.610755  0  4.21195  0  0  0.645954  0  4.204753  0  1.586032  0  0.203646  0.586872  0  4.215858  0
C  C86  1  0.75716648  0.77373930  0.37736385  1  0  0.662611  0  3.915023  0  0  0.610988  0  4.211948  0  0  0.646193  0  4.204725  0  1.585272  0  0.203815  0.587106  0  4.215859  0
C  C87  1  0.25718613  0.22625814  0.12263934  1  0  0.662626  0  3.915293  0  0  0.610879  0  4.212294  0  0  0.646082  0  4.205088  0  1.585223  0  0.203724  0.586992  0  4.216205  0
C  C88  1  0.23809387  0.06383897  0.57420219  1  0  -0.058166  0  3.739911  0  0  -0.081406  0  3.987458  0  0  -0.081085  0  4.008529  0  0.038836  0  -0.083786  -0.081328  0  3.973053  0
C  C89  1  0.73806636  0.93615979  0.92579563  1  0  -0.058084  0  3.739876  0  0  -0.081314  0  3.987421  0  0  -0.081  0  4.008514  0  0.038485  0  -0.083783  -0.081238  0  3.973016  0
C  C90  1  0.76189566  0.93615979  0.42580165  1  0  -0.058145  0  3.739606  0  0  -0.081306  0  3.987174  0  0  -0.080988  0  4.008251  0  0.038742  0  -0.08371  -0.081228  0  3.972771  0
C  C91  1  0.26191269  0.06384291  0.07420185  1  0  -0.057953  0  3.739865  0  0  -0.081148  0  3.98739  0  0  -0.080829  0  4.00847  0  0.038959  0  -0.083731  -0.081076  0  3.97299  0
C  C92  1  0.32658061  0.97758226  0.57461774  1  0  -0.115224  0  3.745913  0  0  -0.134972  0  3.995042  0  0  -0.139597  0  4.018149  0  -0.103914  0  -0.090192  -0.13184  0  3.979233  0
C  C93  1  0.82656620  0.02241715  0.92538111  1  0  -0.115275  0  3.746026  0  0  -0.134992  0  3.99512  0  0  -0.139628  0  4.018239  0  -0.103862  0  -0.090176  -0.131861  0  3.979311  0
C  C94  1  0.67342988  0.02241584  0.42538137  1  0  -0.115052  0  3.745992  0  0  -0.134776  0  3.995096  0  0  -0.139408  0  4.018208  0  -0.103927  0  -0.090143  -0.131646  0  3.979286  0
C  C95  1  0.17343904  0.97758554  0.07461823  1  0  -0.115131  0  3.745852  0  0  -0.134871  0  3.994951  0  0  -0.139506  0  4.018072  0  -0.104025  0  -0.090094  -0.131739  0  3.97914  0
N  N96  1  0.84042099  0.73032211  0.56158168  1  0  -0.356029  0  3.301741  0  0  -0.285027  0  3.566693  0  0  -0.303788  0  3.586354  0  -1.215551  0  -0.324605  -0.271982  0  3.553023  0
N  N97  1  0.34042492  0.26967599  0.93841697  1  0  -0.355955  0  3.301712  0  0  -0.284927  0  3.566638  0  0  -0.303687  0  3.586301  0  -1.21551  0  -0.324525  -0.271887  0  3.552979  0
N  N98  1  0.15959997  0.26967730  0.43841809  1  0  -0.355869  0  3.301761  0  0  -0.284877  0  3.566737  0  0  -0.303637  0  3.586401  0  -1.215531  0  -0.324555  -0.271834  0  3.553068  0
N  N99  1  0.65960391  0.73032539  0.06158449  1  0  -0.355823  0  3.301541  0  0  -0.284778  0  3.566522  0  0  -0.303538  0  3.586188  0  -1.215836  0  -0.324509  -0.271736  0  3.552854  0
O  O100  1  0.19039859  0.57558974  0.55361119  1  0  -0.645535  0  2.023576  0  0  -0.574684  0  2.268274  0  0  -0.60439  0  2.257519  0  -1.170735  0  -0.318373  -0.553683  0  2.275035  0
O  O101  1  0.69041562  0.42440639  0.94638578  1  0  -0.645569  0  2.023488  0  0  -0.574741  0  2.268088  0  0  -0.604449  0  2.257334  0  -1.170558  0  -0.318406  -0.553738  0  2.274851  0
O  O102  1  0.80961976  0.42440967  0.44638905  1  0  -0.645652  0  2.023354  0  0  -0.574791  0  2.267922  0  0  -0.604499  0  2.257168  0  -1.170264  0  -0.318434  -0.553786  0  2.274684  0
O  O103  1  0.30963679  0.57559237  0.05360834  1  0  -0.64565  0  2.023557  0  0  -0.574796  0  2.268112  0  0  -0.604512  0  2.257362  0  -1.170199  0  -0.318418  -0.553792  0  2.274873  0
O  O104  1  0.01258669  0.57025473  0.65285759  1  0  -0.625303  0  2.03549  0  0  -0.563278  0  2.293766  0  0  -0.591185  0  2.282703  0  -1.167645  0  -0.309754  -0.543545  0  2.300656  0
O  O105  1  0.51257490  0.42974468  0.84714079  1  0  -0.625282  0  2.035681  0  0  -0.563262  0  2.293879  0  0  -0.591161  0  2.282804  0  -1.167773  0  -0.30976  -0.543531  0  2.300771  0
O  O106  1  0.98742117  0.42974205  0.34713901  1  0  -0.625271  0  2.035852  0  0  -0.56322  0  2.294028  0  0  -0.591128  0  2.282974  0  -1.167829  0  -0.309726  -0.543491  0  2.300918  0
O  O107  1  0.48739890  0.57026458  0.15286139  1  0  -0.62518  0  2.035794  0  0  -0.56319  0  2.293975  0  0  -0.591077  0  2.282865  0  -1.167654  0  -0.30974  -0.543456  0  2.300865  0
O  O108  1  0.34225109  0.28579916  0.66796130  1  0  -0.641765  0  1.96224  0  0  -0.58624  0  2.201802  0  0  -0.6114  0  2.190284  0  -1.189008  0  -0.320561  -0.568444  0  2.209048  0
O  O109  1  0.84223668  0.71420025  0.83203662  1  0  -0.641647  0  1.962427  0  0  -0.586094  0  2.201929  0  0  -0.611263  0  2.19043  0  -1.189121  0  -0.320502  -0.568296  0  2.209168  0
O  O110  1  0.65774629  0.71419631  0.33204205  1  0  -0.641792  0  1.962193  0  0  -0.586308  0  2.201725  0  0  -0.611463  0  2.1902  0  -1.189123  0  -0.320656  -0.568512  0  2.208974  0
O  O111  1  0.15775284  0.28580113  0.16795928  1  0  -0.641799  0  1.962402  0  0  -0.586279  0  2.201974  0  0  -0.611436  0  2.190442  0  -1.189039  0  -0.320633  -0.568484  0  2.209225  0
O  O112  1  0.06807398  0.23601645  0.57358123  1  0  -0.680374  0  2.019018  0  0  -0.607573  0  2.281322  0  0  -0.639687  0  2.269886  0  -1.174477  0  -0.34121  -0.584725  0  2.288218  0
O  O113  1  0.56806743  0.76397967  0.92641620  1  0  -0.680458  0  2.018739  0  0  -0.60768  0  2.281074  0  0  -0.63979  0  2.269614  0  -1.175289  0  -0.341343  -0.584831  0  2.287969  0
O  O114  1  0.93193389  0.76398099  0.42641964  1  0  -0.680479  0  2.019062  0  0  -0.60774  0  2.281363  0  0  -0.639853  0  2.269921  0  -1.17467  0  -0.341324  -0.584891  0  2.288257  0
O  O115  1  0.43195091  0.23601842  0.07358245  1  0  -0.680421  0  2.019027  0  0  -0.607614  0  2.281345  0  0  -0.639729  0  2.269897  0  -1.174619  0  -0.341287  -0.584768  0  2.288243  0
O  O116  1  0.47267688  0.42161351  0.57410121  1  0  -1.007289  0  1.891787  0  0  -0.889997  0  2.174035  0  0  -0.930659  0  2.135198  0  -1.197122  0  -0.587411  -0.86092  0  2.200486  0
O  O117  1  0.97267557  0.57838721  0.92589876  1  0  -1.007325  0  1.891791  0  0  -0.890036  0  2.174045  0  0  -0.930701  0  2.135207  0  -1.197082  0  -0.587425  -0.860959  0  2.200497  0
O  O118  1  0.52732313  0.57838524  0.42589753  1  0  -1.007258  0  1.891765  0  0  -0.889961  0  2.174023  0  0  -0.930626  0  2.135185  0  -1.197124  0  -0.587378  -0.860888  0  2.200472  0
O  O119  1  0.02732444  0.42161483  0.07410187  1  0  -1.007245  0  1.891888  0  0  -0.889947  0  2.174166  0  0  -0.930617  0  2.135334  0  -1.197066  0  -0.587348  -0.860867  0  2.200614  0
O  O120  1  0.88356002  0.42938827  0.72438371  1  0  -1.012926  0  1.885284  0  0  -0.905546  0  2.152488  0  0  -0.945469  0  2.120034  0  -1.162102  0  -0.597905  -0.876768  0  2.174343  0
O  O121  1  0.38356656  0.57061114  0.77561606  1  0  -1.012846  0  1.885265  0  0  -0.905454  0  2.152489  0  0  -0.945377  0  2.120034  0  -1.162155  0  -0.597875  -0.876676  0  2.174345  0
O  O122  1  0.11642427  0.57061311  0.27561635  1  0  -1.012849  0  1.88534  0  0  -0.905397  0  2.152587  0  0  -0.945325  0  2.120136  0  -1.162285  0  -0.597894  -0.876621  0  2.174442  0
O  O123  1  0.61643606  0.42938892  0.22438335  1  0  -1.012848  0  1.885288  0  0  -0.905402  0  2.152621  0  0  -0.945324  0  2.12016  0  -1.16215  0  -0.597878  -0.876623  0  2.174474  0
