# generated using pymatgen
data_CdH8(C4O3)2
_symmetry_space_group_name_H-M   'P 1'
_cell_length_a   6.19020337
_cell_length_b   10.33467883
_cell_length_c   13.95779342
_cell_angle_alpha   100.63175234
_cell_angle_beta   90.00113188
_cell_angle_gamma   89.99987417
_symmetry_Int_Tables_number   1
_chemical_formula_structural   CdH8(C4O3)2
_chemical_formula_sum   'Cd4 H32 C32 O24'
_cell_volume   877.60383237
_cell_formula_units_Z   4
loop_
 _symmetry_equiv_pos_site_id
 _symmetry_equiv_pos_as_xyz
  1  'x, y, z'
loop_
 _atom_site_type_symbol
 _atom_site_label
 _atom_site_symmetry_multiplicity
 _atom_site_fract_x
 _atom_site_fract_y
 _atom_site_fract_z
 _atom_site_occupancy
 _atom_site_hle17_bader_spin_density
 _atom_site_hle17_ddec_charge
 _atom_site_hle17_ddec_spin_density
 _atom_site_hle17_ddec_sum_bond_order
 _atom_site_hle17_magmom
 _atom_site_hse06_10hf_bader_spin_density
 _atom_site_hse06_10hf_ddec_charge
 _atom_site_hse06_10hf_ddec_spin_density
 _atom_site_hse06_10hf_ddec_sum_bond_order
 _atom_site_hse06_10hf_magmom
 _atom_site_hse06_bader_spin_density
 _atom_site_hse06_ddec_charge
 _atom_site_hse06_ddec_spin_density
 _atom_site_hse06_ddec_sum_bond_order
 _atom_site_hse06_magmom
 _atom_site_pbe_bader_spin_density
 _atom_site_pbe_cm5_charge
 _atom_site_pbe_ddec_charge
 _atom_site_pbe_ddec_spin_density
 _atom_site_pbe_ddec_sum_bond_order
 _atom_site_pbe_magmom
Cd  Cd0  1  0.07575242  0.92066586  0.66741541  1  0  1.311204  0  1.532232  0  0  1.140078  0  1.968523  0  0  1.196594  0  1.907517  0  0  0.80728  1.098962  0  2.01109  0
Cd  Cd1  1  0.57575777  0.57933100  0.33258770  1  0  1.311232  0  1.532124  0  0  1.14002  0  1.968389  0  0  1.196547  0  1.907381  0  0  0.807224  1.09891  0  2.010958  0
Cd  Cd2  1  0.92426116  0.07933621  0.33258127  1  0  1.311197  0  1.532217  0  0  1.140034  0  1.96852  0  0  1.196554  0  1.907512  0  0  0.80724  1.098926  0  2.011089  0
Cd  Cd3  1  0.42423643  0.42067075  0.66742041  1  0  1.311152  0  1.532433  0  0  1.139934  0  1.968752  0  0  1.196453  0  1.907736  0  0  0.807134  1.098826  0  2.011325  0
H  H4  1  0.92944185  0.30815864  0.88454895  1  0  0.096547  0  0.937492  0  0  0.10648  0  0.997539  0  0  0.108588  0  0.997374  0  0  0.102336  0.104957  0  0.997744  0
H  H5  1  0.42945120  0.19185154  0.11544608  1  0  0.096469  0  0.937634  0  0  0.106419  0  0.997664  0  0  0.108509  0  0.997519  0  0  0.102286  0.104897  0  0.997864  0
H  H6  1  0.07056042  0.69185014  0.11545520  1  0  0.096503  0  0.93766  0  0  0.106468  0  0.997667  0  0  0.108556  0  0.997525  0  0  0.102313  0.104948  0  0.997867  0
H  H7  1  0.57055107  0.80814467  0.88454829  1  0  0.096482  0  0.937636  0  0  0.106464  0  0.99764  0  0  0.108534  0  0.99752  0  0  0.102314  0.104942  0  0.99784  0
H  H8  1  0.11863362  0.06790523  0.90986263  1  0  0.061498  0  0.939731  0  0  0.071913  0  1.001582  0  0  0.072542  0  1.000945  0  0  0.111396  0.071247  0  1.002395  0
H  H9  1  0.61862557  0.43210513  0.09012796  1  0  0.061527  0  0.939712  0  0  0.071856  0  1.001639  0  0  0.072485  0  1.001001  0  0  0.111382  0.071191  0  1.002448  0
H  H10  1  0.88138804  0.93210865  0.09013585  1  0  0.061485  0  0.939769  0  0  0.071867  0  1.001681  0  0  0.072495  0  1.001043  0  0  0.11141  0.071203  0  1.002489  0
H  H11  1  0.38135732  0.56789113  0.90986427  1  0  0.061622  0  0.939606  0  0  0.071922  0  1.001506  0  0  0.072576  0  1.00088  0  0  0.111372  0.071255  0  1.002332  0
H  H12  1  0.80410130  0.15282871  0.04171879  1  0  0.123835  0  0.967339  0  0  0.133037  0  1.028471  0  0  0.136159  0  1.027587  0  0  0.106193  0.130771  0  1.029248  0
H  H13  1  0.30407785  0.34716584  0.95828397  1  0  0.123839  0  0.967502  0  0  0.133073  0  1.028578  0  0  0.136155  0  1.027747  0  0  0.106206  0.130806  0  1.02935  0
H  H14  1  0.19590582  0.84715448  0.95828148  1  0  0.123773  0  0.967649  0  0  0.132989  0  1.028745  0  0  0.136111  0  1.027861  0  0  0.106184  0.130725  0  1.029516  0
H  H15  1  0.69590504  0.65282542  0.04171037  1  0  0.123847  0  0.967525  0  0  0.133051  0  1.02863  0  0  0.136137  0  1.02779  0  0  0.106187  0.130788  0  1.029402  0
H  H16  1  0.43168824  0.10345021  0.94012762  1  0  0.104524  0  0.977916  0  0  0.11411  0  1.043356  0  0  0.116582  0  1.042656  0  0  0.103025  0.112191  0  1.044275  0
H  H17  1  0.93167478  0.39654004  0.05987373  1  0  0.10444  0  0.978003  0  0  0.114064  0  1.043394  0  0  0.116539  0  1.042694  0  0  0.10303  0.112145  0  1.044323  0
H  H18  1  0.56832857  0.89654402  0.05986645  1  0  0.104507  0  0.977922  0  0  0.114104  0  1.043349  0  0  0.116582  0  1.042641  0  0  0.103044  0.112184  0  1.044282  0
H  H19  1  0.06830165  0.60344306  0.94012941  1  0  0.104457  0  0.977644  0  0  0.114085  0  1.043078  0  0  0.116559  0  1.042375  0  0  0.103  0.112159  0  1.044003  0
H  H20  1  0.55281096  0.99103138  0.75852130  1  0  0.084913  0  0.935649  0  0  0.090008  0  0.998932  0  0  0.091589  0  0.998045  0  0  0.11641  0.088817  0  0.999668  0
H  H21  1  0.05282512  0.50897418  0.24147871  1  0  0.084889  0  0.935619  0  0  0.090031  0  0.998852  0  0  0.091619  0  0.997962  0  0  0.116431  0.088841  0  0.999586  0
H  H22  1  0.44721069  0.00897382  0.24146941  1  0  0.084822  0  0.935719  0  0  0.089933  0  0.999009  0  0  0.091519  0  0.998113  0  0  0.116403  0.088741  0  0.999747  0
H  H23  1  0.94716745  0.49102179  0.75852422  1  0  0.084864  0  0.935607  0  0  0.089961  0  0.998889  0  0  0.091542  0  0.998007  0  0  0.116397  0.08877  0  0.999626  0
H  H24  1  0.61825954  0.26311315  0.79623622  1  0  0.09959  0  0.974977  0  0  0.100976  0  1.048117  0  0  0.104416  0  1.045815  0  0  0.101931  0.098558  0  1.049742  0
H  H25  1  0.11828077  0.23689295  0.20376518  1  0  0.099472  0  0.974983  0  0  0.100806  0  1.048166  0  0  0.104248  0  1.045857  0  0  0.101884  0.098395  0  1.049786  0
H  H26  1  0.38174758  0.73689764  0.20376680  1  0  0.099619  0  0.97502  0  0  0.101001  0  1.048151  0  0  0.104451  0  1.045851  0  0  0.101966  0.09859  0  1.049768  0
H  H27  1  0.88172797  0.76310323  0.79622991  1  0  0.099486  0  0.974932  0  0  0.100819  0  1.048081  0  0  0.104278  0  1.045785  0  0  0.1019  0.098405  0  1.049701  0
H  H28  1  0.50318653  0.83652041  0.58643504  1  0  0.435083  0  0.841498  0  0  0.407677  0  0.902211  0  0  0.416795  0  0.889068  0  0  0.304335  0.401139  0  0.911638  0
H  H29  1  0.00319595  0.66347159  0.41356768  1  0  0.435115  0  0.841416  0  0  0.407654  0  0.902251  0  0  0.416779  0  0.889098  0  0  0.304283  0.401114  0  0.911682  0
H  H30  1  0.49681736  0.16346752  0.41357241  1  0  0.434958  0  0.841754  0  0  0.407563  0  0.902384  0  0  0.41668  0  0.889244  0  0  0.304242  0.401026  0  0.91181  0
H  H31  1  0.99680794  0.33653524  0.58643547  1  0  0.435108  0  0.841411  0  0  0.407662  0  0.902234  0  0  0.416784  0  0.889085  0  0  0.30428  0.401123  0  0.911663  0
H  H32  1  0.33735277  0.81542389  0.49685616  1  0  0.43213  0  0.870605  0  0  0.397457  0  0.938875  0  0  0.40963  0  0.921089  0  0  0.289117  0.388827  0  0.951463  0
H  H33  1  0.83736155  0.68457826  0.50314553  1  0  0.432085  0  0.870658  0  0  0.397353  0  0.939029  0  0  0.409527  0  0.921247  0  0  0.289052  0.388722  0  0.95162  0
H  H34  1  0.66264789  0.18457995  0.50314796  1  0  0.432069  0  0.870692  0  0  0.397374  0  0.938992  0  0  0.409544  0  0.921212  0  0  0.289108  0.388746  0  0.951582  0
H  H35  1  0.16263910  0.31543058  0.49685649  1  0  0.432045  0  0.870725  0  0  0.39734  0  0.939051  0  0  0.409511  0  0.92127  0  0  0.289081  0.38871  0  0.95164  0
C  C36  1  0.15240404  0.22741346  0.77350246  1  0  0.668196  0  3.874796  0  0  0.61508  0  4.182733  0  0  0.649275  0  4.176358  0  0  0.200294  0.591746  0  4.186183  0
C  C37  1  0.65243612  0.27257578  0.22648080  1  0  0.668317  0  3.874159  0  0  0.615316  0  4.181942  0  0  0.649511  0  4.17556  0  0  0.200345  0.591985  0  4.185397  0
C  C38  1  0.84759177  0.77258137  0.22650531  1  0  0.668198  0  3.874529  0  0  0.615046  0  4.182524  0  0  0.649243  0  4.176144  0  0  0.200283  0.591712  0  4.185971  0
C  C39  1  0.34756453  0.72742922  0.77351705  1  0  0.668327  0  3.874334  0  0  0.615293  0  4.182174  0  0  0.649494  0  4.175785  0  0  0.200318  0.59196  0  4.185624  0
C  C40  1  0.94906653  0.21503932  0.83329263  1  0  -0.192121  0  3.555227  0  0  -0.197977  0  3.785046  0  0  -0.204567  0  3.796672  0  0  -0.089528  -0.193392  0  3.776922  0
C  C41  1  0.44905301  0.28496101  0.16670961  1  0  -0.192228  0  3.555341  0  0  -0.198202  0  3.78516  0  0  -0.204773  0  3.796791  0  0  -0.089562  -0.193617  0  3.777032  0
C  C42  1  0.05094543  0.78496652  0.16671036  1  0  -0.192219  0  3.555095  0  0  -0.198044  0  3.784812  0  0  -0.204604  0  3.796446  0  0  -0.089552  -0.193455  0  3.776683  0
C  C43  1  0.55092826  0.71503111  0.83328916  1  0  -0.192164  0  3.555115  0  0  -0.198192  0  3.784829  0  0  -0.204707  0  3.79651  0  0  -0.089546  -0.193602  0  3.776703  0
C  C44  1  0.95847883  0.09607748  0.88831455  1  0  0.190525  0  3.555046  0  0  0.161885  0  3.801837  0  0  0.169693  0  3.810734  0  0  0.001706  0.156698  0  3.795661  0
C  C45  1  0.45847369  0.40393601  0.11168114  1  0  0.190643  0  3.555199  0  0  0.162122  0  3.801857  0  0  0.169933  0  3.810744  0  0  0.00181  0.156944  0  3.795672  0
C  C46  1  0.04153474  0.90392945  0.11168503  1  0  0.190748  0  3.554878  0  0  0.162046  0  3.801779  0  0  0.169863  0  3.810667  0  0  0.001758  0.156862  0  3.7956  0
C  C47  1  0.54150758  0.59607165  0.88832786  1  0  0.190347  0  3.555188  0  0  0.161993  0  3.801598  0  0  0.169677  0  3.810646  0  0  0.001779  0.1568  0  3.795432  0
C  C48  1  0.78083070  0.11818471  0.96397452  1  0  -0.150478  0  3.619483  0  0  -0.171486  0  3.880087  0  0  -0.174812  0  3.897691  0  0  -0.103397  -0.16921  0  3.868161  0
C  C49  1  0.28082493  0.38182648  0.03602348  1  0  -0.150598  0  3.619903  0  0  -0.171667  0  3.880509  0  0  -0.174959  0  3.898125  0  0  -0.103486  -0.169383  0  3.86857  0
C  C50  1  0.21918611  0.88181366  0.03601301  1  0  -0.150463  0  3.619584  0  0  -0.171458  0  3.880181  0  0  -0.17478  0  3.897775  0  0  -0.103452  -0.169174  0  3.868244  0
C  C51  1  0.71913534  0.61817251  0.96397704  1  0  -0.150376  0  3.620059  0  0  -0.171462  0  3.880577  0  0  -0.174729  0  3.898226  0  0  -0.103434  -0.16918  0  3.86864  0
C  C52  1  0.59643178  0.09326981  0.91342866  1  0  -0.113676  0  3.61695  0  0  -0.139845  0  3.881387  0  0  -0.141021  0  3.898185  0  0  -0.095813  -0.139084  0  3.870269  0
C  C53  1  0.09642983  0.40674308  0.08656792  1  0  -0.113652  0  3.617142  0  0  -0.13986  0  3.881631  0  0  -0.141029  0  3.898414  0  0  -0.095864  -0.139106  0  3.87051  0
C  C54  1  0.40357857  0.90673242  0.08656232  1  0  -0.113701  0  3.616903  0  0  -0.139894  0  3.881386  0  0  -0.141068  0  3.898177  0  0  -0.095825  -0.139143  0  3.870273  0
C  C55  1  0.90353367  0.59326562  0.91343909  1  0  -0.113793  0  3.61656  0  0  -0.140017  0  3.881065  0  0  -0.141186  0  3.89784  0  0  -0.095873  -0.139246  0  3.869933  0
C  C56  1  0.66095214  0.05488802  0.80744915  1  0  0.187544  0  3.534124  0  0  0.16182  0  3.779674  0  0  0.169024  0  3.78803  0  0  0.000915  0.156939  0  3.773924  0
C  C57  1  0.16095371  0.44511381  0.19254752  1  0  0.187728  0  3.533619  0  0  0.161914  0  3.779211  0  0  0.169114  0  3.787572  0  0  0.000959  0.157039  0  3.773463  0
C  C58  1  0.33906629  0.94510497  0.19255404  1  0  0.187769  0  3.53377  0  0  0.161963  0  3.779352  0  0  0.169183  0  3.787714  0  0  0.001034  0.157083  0  3.77361  0
C  C59  1  0.83902433  0.55488131  0.80745027  1  0  0.18765  0  3.533472  0  0  0.161824  0  3.779089  0  0  0.169045  0  3.787456  0  0  0.00094  0.156949  0  3.773336  0
C  C60  1  0.73389462  0.18362326  0.77338837  1  0  -0.201867  0  3.558422  0  0  -0.210758  0  3.790161  0  0  -0.216929  0  3.800596  0  0  -0.092141  -0.206419  0  3.782831  0
C  C61  1  0.23391757  0.31638133  0.22661269  1  0  -0.201544  0  3.558292  0  0  -0.210232  0  3.789788  0  0  -0.216436  0  3.800302  0  0  -0.092017  -0.205899  0  3.782461  0
C  C62  1  0.26611734  0.81638469  0.22660993  1  0  -0.201798  0  3.55854  0  0  -0.210514  0  3.79002  0  0  -0.216759  0  3.800582  0  0  -0.092158  -0.206177  0  3.782686  0
C  C63  1  0.76609439  0.68361087  0.77338323  1  0  -0.201571  0  3.558009  0  0  -0.210189  0  3.789551  0  0  -0.216472  0  3.800151  0  0  -0.092048  -0.205855  0  3.782218  0
C  C64  1  0.75778092  0.16455311  0.66279738  1  0  0.70619  0  3.793684  0  0  0.651287  0  4.097897  0  0  0.685821  0  4.09056  0  0  0.221412  0.627658  0  4.102135  0
C  C65  1  0.25781161  0.33543583  0.33720859  1  0  0.70613  0  3.793625  0  0  0.651111  0  4.098007  0  0  0.685656  0  4.090668  0  0  0.221398  0.627482  0  4.102247  0
C  C66  1  0.24223428  0.83544279  0.33720769  1  0  0.706211  0  3.793586  0  0  0.651109  0  4.098065  0  0  0.685662  0  4.090729  0  0  0.221406  0.627481  0  4.102299  0
C  C67  1  0.74218743  0.66457407  0.66279072  1  0  0.706176  0  3.793637  0  0  0.651052  0  4.098097  0  0  0.685616  0  4.09077  0  0  0.221407  0.627426  0  4.10233  0
O  O68  1  0.23843538  0.12757498  0.72167553  1  0  -0.637566  0  2.003129  0  0  -0.576531  0  2.255465  0  0  -0.604756  0  2.245199  0  0  -0.319965  -0.556627  0  2.261767  0
O  O69  1  0.73848476  0.37241482  0.27832617  1  0  -0.637842  0  2.002621  0  0  -0.576824  0  2.254875  0  0  -0.605049  0  2.244601  0  0  -0.320061  -0.556916  0  2.261183  0
O  O70  1  0.76157336  0.87241859  0.27834208  1  0  -0.637433  0  2.003069  0  0  -0.576422  0  2.255454  0  0  -0.604647  0  2.245187  0  0  -0.319913  -0.556513  0  2.261756  0
O  O71  1  0.26150782  0.62757841  0.72166846  1  0  -0.637892  0  2.002302  0  0  -0.576813  0  2.254498  0  0  -0.605043  0  2.244228  0  0  -0.320062  -0.556904  0  2.260804  0
O  O72  1  0.35908198  0.85969510  0.56621024  1  0  -0.846553  0  1.856943  0  0  -0.780414  0  2.054636  0  0  -0.802502  0  2.017767  0  0  -0.587351  -0.764819  0  2.080501  0
O  O73  1  0.85910103  0.64028746  0.43379432  1  0  -0.846499  0  1.856816  0  0  -0.780286  0  2.054587  0  0  -0.802382  0  2.01772  0  0  -0.5872  -0.764682  0  2.080449  0
O  O74  1  0.64092676  0.14031066  0.43379560  1  0  -0.846391  0  1.85717  0  0  -0.780244  0  2.05484  0  0  -0.802332  0  2.017976  0  0  -0.58729  -0.764648  0  2.080697  0
O  O75  1  0.14091093  0.35971448  0.56620665  1  0  -0.846459  0  1.856925  0  0  -0.780269  0  2.054669  0  0  -0.802361  0  2.017806  0  0  -0.587228  -0.764668  0  2.08053  0
O  O76  1  0.22681330  0.34467245  0.78288908  1  0  -0.667395  0  2.021523  0  0  -0.602573  0  2.285286  0  0  -0.632428  0  2.274238  0  0  -0.333203  -0.581343  0  2.292107  0
O  O77  1  0.72682327  0.15532416  0.21711144  1  0  -0.667228  0  2.021544  0  0  -0.602486  0  2.285336  0  0  -0.63234  0  2.274284  0  0  -0.333105  -0.581255  0  2.292156  0
O  O78  1  0.77319866  0.65531766  0.21711081  1  0  -0.667423  0  2.021472  0  0  -0.602592  0  2.28524  0  0  -0.63244  0  2.274171  0  0  -0.333179  -0.581386  0  2.292114  0
O  O79  1  0.27317416  0.84466901  0.78288533  1  0  -0.667234  0  2.021984  0  0  -0.602494  0  2.285767  0  0  -0.632344  0  2.274716  0  0  -0.333122  -0.581275  0  2.2926  0
O  O80  1  0.83581753  0.06049418  0.61388150  1  0  -0.620509  0  1.987405  0  0  -0.556761  0  2.232444  0  0  -0.585127  0  2.220267  0  0  -0.314366  -0.536817  0  2.240226  0
O  O81  1  0.33585388  0.43950572  0.38612081  1  0  -0.620695  0  1.987235  0  0  -0.556828  0  2.232277  0  0  -0.585197  0  2.220095  0  0  -0.314471  -0.536879  0  2.240061  0
O  O82  1  0.16418151  0.93950658  0.38612646  1  0  -0.620732  0  1.987173  0  0  -0.556841  0  2.232226  0  0  -0.585208  0  2.220039  0  0  -0.314401  -0.536893  0  2.240007  0
O  O83  1  0.66414193  0.56050044  0.61387077  1  0  -0.62077  0  1.986964  0  0  -0.556908  0  2.232094  0  0  -0.58528  0  2.219913  0  0  -0.314513  -0.536961  0  2.239876  0
O  O84  1  0.69553112  0.26004325  0.62063694  1  0  -0.693253  0  1.998115  0  0  -0.615164  0  2.238715  0  0  -0.645235  0  2.223661  0  0  -0.321376  -0.593927  0  2.248538  0
O  O85  1  0.19556469  0.23995318  0.37935623  1  0  -0.692991  0  1.998491  0  0  -0.615017  0  2.239292  0  0  -0.645083  0  2.224234  0  0  -0.321321  -0.593777  0  2.24911  0
O  O86  1  0.30444854  0.73996941  0.37936995  1  0  -0.693144  0  1.998599  0  0  -0.615056  0  2.239327  0  0  -0.645132  0  2.224275  0  0  -0.32138  -0.593817  0  2.24914  0
O  O87  1  0.80443596  0.76004194  0.62064155  1  0  -0.693079  0  1.99872  0  0  -0.615041  0  2.239531  0  0  -0.645105  0  2.224468  0  0  -0.321384  -0.593804  0  2.249345  0
O  O88  1  0.86768771  0.99051686  0.81638009  1  0  -0.378334  0  2.218773  0  0  -0.300207  0  2.457539  0  0  -0.319236  0  2.45729  0  0  -0.209118  -0.2868  0  2.457334  0
O  O89  1  0.36770797  0.50948791  0.18361212  1  0  -0.378507  0  2.218819  0  0  -0.30032  0  2.457542  0  0  -0.319354  0  2.457298  0  0  -0.20918  -0.286922  0  2.457347  0
O  O90  1  0.13231617  0.00949332  0.18360923  1  0  -0.378639  0  2.21869  0  0  -0.300433  0  2.457412  0  0  -0.319477  0  2.457166  0  0  -0.209253  -0.287026  0  2.457212  0
O  O91  1  0.63227814  0.49050729  0.81638282  1  0  -0.378268  0  2.21858  0  0  -0.300126  0  2.457243  0  0  -0.319095  0  2.456998  0  0  -0.208999  -0.286717  0  2.457043  0
