# generated using pymatgen
data_CdH27C22N2O5
_symmetry_space_group_name_H-M   'P 1'
_cell_length_a   8.33090171
_cell_length_b   10.23826466
_cell_length_c   14.08700000
_cell_angle_alpha   90.65656517
_cell_angle_beta   105.63620149
_cell_angle_gamma   100.26752195
_symmetry_Int_Tables_number   1
_chemical_formula_structural   CdH27C22N2O5
_chemical_formula_sum   'Cd2 H54 C44 N4 O10'
_cell_volume   1136.29446091
_cell_formula_units_Z   2
loop_
 _symmetry_equiv_pos_site_id
 _symmetry_equiv_pos_as_xyz
  1  'x, y, z'
loop_
 _atom_site_type_symbol
 _atom_site_label
 _atom_site_symmetry_multiplicity
 _atom_site_fract_x
 _atom_site_fract_y
 _atom_site_fract_z
 _atom_site_occupancy
 _atom_site_hle17_bader_spin_density
 _atom_site_hle17_ddec_charge
 _atom_site_hle17_ddec_spin_density
 _atom_site_hle17_ddec_sum_bond_order
 _atom_site_hle17_magmom
 _atom_site_hse06_10hf_bader_spin_density
 _atom_site_hse06_10hf_ddec_charge
 _atom_site_hse06_10hf_ddec_spin_density
 _atom_site_hse06_10hf_ddec_sum_bond_order
 _atom_site_hse06_10hf_magmom
 _atom_site_hse06_bader_spin_density
 _atom_site_hse06_ddec_charge
 _atom_site_hse06_ddec_spin_density
 _atom_site_hse06_ddec_sum_bond_order
 _atom_site_hse06_magmom
 _atom_site_pbe_bader_charge
 _atom_site_pbe_bader_spin_density
 _atom_site_pbe_cm5_charge
 _atom_site_pbe_ddec_charge
 _atom_site_pbe_ddec_spin_density
 _atom_site_pbe_ddec_sum_bond_order
 _atom_site_pbe_magmom
Cd  Cd0  1  0.29157296  0.38236377  0.00901476  1  0  1.169589  0  1.631397  0  0  0.988252  0  2.06801  0  0  1.046086  0  2.014513  0  1.274346  0  0.773683  0.943149  0  2.108043  0
Cd  Cd1  1  0.70842827  0.61763319  0.99098427  1  0  1.169581  0  1.631468  0  0  0.988233  0  2.06808  0  0  1.046065  0  2.014584  0  1.274348  0  0.773679  0.943132  0  2.108111  0
H  H2  1  0.01387060  0.20147934  0.95041619  1  0  0.413464  0  0.868949  0  0  0.389576  0  0.932559  0  0  0.398879  0  0.918819  0  0.640153  0  0.293661  0.382817  0  0.942537  0
H  H3  1  0.98612458  0.79852360  0.04958407  1  0  0.413409  0  0.868992  0  0  0.389521  0  0.932631  0  0  0.398825  0  0.918888  0  0.640022  0  0.293633  0.382762  0  0.942608  0
H  H4  1  0.92202123  0.32119373  0.96493234  1  0  0.427412  0  0.877063  0  0  0.394479  0  0.944631  0  0  0.405878  0  0.928156  0  0.653303  0  0.284533  0.386267  0  0.956449  0
H  H5  1  0.07797919  0.67881020  0.03506947  1  0  0.427268  0  0.87721  0  0  0.394361  0  0.944744  0  0  0.405755  0  0.928275  0  0.653323  0  0.284492  0.386158  0  0.956556  0
H  H6  1  0.25809632  0.87081212  0.00357612  1  0  0.105319  0  0.94647  0  0  0.114131  0  1.0119  0  0  0.118135  0  1.008551  0  0.10599  0  0.107977  0.111187  0  1.014718  0
H  H7  1  0.74189340  0.12918882  0.99641970  1  0  0.105298  0  0.946506  0  0  0.1141  0  1.011954  0  0  0.118099  0  1.008603  0  0.106267  0  0.107951  0.111152  0  1.014776  0
H  H8  1  0.38007731  0.68419489  0.76415778  1  0  0.099269  0  0.964721  0  0  0.109603  0  1.029086  0  0  0.112833  0  1.027214  0  0.086324  0  0.101252  0.10722  0  1.030483  0
H  H9  1  0.61992493  0.31580108  0.23584212  1  0  0.099303  0  0.964717  0  0  0.109632  0  1.029089  0  0  0.11284  0  1.027242  0  0.084553  0  0.101252  0.107248  0  1.030488  0
H  H10  1  0.34605531  0.10067104  0.76526856  1  0  0.093937  0  0.968745  0  0  0.104519  0  1.033187  0  0  0.107643  0  1.031192  0  0.076316  0  0.1008  0.102249  0  1.034587  0
H  H11  1  0.65394022  0.89932294  0.23472599  1  0  0.093923  0  0.968678  0  0  0.104517  0  1.033111  0  0  0.107642  0  1.031112  0  0.076265  0  0.100808  0.102246  0  1.034513  0
H  H12  1  0.49348249  0.79869566  0.54697135  1  0  0.09121  0  0.963475  0  0  0.113885  0  1.02444  0  0  0.114807  0  1.025052  0  -0.017229  0  0.082637  0.113194  0  1.024075  0
H  H13  1  0.50652349  0.20130031  0.45302843  1  0  0.091238  0  0.963483  0  0  0.113916  0  1.024447  0  0  0.114839  0  1.025059  0  -0.017199  0  0.08263  0.113221  0  1.024086  0
H  H14  1  0.37657152  0.69033348  0.61210896  1  0  0.092791  0  0.972991  0  0  0.112511  0  1.03834  0  0  0.1133  0  1.039553  0  0.016805  0  0.082132  0.11195  0  1.037529  0
H  H15  1  0.62343173  0.30966150  0.38789109  1  0  0.092754  0  0.973074  0  0  0.112486  0  1.0384  0  0  0.113275  0  1.039609  0  0.016589  0  0.082137  0.111925  0  1.037588  0
H  H16  1  0.58607459  0.77591366  0.67355365  1  0  0.101613  0  0.969769  0  0  0.119415  0  1.036121  0  0  0.120359  0  1.037468  0  0.052457  0  0.084208  0.118788  0  1.035077  0
H  H17  1  0.41392812  0.22408430  0.32644705  1  0  0.101662  0  0.969719  0  0  0.11945  0  1.036088  0  0  0.120392  0  1.037436  0  0.052124  0  0.084228  0.118823  0  1.035044  0
H  H18  1  0.16574781  0.98765813  0.58681795  1  0  0.094815  0  0.955734  0  0  0.11504  0  1.017392  0  0  0.116414  0  1.017355  0  0.022614  0  0.083038  0.113865  0  1.017667  0
H  H19  1  0.83425544  0.01233685  0.41317997  1  0  0.094888  0  0.955677  0  0  0.115055  0  1.017385  0  0  0.116428  0  1.017348  0  0.0227  0  0.083043  0.113879  0  1.017659  0
H  H20  1  0.13246454  0.81157456  0.56756099  1  0  0.096658  0  0.961571  0  0  0.116675  0  1.025418  0  0  0.117763  0  1.026642  0  0.026301  0  0.083228  0.115869  0  1.024564  0
H  H21  1  0.86753746  0.18842042  0.43243673  1  0  0.09667  0  0.961644  0  0  0.11671  0  1.025442  0  0  0.1178  0  1.026662  0  0.026321  0  0.083248  0.1159  0  1.024592  0
H  H22  1  0.23983116  0.91546010  0.49498062  1  0  0.093714  0  0.961835  0  0  0.116811  0  1.020206  0  0  0.118072  0  1.020472  0  0.032632  0  0.083277  0.115878  0  1.020013  0
H  H23  1  0.76017209  0.08453487  0.50501588  1  0  0.093684  0  0.961897  0  0  0.116809  0  1.020226  0  0  0.118071  0  1.020491  0  0.032714  0  0.083271  0.115876  0  1.020032  0
H  H24  1  0.63865156  0.03740540  0.70440587  1  0  0.111568  0  0.931868  0  0  0.135831  0  0.984217  0  0  0.137517  0  0.984018  0  0.033773  0  0.092677  0.134607  0  0.984354  0
H  H25  1  0.36134842  0.96259156  0.29559367  1  0  0.111568  0  0.931889  0  0  0.135838  0  0.984226  0  0  0.13752  0  0.98403  0  0.033787  0  0.09267  0.134599  0  0.98438  0
H  H26  1  0.46782493  0.12037579  0.65329830  1  0  0.087165  0  0.980865  0  0  0.107147  0  1.048579  0  0  0.108059  0  1.049041  0  -0.004045  0  0.081241  0.106393  0  1.048429  0
H  H27  1  0.53217357  0.87962018  0.34670029  1  0  0.087149  0  0.980941  0  0  0.107124  0  1.048675  0  0  0.108038  0  1.049136  0  -0.004063  0  0.081232  0.106366  0  1.048527  0
H  H28  1  0.55253390  0.03501044  0.57404307  1  0  0.086147  0  0.99667  0  0  0.107519  0  1.061913  0  0  0.108762  0  1.062158  0  0.00727  0  0.080907  0.106608  0  1.061735  0
H  H29  1  0.44746959  0.96498553  0.42595631  1  0  0.086149  0  0.996679  0  0  0.107513  0  1.061923  0  0  0.108757  0  1.062166  0  0.007538  0  0.0809  0.106606  0  1.061738  0
H  H30  1  0.09147607  0.19700668  0.15363274  1  0  0.117064  0  0.944652  0  0  0.128055  0  1.000911  0  0  0.130474  0  0.999664  0  0.184544  0  0.123094  0.12627  0  1.001961  0
H  H31  1  0.90852986  0.80299426  0.84637133  1  0  0.117138  0  0.944686  0  0  0.12813  0  1.00094  0  0  0.130549  0  0.999693  0  0.184491  0  0.123127  0.126346  0  1.001987  0
H  H32  1  0.02836623  0.30609292  0.31939978  1  0  0.111813  0  0.968751  0  0  0.12193  0  1.029644  0  0  0.124147  0  1.029771  0  0.120716  0  0.119043  0.120279  0  1.029719  0
H  H33  1  0.97163092  0.69391300  0.68060010  1  0  0.11179  0  0.968714  0  0  0.121906  0  1.029616  0  0  0.124124  0  1.029742  0  0.120953  0  0.119029  0.120255  0  1.029691  0
H  H34  1  0.47049384  0.61921956  0.16292825  1  0  0.160701  0  0.948929  0  0  0.178303  0  1.009461  0  0  0.181243  0  1.007427  0  0.119505  0  0.107713  0.176134  0  1.011092  0
H  H35  1  0.52951583  0.38078139  0.83707429  1  0  0.160717  0  0.948936  0  0  0.178313  0  1.00946  0  0  0.181254  0  1.007422  0  0.119697  0  0.107662  0.176125  0  1.011129  0
H  H36  1  0.47391149  0.66853712  0.28483923  1  0  0.102426  0  0.98455  0  0  0.119773  0  1.057137  0  0  0.121265  0  1.056707  0  0.018418  0  0.09041  0.118717  0  1.057381  0
H  H37  1  0.52609669  0.33146283  0.71516448  1  0  0.10239  0  0.984578  0  0  0.119732  0  1.057171  0  0  0.121209  0  1.056755  0  0.018523  0  0.090398  0.118667  0  1.057424  0
H  H38  1  0.31152652  0.70204076  0.18276421  1  0  0.142434  0  0.930953  0  0  0.162051  0  0.991399  0  0  0.164825  0  0.989453  0  0.094411  0  0.103391  0.160037  0  0.992892  0
H  H39  1  0.68848315  0.29796019  0.81723975  1  0  0.142417  0  0.93091  0  0  0.16205  0  0.991353  0  0  0.164825  0  0.989404  0  0.094479  0  0.103367  0.160038  0  0.992839  0
H  H40  1  0.18435831  0.66607950  0.33526125  1  0  0.086763  0  0.921434  0  0  0.107163  0  0.973591  0  0  0.10748  0  0.973725  0  0.080745  0  0.119297  0.106843  0  0.973619  0
H  H41  1  0.81563937  0.33392344  0.66474011  1  0  0.086754  0  0.921407  0  0  0.107173  0  0.973577  0  0  0.107489  0  0.973713  0  0.080769  0  0.119311  0.106859  0  0.973608  0
H  H42  1  0.34523821  0.59759725  0.41488911  1  0  0.069345  0  0.954063  0  0  0.086101  0  1.019826  0  0  0.086031  0  1.020358  0  0.076358  0  0.108767  0.086056  0  1.019567  0
H  H43  1  0.65475846  0.40240668  0.58511210  1  0  0.069335  0  0.954049  0  0  0.086134  0  1.019791  0  0  0.086064  0  1.020322  0  0.076318  0  0.108779  0.086093  0  1.019536  0
H  H44  1  0.35967278  0.40152846  0.46379084  1  0  0.106026  0  0.978569  0  0  0.124166  0  1.0458  0  0  0.125549  0  1.045992  0  0.036007  0  0.091814  0.123117  0  1.045736  0
H  H45  1  0.64033109  0.59847945  0.53621296  1  0  0.106065  0  0.978572  0  0  0.124187  0  1.045805  0  0  0.12557  0  1.045995  0  0.03604  0  0.091815  0.123139  0  1.045739  0
H  H46  1  0.29657549  0.29642654  0.55059569  1  0  0.107692  0  0.945277  0  0  0.132595  0  1.001767  0  0  0.133666  0  1.001653  0  0.041558  0  0.094455  0.131653  0  1.002095  0
H  H47  1  0.70342938  0.70358038  0.44940898  1  0  0.107664  0  0.945366  0  0  0.132573  0  1.001825  0  0  0.133641  0  1.001715  0  0.041581  0  0.094427  0.131623  0  1.002163  0
H  H48  1  0.41713943  0.45738344  0.59056229  1  0  0.100537  0  0.965321  0  0  0.122936  0  1.028605  0  0  0.123734  0  1.028831  0  0.029268  0  0.091487  0.122093  0  1.028832  0
H  H49  1  0.58285594  0.54262546  0.40943946  1  0  0.100547  0  0.965188  0  0  0.122973  0  1.02845  0  0  0.123768  0  1.02868  0  0.029133  0  0.091498  0.122131  0  1.028674  0
H  H50  1  0.74058388  0.61968801  0.29725699  1  0  0.1173  0  0.956196  0  0  0.14107  0  1.014282  0  0  0.141815  0  1.015044  0  0.089424  0  0.09587  0.140524  0  1.013686  0
H  H51  1  0.25941380  0.38031493  0.70274224  1  0  0.117297  0  0.956151  0  0  0.141068  0  1.014233  0  0  0.14181  0  1.014994  0  0.089034  0  0.095862  0.140522  0  1.013636  0
H  H52  1  0.93315116  0.63364603  0.26735643  1  0  0.125918  0  0.942962  0  0  0.146724  0  1.000014  0  0  0.148655  0  0.99908  0  0.055202  0  0.098901  0.145311  0  1.000835  0
H  H53  1  0.06684753  0.36635591  0.73264366  1  0  0.125941  0  0.942933  0  0  0.146715  0  1.000034  0  0  0.148645  0  0.999102  0  0.055205  0  0.098901  0.145301  0  1.000857  0
H  H54  1  0.90351686  0.75843381  0.34574351  1  0  0.105238  0  0.934186  0  0  0.127274  0  0.994766  0  0  0.128283  0  0.994614  0  0.054679  0  0.092357  0.12647  0  0.995005  0
H  H55  1  0.09648284  0.24156714  0.65425673  1  0  0.105227  0  0.93426  0  0  0.127283  0  0.994812  0  0  0.128292  0  0.99466  0  0.054693  0  0.092356  0.126478  0  0.995051  0
C  C56  1  0.28301522  0.11964775  0.94052271  1  0  0.630318  0  3.948685  0  0  0.584032  0  4.233769  0  0  0.617481  0  4.229712  0  1.540163  0  0.192044  0.561101  0  4.235713  0
C  C57  1  0.71698524  0.88035120  0.05947267  1  0  0.630285  0  3.948879  0  0  0.584037  0  4.233894  0  0  0.617485  0  4.229837  0  1.540635  0  0.192043  0.561107  0  4.235837  0
C  C58  1  0.30181787  0.99701818  0.88866020  1  0  -0.051604  0  3.77049  0  0  -0.025204  0  4.004506  0  0  -0.033628  0  4.028021  0  0.027701  0  -0.01731  -0.020047  0  3.989742  0
C  C59  1  0.69816941  0.00297779  0.11133589  1  0  -0.051656  0  3.770435  0  0  -0.02527  0  4.004453  0  0  -0.033696  0  4.02797  0  0.027017  0  -0.01732  -0.020113  0  3.989687  0
C  C60  1  0.28641381  0.87553740  0.93247218  1  0  -0.067853  0  3.701265  0  0  -0.107108  0  3.952734  0  0  -0.105281  0  3.971941  0  -0.037356  0  -0.075921  -0.109089  0  3.941579  0
C  C61  1  0.71357443  0.12446254  0.06752197  1  0  -0.067714  0  3.701159  0  0  -0.106989  0  3.952596  0  0  -0.105153  0  3.971794  0  -0.037753  0  -0.075856  -0.108967  0  3.941442  0
C  C62  1  0.31490390  0.76404427  0.88633544  1  0  -0.071773  0  3.810465  0  0  -0.04651  0  4.052167  0  0  -0.055544  0  4.076092  0  -0.02687  0  -0.021325  -0.040791  0  4.03688  0
C  C63  1  0.68509033  0.23595469  0.11366250  1  0  -0.071953  0  3.810805  0  0  -0.046606  0  4.052407  0  0  -0.05564  0  4.076327  0  -0.026834  0  -0.021366  -0.040886  0  4.037116  0
C  C64  1  0.30181765  0.63349386  0.93154448  1  0  0.653966  0  3.898591  0  0  0.59896  0  4.188321  0  0  0.634077  0  4.18193  0  1.522755  0  0.204941  0.574685  0  4.192232  0
C  C65  1  0.69817557  0.36650609  0.06845259  1  0  0.654007  0  3.898711  0  0  0.598968  0  4.188449  0  0  0.634085  0  4.182058  0  1.522844  0  0.205006  0.574692  0  4.19236  0
C  C66  1  0.35542772  0.77334266  0.79601341  1  0  -0.10642  0  3.700222  0  0  -0.142248  0  3.94692  0  0  -0.141472  0  3.966175  0  -0.054199  0  -0.084411  -0.141664  0  3.933438  0
C  C67  1  0.64456977  0.22665431  0.20398361  1  0  -0.106439  0  3.700375  0  0  -0.142296  0  3.947079  0  0  -0.141504  0  3.966342  0  -0.052334  0  -0.084422  -0.141711  0  3.933596  0
C  C68  1  0.36265672  0.89247621  0.74855113  1  0  0.031605  0  3.682675  0  0  0.057007  0  3.906743  0  0  0.054627  0  3.931446  0  0.016552  0  -0.00673  0.058251  0  3.889597  0
C  C69  1  0.63733953  0.10752076  0.25144711  1  0  0.03154  0  3.682616  0  0  0.056904  0  3.906761  0  0  0.054525  0  3.931456  0  0.016695  0  -0.006794  0.058147  0  3.889615  0
C  C70  1  0.33731508  0.00411460  0.79711825  1  0  -0.10253  0  3.689981  0  0  -0.135775  0  3.93031  0  0  -0.135001  0  3.949836  0  -0.105127  0  -0.082755  -0.13519  0  3.916661  0
C  C71  1  0.66267719  0.99588137  0.20287722  1  0  -0.102458  0  3.689831  0  0  -0.135698  0  3.93017  0  0  -0.134925  0  3.949699  0  -0.104964  0  -0.082735  -0.135114  0  3.916523  0
C  C72  1  0.39405420  0.90265281  0.64652545  1  0  0.20539  0  3.592275  0  0  0.24353  0  3.807311  0  0  0.244187  0  3.827792  0  0.064216  0  -0.012046  0.24301  0  3.79354  0
C  C73  1  0.60594679  0.09734316  0.35347212  1  0  0.2054  0  3.59244  0  0  0.243553  0  3.807445  0  0  0.244199  0  3.82796  0  0.064003  0  -0.012035  0.243034  0  3.793669  0
C  C74  1  0.46688787  0.78459839  0.61886460  1  0  -0.338948  0  3.664213  0  0  -0.416796  0  3.898117  0  0  -0.4197  0  3.908789  0  -0.050904  0  -0.247001  -0.414551  0  3.890676  0
C  C75  1  0.53311662  0.21539659  0.38113494  1  0  -0.339004  0  3.66434  0  0  -0.416847  0  3.898237  0  0  -0.419744  0  3.90891  0  -0.050295  0  -0.247024  -0.4146  0  3.890795  0
C  C76  1  0.22291754  0.90472752  0.56951337  1  0  -0.338124  0  3.66895  0  0  -0.413918  0  3.898099  0  0  -0.417522  0  3.909158  0  -0.092377  0  -0.241627  -0.411193  0  3.89053  0
C  C77  1  0.77708571  0.09526745  0.43048313  1  0  -0.338152  0  3.669031  0  0  -0.413924  0  3.898152  0  0  -0.417526  0  3.909211  0  -0.092581  0  -0.241638  -0.411195  0  3.890586  0
C  C78  1  0.52065418  0.03154132  0.64477849  1  0  -0.340382  0  3.670708  0  0  -0.4214  0  3.905044  0  0  -0.42463  0  3.915789  0  -0.043909  0  -0.242862  -0.418877  0  3.89749  0
C  C79  1  0.47934729  0.96845664  0.35522059  1  0  -0.340382  0  3.670837  0  0  -0.421393  0  3.905166  0  0  -0.424617  0  3.91591  0  -0.043865  0  -0.24285  -0.418852  0  3.89762  0
C  C80  1  0.13933689  0.29461539  0.19163436  1  0  0.009833  0  3.775161  0  0  -0.028755  0  4.049854  0  0  -0.025171  0  4.068753  0  0.306551  0  -0.003133  -0.031248  0  4.036873  0
C  C81  1  0.86066803  0.70538654  0.80836885  1  0  0.009622  0  3.775284  0  0  -0.028986  0  4.050028  0  0  -0.025402  0  4.068927  0  0.306571  0  -0.003231  -0.031478  0  4.037048  0
C  C82  1  0.10797457  0.34681925  0.27349091  1  0  -0.068848  0  3.697461  0  0  -0.109135  0  3.958181  0  0  -0.108461  0  3.977536  0  0.341442  0  -0.005116  -0.109602  0  3.945349  0
C  C83  1  0.89202411  0.65318269  0.72651060  1  0  -0.068732  0  3.697407  0  0  -0.109039  0  3.95809  0  0  -0.108364  0  3.977445  0  0.341169  0  -0.005048  -0.109508  0  3.945258  0
C  C84  1  0.28432947  0.49893129  0.21932434  1  0  0.380962  0  3.682898  0  0  0.356067  0  3.949476  0  0  0.372578  0  3.964098  0  0.979706  0  0.2183  0.345072  0  3.939122  0
C  C85  1  0.71567920  0.50107065  0.78068089  1  0  0.380862  0  3.683089  0  0  0.355988  0  3.949582  0  0  0.372499  0  3.964204  0  0.980206  0  0.218303  0.344997  0  3.93922  0
C  C86  1  0.39090898  0.62855773  0.21200503  1  0  -0.400907  0  3.706409  0  0  -0.485747  0  3.953884  0  0  -0.489408  0  3.958181  0  -0.061058  0  -0.236662  -0.482958  0  3.950759  0
C  C87  1  0.60910116  0.37144520  0.78799760  1  0  -0.400815  0  3.706323  0  0  -0.48566  0  3.953815  0  0  -0.48931  0  3.958125  0  -0.061584  0  -0.236547  -0.482862  0  3.950697  0
C  C88  1  0.21271993  0.57420855  0.36958334  1  0  -0.01832  0  3.665792  0  0  -0.084785  0  3.914595  0  0  -0.079584  0  3.925468  0  0.251133  0  -0.047088  -0.088181  0  3.907227  0
C  C89  1  0.78727752  0.42579338  0.63041727  1  0  -0.018191  0  3.665675  0  0  -0.084801  0  3.914583  0  0  -0.079601  0  3.925457  0  0.251167  0  -0.047098  -0.088225  0  3.907252  0
C  C90  1  0.09841693  0.53043681  0.43440602  1  0  -0.043693  0  3.725441  0  0  -0.037899  0  3.975862  0  0  -0.03981  0  3.999667  0  -0.030687  0  -0.019028  -0.036669  0  3.959807  0
C  C91  1  0.90158123  0.46956812  0.56559472  1  0  -0.043697  0  3.72559  0  0  -0.037877  0  3.976016  0  0  -0.039789  0  3.999822  0  -0.030643  0  -0.018968  -0.036641  0  3.959966  0
C  C92  1  0.15351932  0.45376414  0.51501952  1  0  0.037014  0  3.731968  0  0  0.04865  0  3.98158  0  0  0.047922  0  4.005926  0  0.023362  0  -0.017635  0.04902  0  3.965101  0
C  C93  1  0.84647836  0.54623879  0.48498041  1  0  0.037033  0  3.731854  0  0  0.048632  0  3.981559  0  0  0.047905  0  4.005902  0  0.023091  0  -0.017661  0.049004  0  3.965075  0
C  C94  1  0.31496242  0.40016787  0.53007871  1  0  -0.333597  0  3.745218  0  0  -0.417149  0  3.987248  0  0  -0.418657  0  3.996788  0  -0.082999  0  -0.241189  -0.415613  0  3.980865  0
C  C95  1  0.68503871  0.59983905  0.46992395  1  0  -0.333615  0  3.745197  0  0  -0.417165  0  3.987279  0  0  -0.418671  0  3.996821  0  -0.082705  0  -0.24115  -0.415627  0  3.980899  0
C  C96  1  0.94320979  0.57472972  0.41719981  1  0  0.049854  0  3.718871  0  0  0.059733  0  3.969051  0  0  0.059036  0  3.993986  0  -0.020988  0  -0.013271  0.060254  0  3.952141  0
C  C97  1  0.05678540  0.42527322  0.58279831  1  0  0.04978  0  3.719093  0  0  0.059723  0  3.969138  0  0  0.059026  0  3.994073  0  -0.021051  0  -0.013296  0.060245  0  3.952226  0
C  C98  1  0.87822902  0.65015219  0.32788412  1  0  -0.328977  0  3.713777  0  0  -0.408104  0  3.950982  0  0  -0.409883  0  3.960906  0  -0.123745  0  -0.239605  -0.406647  0  3.944142  0
C  C99  1  0.12176818  0.34984876  0.67211289  1  0  -0.32898  0  3.713695  0  0  -0.408131  0  3.950918  0  0  -0.409906  0  3.96084  0  -0.123307  0  -0.239599  -0.406674  0  3.944077  0
N  N100  1  0.24863063  0.38965210  0.15898436  1  0  -0.44816  0  3.237034  0  0  -0.374071  0  3.519415  0  0  -0.397719  0  3.5353  0  -1.210595  0  -0.360485  -0.357166  0  3.507543  0
N  N101  1  0.75138028  0.61034884  0.84102193  1  0  -0.448113  0  3.237291  0  0  -0.374036  0  3.519664  0  0  -0.397683  0  3.535551  0  -1.210528  0  -0.360504  -0.35713  0  3.50779  0
N  N102  1  0.20057448  0.47551574  0.29027616  1  0  -0.119621  0  3.513494  0  0  -0.026549  0  3.726971  0  0  -0.042228  0  3.751709  0  -1.20825  0  -0.24446  -0.016179  0  3.710291  0
N  N103  1  0.79942647  0.52448520  0.70972428  1  0  -0.119646  0  3.513542  0  0  -0.026455  0  3.726914  0  0  -0.042133  0  3.751654  0  -1.208613  0  -0.244489  -0.016076  0  3.710239  0
O  O104  1  0.34764127  0.23153673  0.91253372  1  0  -0.647856  0  1.986022  0  0  -0.577118  0  2.22658  0  0  -0.6088  0  2.219279  0  -1.145542  0  -0.336586  -0.553527  0  2.232103  0
O  O105  1  0.65235449  0.76845824  0.08745946  1  0  -0.647844  0  1.985945  0  0  -0.577092  0  2.22646  0  0  -0.608774  0  2.21916  0  -1.145578  0  -0.336569  -0.553504  0  2.231984  0
O  O106  1  0.20699531  0.10893804  0.00733590  1  0  -0.64796  0  1.900688  0  0  -0.596146  0  2.114154  0  0  -0.620393  0  2.1045  0  -1.17072  0  -0.338586  -0.578186  0  2.119749  0
O  O107  1  0.79300985  0.89106489  0.99266807  1  0  -0.64787  0  1.900937  0  0  -0.596094  0  2.114421  0  0  -0.620338  0  2.104764  0  -1.17082  0  -0.338576  -0.578135  0  2.120015  0
O  O108  1  0.20437975  0.60420528  0.98680858  1  0  -0.629586  0  2.004376  0  0  -0.556292  0  2.230658  0  0  -0.585725  0  2.222632  0  -1.169383  0  -0.305735  -0.534789  0  2.235208  0
O  O109  1  0.79561846  0.39579467  0.01319142  1  0  -0.629595  0  2.004453  0  0  -0.556256  0  2.230706  0  0  -0.58569  0  2.222681  0  -1.169435  0  -0.305707  -0.53475  0  2.235248  0
O  O110  1  0.38984898  0.55041805  0.91223166  1  0  -0.67594  0  2.016922  0  0  -0.601009  0  2.2716  0  0  -0.631986  0  2.260157  0  -1.170095  0  -0.332788  -0.577928  0  2.280488  0
O  O111  1  0.61014449  0.44958290  0.08776546  1  0  -0.67594  0  2.016942  0  0  -0.601007  0  2.271624  0  0  -0.631985  0  2.260183  0  -1.170168  0  -0.332838  -0.577928  0  2.280513  0
O  O112  1  0.99498437  0.28915014  0.92716653  1  0  -0.835747  0  1.809652  0  0  -0.779818  0  1.98547  0  0  -0.800998  0  1.95349  0  -1.276631  0  -0.593787  -0.764853  0  2.008522  0
O  O113  1  0.00501979  0.71085379  0.07283729  1  0  -0.835576  0  1.809728  0  0  -0.779662  0  1.985539  0  0  -0.800837  0  1.953569  0  -1.276536  0  -0.593729  -0.76471  0  2.008561  0
