# generated using pymatgen
data_BaH9C7NO7
_symmetry_space_group_name_H-M   'P 1'
_cell_length_a   6.57768823
_cell_length_b   11.10431226
_cell_length_c   13.58272199
_cell_angle_alpha   90.00014628
_cell_angle_beta   89.99999097
_cell_angle_gamma   93.99185564
_symmetry_Int_Tables_number   1
_chemical_formula_structural   BaH9C7NO7
_chemical_formula_sum   'Ba4 H36 C28 N4 O28'
_cell_volume   989.68471844
_cell_formula_units_Z   4
loop_
 _symmetry_equiv_pos_site_id
 _symmetry_equiv_pos_as_xyz
  1  'x, y, z'
loop_
 _atom_site_type_symbol
 _atom_site_label
 _atom_site_symmetry_multiplicity
 _atom_site_fract_x
 _atom_site_fract_y
 _atom_site_fract_z
 _atom_site_occupancy
 _atom_site_hle17_bader_spin_density
 _atom_site_hle17_ddec_charge
 _atom_site_hle17_ddec_spin_density
 _atom_site_hle17_ddec_sum_bond_order
 _atom_site_hle17_magmom
 _atom_site_hse06_10hf_bader_spin_density
 _atom_site_hse06_10hf_ddec_charge
 _atom_site_hse06_10hf_ddec_spin_density
 _atom_site_hse06_10hf_ddec_sum_bond_order
 _atom_site_hse06_10hf_magmom
 _atom_site_hse06_bader_spin_density
 _atom_site_hse06_ddec_charge
 _atom_site_hse06_ddec_spin_density
 _atom_site_hse06_ddec_sum_bond_order
 _atom_site_hse06_magmom
 _atom_site_pbe_bader_spin_density
 _atom_site_pbe_cm5_charge
 _atom_site_pbe_ddec_charge
 _atom_site_pbe_ddec_spin_density
 _atom_site_pbe_ddec_sum_bond_order
 _atom_site_pbe_magmom
Ba  Ba0  1  0.07625330  0.07166495  0.63688420  1  0  1.629355  0  1.130684  0  0  1.477391  0  1.524368  0  0  1.517721  0  1.48113  0  0  0.91427  1.447689  0  1.555166  0
Ba  Ba1  1  0.42374414  0.92833604  0.13688368  1  0  1.629348  0  1.13069  0  0  1.477364  0  1.524427  0  0  1.517693  0  1.481182  0  0  0.914253  1.447658  0  1.555219  0
Ba  Ba2  1  0.92374513  0.92833493  0.36311666  1  0  1.629349  0  1.1307  0  0  1.477384  0  1.524392  0  0  1.517716  0  1.481151  0  0  0.914264  1.447679  0  1.555187  0
Ba  Ba3  1  0.57625440  0.07166474  0.86311645  1  0  1.629341  0  1.13072  0  0  1.477371  0  1.524423  0  0  1.517699  0  1.481183  0  0  0.914256  1.447662  0  1.555217  0
H  H4  1  0.94963404  0.77877301  0.58533338  1  0  0.421883  0  0.88057  0  0  0.392464  0  0.942515  0  0  0.402723  0  0.927372  0  0  0.30202  0.385211  0  0.953209  0
H  H5  1  0.55036569  0.22122760  0.08533362  1  0  0.421877  0  0.880576  0  0  0.392458  0  0.942519  0  0  0.402718  0  0.927376  0  0  0.30202  0.385204  0  0.953215  0
H  H6  1  0.05036590  0.22122687  0.41466674  1  0  0.421871  0  0.880589  0  0  0.392453  0  0.942532  0  0  0.402712  0  0.927388  0  0  0.30201  0.3852  0  0.953226  0
H  H7  1  0.44963437  0.77877319  0.91466576  1  0  0.421887  0  0.880564  0  0  0.392469  0  0.942507  0  0  0.402729  0  0.927363  0  0  0.302022  0.385215  0  0.953203  0
H  H8  1  0.73249500  0.47170677  0.65430157  1  0  0.118549  0  0.955074  0  0  0.124741  0  1.022161  0  0  0.128756  0  1.019767  0  0  0.111417  0.121797  0  1.024074  0
H  H9  1  0.76750322  0.52829405  0.15430023  1  0  0.118584  0  0.95509  0  0  0.124769  0  1.022187  0  0  0.128785  0  1.019792  0  0  0.111415  0.121825  0  1.024101  0
H  H10  1  0.26750473  0.52829131  0.34570003  1  0  0.118585  0  0.955053  0  0  0.124741  0  1.022178  0  0  0.128758  0  1.019781  0  0  0.11142  0.121797  0  1.024095  0
H  H11  1  0.23249695  0.47170763  0.84569916  1  0  0.118618  0  0.955037  0  0  0.124756  0  1.022182  0  0  0.128772  0  1.019787  0  0  0.111414  0.121814  0  1.024093  0
H  H12  1  0.00154840  0.39851788  0.58829634  1  0  0.079761  0  0.970586  0  0  0.08505  0  1.039881  0  0  0.088639  0  1.036691  0  0  0.115708  0.082344  0  1.042414  0
H  H13  1  0.49845197  0.60148206  0.08829661  1  0  0.079736  0  0.970652  0  0  0.085041  0  1.039931  0  0  0.088625  0  1.036742  0  0  0.115685  0.082336  0  1.042466  0
H  H14  1  0.99845307  0.60148200  0.41170157  1  0  0.079726  0  0.970668  0  0  0.085024  0  1.039945  0  0  0.088611  0  1.036756  0  0  0.11568  0.082317  0  1.042479  0
H  H15  1  0.50155102  0.39851782  0.91170278  1  0  0.079739  0  0.970647  0  0  0.085039  0  1.039928  0  0  0.088625  0  1.036738  0  0  0.115682  0.082332  0  1.042461  0
H  H16  1  0.15262955  0.61183225  0.58912776  1  0  0.102481  0  0.969501  0  0  0.111632  0  1.034682  0  0  0.115474  0  1.031934  0  0  0.110808  0.108805  0  1.036803  0
H  H17  1  0.34736930  0.38816769  0.08912980  1  0  0.102468  0  0.969493  0  0  0.111625  0  1.034672  0  0  0.115468  0  1.031923  0  0  0.110816  0.1088  0  1.03679  0
H  H18  1  0.84737192  0.38816762  0.41086942  1  0  0.102448  0  0.969492  0  0  0.111603  0  1.034674  0  0  0.115445  0  1.031927  0  0  0.110808  0.108775  0  1.036797  0
H  H19  1  0.65263206  0.61183129  0.91087179  1  0  0.102459  0  0.96949  0  0  0.111612  0  1.034673  0  0  0.115454  0  1.031925  0  0  0.1108  0.108786  0  1.036793  0
H  H20  1  0.38023266  0.96704311  0.42351330  1  0  0.418212  0  0.886849  0  0  0.391032  0  0.946529  0  0  0.401773  0  0.930758  0  0  0.306435  0.38341  0  0.95771  0
H  H21  1  0.11976761  0.03295697  0.92351448  1  0  0.418238  0  0.886816  0  0  0.391059  0  0.94649  0  0  0.4018  0  0.93072  0  0  0.306447  0.383439  0  0.957669  0
H  H22  1  0.61976588  0.03295767  0.57648534  1  0  0.418203  0  0.886849  0  0  0.391021  0  0.946543  0  0  0.401762  0  0.930771  0  0  0.306428  0.383398  0  0.957725  0
H  H23  1  0.88023234  0.96704291  0.07648564  1  0  0.418233  0  0.886818  0  0  0.391055  0  0.946497  0  0  0.401795  0  0.930727  0  0  0.306443  0.383434  0  0.957675  0
H  H24  1  0.37809959  0.10474292  0.44140794  1  0  0.412376  0  0.895589  0  0  0.382105  0  0.958676  0  0  0.393337  0  0.942294  0  0  0.30057  0.37411  0  0.970321  0
H  H25  1  0.12190069  0.89525723  0.94140722  1  0  0.412397  0  0.895562  0  0  0.382127  0  0.958644  0  0  0.393359  0  0.942263  0  0  0.300578  0.374132  0  0.970289  0
H  H26  1  0.62190036  0.89525696  0.55859145  1  0  0.412394  0  0.895564  0  0  0.382126  0  0.958645  0  0  0.393358  0  0.942263  0  0  0.300579  0.374131  0  0.97029  0
H  H27  1  0.87809937  0.10474356  0.05859290  1  0  0.412403  0  0.895619  0  0  0.382133  0  0.958649  0  0  0.393365  0  0.942268  0  0  0.300583  0.374139  0  0.970293  0
H  H28  1  0.88930135  0.86788862  0.81092890  1  0  0.412975  0  0.894748  0  0  0.386202  0  0.951565  0  0  0.396209  0  0.937  0  0  0.303537  0.379151  0  0.961822  0
H  H29  1  0.61069818  0.13211089  0.31092969  1  0  0.412959  0  0.894774  0  0  0.386188  0  0.951586  0  0  0.396196  0  0.937021  0  0  0.30353  0.379137  0  0.961844  0
H  H30  1  0.11069697  0.13211036  0.18907122  1  0  0.412985  0  0.894731  0  0  0.386212  0  0.951547  0  0  0.39622  0  0.936983  0  0  0.303548  0.379161  0  0.961806  0
H  H31  1  0.38930329  0.86788899  0.68906969  1  0  0.412966  0  0.894754  0  0  0.386195  0  0.95157  0  0  0.396203  0  0.937005  0  0  0.303524  0.379145  0  0.961827  0
H  H32  1  0.18654404  0.79569415  0.55883358  1  0  0.427622  0  0.870117  0  0  0.396056  0  0.935075  0  0  0.406865  0  0.919101  0  0  0.302784  0.388362  0  0.946437  0
H  H33  1  0.31345339  0.20430660  0.05883451  1  0  0.427585  0  0.870157  0  0  0.396018  0  0.93512  0  0  0.406825  0  0.919148  0  0  0.302771  0.388324  0  0.94648  0
H  H34  1  0.81345438  0.20430573  0.44116507  1  0  0.427619  0  0.870116  0  0  0.396049  0  0.935083  0  0  0.406857  0  0.91911  0  0  0.302788  0.388354  0  0.946445  0
H  H35  1  0.68654667  0.79569418  0.94116488  1  0  0.427618  0  0.870113  0  0  0.396052  0  0.935072  0  0  0.40686  0  0.919099  0  0  0.302783  0.388358  0  0.946432  0
H  H36  1  0.77813973  0.83789968  0.71299637  1  0  0.411059  0  0.899693  0  0  0.380008  0  0.964625  0  0  0.391147  0  0.948225  0  0  0.29746  0.372033  0  0.976375  0
H  H37  1  0.72185827  0.16209952  0.21299721  1  0  0.411046  0  0.899712  0  0  0.379989  0  0.964655  0  0  0.391128  0  0.948256  0  0  0.297454  0.372013  0  0.976407  0
H  H38  1  0.22186011  0.16209929  0.28700375  1  0  0.411073  0  0.899675  0  0  0.38002  0  0.96461  0  0  0.39116  0  0.948208  0  0  0.297466  0.372046  0  0.976359  0
H  H39  1  0.27814016  0.83790036  0.78700217  1  0  0.411043  0  0.899719  0  0  0.379985  0  0.964666  0  0  0.391124  0  0.948266  0  0  0.297447  0.372008  0  0.976419  0
C  C40  1  0.57056448  0.45935753  0.63813102  1  0  -0.111192  0  3.673962  0  0  -0.144515  0  3.919957  0  0  -0.147407  0  3.940613  0  0  -0.06825  -0.142515  0  3.906303  0
C  C41  1  0.92943222  0.54064324  0.13812969  1  0  -0.111262  0  3.674061  0  0  -0.144589  0  3.920083  0  0  -0.147483  0  3.940741  0  0  -0.068267  -0.142589  0  3.906429  0
C  C42  1  0.42943536  0.54064145  0.36186984  1  0  -0.111268  0  3.674029  0  0  -0.144559  0  3.920062  0  0  -0.147451  0  3.940715  0  0  -0.068253  -0.142561  0  3.906409  0
C  C43  1  0.07056762  0.45935574  0.86186970  1  0  -0.111344  0  3.674134  0  0  -0.144632  0  3.92016  0  0  -0.147525  0  3.940816  0  0  -0.068303  -0.142633  0  3.906507  0
C  C44  1  0.47405129  0.34340620  0.63368334  1  0  0.102816  0  3.736576  0  0  0.10974  0  3.984825  0  0  0.109558  0  4.002919  0  0  0.121147  0.109638  0  3.972716  0
C  C45  1  0.02594614  0.65659478  0.13368081  1  0  0.102838  0  3.736641  0  0  0.109756  0  3.984884  0  0  0.109571  0  4.002979  0  0  0.12117  0.109654  0  3.972773  0
C  C46  1  0.52594876  0.65659458  0.36631825  1  0  0.102816  0  3.736601  0  0  0.10975  0  3.984855  0  0  0.109569  0  4.00295  0  0  0.121161  0.10965  0  3.972748  0
C  C47  1  0.97405381  0.34340509  0.86631857  1  0  0.102875  0  3.736685  0  0  0.109787  0  3.984926  0  0  0.109604  0  4.003023  0  0  0.121185  0.109686  0  3.972815  0
C  C48  1  0.16402845  0.41920961  0.60081815  1  0  0.122954  0  3.709918  0  0  0.098451  0  3.971049  0  0  0.102026  0  3.988167  0  0  0.051094  0.09611  0  3.959404  0
C  C49  1  0.33597040  0.58079037  0.10081838  1  0  0.12291  0  3.709982  0  0  0.098377  0  3.971148  0  0  0.101956  0  3.988263  0  0  0.051122  0.096034  0  3.959506  0
C  C50  1  0.83596998  0.58079027  0.39918124  1  0  0.122959  0  3.709929  0  0  0.09845  0  3.971071  0  0  0.102028  0  3.988187  0  0  0.051181  0.09611  0  3.959423  0
C  C51  1  0.66403107  0.41920951  0.89918174  1  0  0.122885  0  3.709941  0  0  0.098364  0  3.971096  0  0  0.101942  0  3.98821  0  0  0.051127  0.096022  0  3.95945  0
C  C52  1  0.59460103  0.23376654  0.64844020  1  0  0.629486  0  3.928205  0  0  0.577312  0  4.227412  0  0  0.611171  0  4.217946  0  0  0.223901  0.554385  0  4.233046  0
C  C53  1  0.90539708  0.76623336  0.14843861  1  0  0.629459  0  3.928265  0  0  0.577309  0  4.227434  0  0  0.611172  0  4.217968  0  0  0.223907  0.554388  0  4.233061  0
C  C54  1  0.40539718  0.76623154  0.35156065  1  0  0.62952  0  3.928087  0  0  0.577312  0  4.227363  0  0  0.611171  0  4.217896  0  0  0.223907  0.554376  0  4.23301  0
C  C55  1  0.09460450  0.23376742  0.85156151  1  0  0.629435  0  3.928255  0  0  0.577291  0  4.227425  0  0  0.611152  0  4.217961  0  0  0.223946  0.554364  0  4.233057  0
C  C56  1  0.55891829  0.68470616  0.62095944  1  0  0.666006  0  3.864294  0  0  0.607483  0  4.166125  0  0  0.640967  0  4.157886  0  0  0.225077  0.584907  0  4.170822  0
C  C57  1  0.94108145  0.31529455  0.12096132  1  0  0.665963  0  3.864286  0  0  0.607445  0  4.166127  0  0  0.640928  0  4.157891  0  0  0.225062  0.584868  0  4.170823  0
C  C58  1  0.44108329  0.31529462  0.37903995  1  0  0.665937  0  3.86438  0  0  0.607427  0  4.166213  0  0  0.640912  0  4.157975  0  0  0.225053  0.584851  0  4.170911  0
C  C59  1  0.05891861  0.68470623  0.87903880  1  0  0.665954  0  3.864297  0  0  0.607427  0  4.166142  0  0  0.640912  0  4.157904  0  0  0.225041  0.58485  0  4.170839  0
C  C60  1  0.45700988  0.55903132  0.62105723  1  0  -0.020121  0  3.730073  0  0  -0.000458  0  3.96873  0  0  -0.004359  0  3.98942  0  0  -0.001345  0.002065  0  3.954696  0
C  C61  1  0.04298907  0.44096963  0.12105867  1  0  -0.020116  0  3.730082  0  0  -0.000476  0  3.968784  0  0  -0.004377  0  3.989475  0  0  -0.00135  0.002048  0  3.954751  0
C  C62  1  0.54299028  0.44097037  0.37894216  1  0  -0.020073  0  3.730088  0  0  -0.000454  0  3.968803  0  0  -0.004355  0  3.989494  0  0  -0.00136  0.00207  0  3.954768  0
C  C63  1  0.95701229  0.55902935  0.87894219  1  0  -0.020098  0  3.730095  0  0  -0.000438  0  3.968763  0  0  -0.004339  0  3.989454  0  0  -0.001329  0.002085  0  3.954731  0
C  C64  1  0.24882413  0.53779441  0.60219060  1  0  -0.102006  0  3.689592  0  0  -0.128939  0  3.940493  0  0  -0.13174  0  3.959836  0  0  -0.073628  -0.12694  0  3.927442  0
C  C65  1  0.25117472  0.46220558  0.10219206  1  0  -0.101918  0  3.689513  0  0  -0.128847  0  3.940442  0  0  -0.13165  0  3.959786  0  0  -0.073638  -0.126851  0  3.927392  0
C  C66  1  0.75117560  0.46220367  0.39780731  1  0  -0.101943  0  3.689473  0  0  -0.128871  0  3.940403  0  0  -0.131674  0  3.959746  0  0  -0.073656  -0.126872  0  3.927354  0
C  C67  1  0.74882534  0.53779521  0.89780879  1  0  -0.101903  0  3.689446  0  0  -0.128833  0  3.940365  0  0  -0.131634  0  3.959707  0  0  -0.073631  -0.126836  0  3.927315  0
N  N68  1  0.27313101  0.32325271  0.61592547  1  0  -0.345958  0  3.127858  0  0  -0.304522  0  3.38924  0  0  -0.314711  0  3.406103  0  0  -0.332683  -0.297265  0  3.377707  0
N  N69  1  0.22686469  0.67674642  0.11592370  1  0  -0.345921  0  3.127913  0  0  -0.304458  0  3.389283  0  0  -0.314649  0  3.406148  0  0  -0.332672  -0.297195  0  3.377728  0
N  N70  1  0.72686873  0.67674537  0.38407465  1  0  -0.345942  0  3.127899  0  0  -0.304499  0  3.389284  0  0  -0.314688  0  3.406142  0  0  -0.332709  -0.297242  0  3.377743  0
N  N71  1  0.77313373  0.32325346  0.88407642  1  0  -0.345925  0  3.127897  0  0  -0.30447  0  3.389277  0  0  -0.31466  0  3.406138  0  0  -0.332692  -0.297208  0  3.377726  0
O  O72  1  0.05401703  0.83110428  0.55038760  1  0  -0.896556  0  1.863808  0  0  -0.838646  0  2.051091  0  0  -0.859694  0  2.021225  0  0  -0.628052  -0.823612  0  2.072008  0
O  O73  1  0.44598203  0.16889734  0.05038844  1  0  -0.89653  0  1.863843  0  0  -0.838613  0  2.051125  0  0  -0.859663  0  2.021259  0  0  -0.628048  -0.82358  0  2.072039  0
O  O74  1  0.94598302  0.16889650  0.44961252  1  0  -0.896558  0  1.863843  0  0  -0.838634  0  2.051097  0  0  -0.859684  0  2.02123  0  0  -0.628048  -0.823599  0  2.072013  0
O  O75  1  0.55401814  0.83110434  0.94961095  1  0  -0.89657  0  1.863802  0  0  -0.838658  0  2.051088  0  0  -0.859708  0  2.021221  0  0  -0.628054  -0.823624  0  2.072002  0
O  O76  1  0.82293114  0.90766910  0.75556596  1  0  -0.896389  0  1.876559  0  0  -0.838427  0  2.061888  0  0  -0.858881  0  2.030668  0  0  -0.63508  -0.823842  0  2.083878  0
O  O77  1  0.67706850  0.09233113  0.25556666  1  0  -0.896373  0  1.876585  0  0  -0.8384  0  2.061903  0  0  -0.858854  0  2.030684  0  0  -0.635079  -0.823814  0  2.083893  0
O  O78  1  0.17706881  0.09233078  0.24443416  1  0  -0.896406  0  1.876534  0  0  -0.838449  0  2.061878  0  0  -0.858904  0  2.030656  0  0  -0.635093  -0.823865  0  2.083866  0
O  O79  1  0.32293156  0.90766965  0.74443346  1  0  -0.896366  0  1.876573  0  0  -0.838393  0  2.061878  0  0  -0.858847  0  2.030659  0  0  -0.63505  -0.823808  0  2.083867  0
O  O80  1  0.29739838  0.02751230  0.45559132  1  0  -0.88809  0  1.853764  0  0  -0.826016  0  2.035811  0  0  -0.8475  0  2.005663  0  0  -0.630306  -0.810691  0  2.056988  0
O  O81  1  0.20260341  0.97248788  0.95559150  1  0  -0.88813  0  1.853732  0  0  -0.826053  0  2.035777  0  0  -0.847538  0  2.00563  0  0  -0.630321  -0.810727  0  2.056954  0
O  O82  1  0.70260167  0.97248848  0.54440806  1  0  -0.888109  0  1.853785  0  0  -0.826012  0  2.035798  0  0  -0.847497  0  2.00565  0  0  -0.630306  -0.810688  0  2.056973  0
O  O83  1  0.79739664  0.02751290  0.04440862  1  0  -0.888146  0  1.853809  0  0  -0.82606  0  2.035792  0  0  -0.847544  0  2.005646  0  0  -0.630328  -0.810733  0  2.056969  0
O  O84  1  0.49345296  0.13080857  0.65708785  1  0  -0.751345  0  2.0626  0  0  -0.681163  0  2.302897  0  0  -0.708424  0  2.2931  0  0  -0.379957  -0.661809  0  2.308937  0
O  O85  1  0.00654436  0.86919159  0.15708724  1  0  -0.751326  0  2.062649  0  0  -0.681166  0  2.302974  0  0  -0.708423  0  2.29316  0  0  -0.379931  -0.661815  0  2.309013  0
O  O86  1  0.50654231  0.86919041  0.34291227  1  0  -0.751323  0  2.062524  0  0  -0.681151  0  2.302888  0  0  -0.708405  0  2.293074  0  0  -0.379949  -0.6618  0  2.308946  0
O  O87  1  0.99345558  0.13080829  0.84291362  1  0  -0.751285  0  2.062617  0  0  -0.681129  0  2.302935  0  0  -0.708384  0  2.293123  0  0  -0.379929  -0.661787  0  2.309009  0
O  O88  1  0.78593049  0.24827885  0.65226198  1  0  -0.648756  0  1.979281  0  0  -0.596688  0  2.221776  0  0  -0.622046  0  2.214887  0  0  -0.330988  -0.578869  0  2.225991  0
O  O89  1  0.71406599  0.75172016  0.15225816  1  0  -0.648746  0  1.979235  0  0  -0.596685  0  2.221737  0  0  -0.62203  0  2.214818  0  0  -0.331016  -0.57887  0  2.22595  0
O  O90  1  0.21406621  0.75171922  0.34774256  1  0  -0.648799  0  1.979244  0  0  -0.596687  0  2.221711  0  0  -0.62206  0  2.214854  0  0  -0.331006  -0.578866  0  2.225932  0
O  O91  1  0.28593548  0.24827972  0.84774196  1  0  -0.648771  0  1.979265  0  0  -0.596705  0  2.221742  0  0  -0.622059  0  2.214845  0  0  -0.331055  -0.578887  0  2.225957  0
O  O92  1  0.74243865  0.69872678  0.64974160  1  0  -0.630684  0  1.958832  0  0  -0.570075  0  2.175561  0  0  -0.594563  0  2.165605  0  0  -0.307407  -0.55298  0  2.181918  0
O  O93  1  0.75756098  0.30127312  0.14974347  1  0  -0.63067  0  1.95883  0  0  -0.57005  0  2.175543  0  0  -0.594536  0  2.165589  0  0  -0.307404  -0.552953  0  2.1819  0
O  O94  1  0.25756423  0.30127220  0.35025705  1  0  -0.630669  0  1.958914  0  0  -0.57005  0  2.175619  0  0  -0.594539  0  2.165665  0  0  -0.307392  -0.552954  0  2.181978  0
O  O95  1  0.24243908  0.69872766  0.85025665  1  0  -0.630663  0  1.958807  0  0  -0.570046  0  2.175532  0  0  -0.594534  0  2.165576  0  0  -0.307399  -0.55295  0  2.181891  0
O  O96  1  0.45432404  0.77115913  0.59143084  1  0  -0.664422  0  2.022042  0  0  -0.590219  0  2.23224  0  0  -0.617044  0  2.222214  0  0  -0.298523  -0.571483  0  2.238696  0
O  O97  1  0.04567481  0.22884082  0.09143184  1  0  -0.664414  0  2.022009  0  0  -0.590197  0  2.232188  0  0  -0.617021  0  2.222164  0  0  -0.298512  -0.571469  0  2.238658  0
O  O98  1  0.54567580  0.22883984  0.40856781  1  0  -0.664393  0  2.022026  0  0  -0.590183  0  2.232217  0  0  -0.617009  0  2.222194  0  0  -0.29851  -0.571453  0  2.238686  0
O  O99  1  0.95432373  0.77115997  0.90856755  1  0  -0.664405  0  2.02202  0  0  -0.590186  0  2.23221  0  0  -0.617012  0  2.222187  0  0  -0.298494  -0.571458  0  2.238682  0
