# generated using pymatgen
data_MnH18C32I3N5O4
_symmetry_space_group_name_H-M   'P 1'
_cell_length_a   9.65438491
_cell_length_b   18.17117036
_cell_length_c   19.75786431
_cell_angle_alpha   90.10978298
_cell_angle_beta   102.95277072
_cell_angle_gamma   89.75199826
_symmetry_Int_Tables_number   1
_chemical_formula_structural   MnH18C32I3N5O4
_chemical_formula_sum   'Mn4 H72 C128 I12 N20 O16'
_cell_volume   3377.92234704
_cell_formula_units_Z   4
loop_
 _symmetry_equiv_pos_site_id
 _symmetry_equiv_pos_as_xyz
  1  'x, y, z'
loop_
 _atom_site_type_symbol
 _atom_site_label
 _atom_site_symmetry_multiplicity
 _atom_site_fract_x
 _atom_site_fract_y
 _atom_site_fract_z
 _atom_site_occupancy
 _atom_site_pbe_bader_charge
 _atom_site_pbe_bader_spin_density
 _atom_site_pbe_cm5_charge
 _atom_site_pbe_ddec_charge
 _atom_site_pbe_ddec_spin_density
 _atom_site_pbe_ddec_sum_bond_order
 _atom_site_pbe_magmom
Mn  Mn0  1  0.48534557  0.57967616  0.26472781  1  1.4899  4.454225  0.611551  0.800639  4.655844  2.597768  4.382
Mn  Mn1  1  0.51542187  0.07990733  0.23545307  1  1.490209  4.454857  0.610746  0.799701  4.6518  2.598131  4.382
Mn  Mn2  1  0.52734358  0.42291568  0.72406937  1  1.456391  -1.364979  0.728925  0.651878  -1.416362  3.340769  -1.359
Mn  Mn3  1  0.48567253  0.92025611  0.76383460  1  1.48857  -4.460054  0.609906  0.801098  -4.606255  2.589986  -4.387
H  H4  1  0.95250450  0.28612717  0.41583099  1  0.440083  2.2e-05  0.2817  0.277018  3.8e-05  0.9954  0.0
H  H5  1  0.04710488  0.78517315  0.08673179  1  0.457322  1.1e-05  0.281675  0.276092  1.1e-05  0.995943  0.0
H  H6  1  0.04477588  0.71748984  0.58652305  1  0.442148  -4e-06  0.283335  0.278768  -9e-06  0.992424  0.0
H  H7  1  0.95304153  0.21586046  0.91269225  1  0.452607  7.6e-05  0.282363  0.277242  8.6e-05  0.994747  0.0
H  H8  1  0.00422180  0.35743350  0.37068992  1  0.425592  0.000102  0.276964  0.265428  0.000123  1.024969  0.0
H  H9  1  0.99512136  0.85627267  0.13235535  1  0.443401  5.8e-05  0.277623  0.264844  3.9e-05  1.023587  0.0
H  H10  1  0.99531308  0.64490061  0.63084602  1  0.422279  2.4e-05  0.277809  0.265003  1.8e-05  1.024467  0.0
H  H11  1  0.00483282  0.14438072  0.86744061  1  0.443169  -4.6e-05  0.27812  0.26624  -4.1e-05  1.022112  0.0
H  H12  1  0.54663194  0.69332771  0.39966061  1  0.091584  0.001524  0.108532  0.070942  0.000699  1.026535  0.0
H  H13  1  0.45320667  0.19413538  0.10103037  1  0.097625  0.00146  0.10796  0.070221  0.000668  1.028474  0.0
H  H14  1  0.43940720  0.31029001  0.60002831  1  0.099389  0.000658  0.113941  0.080449  0.000515  1.03266  0.0
H  H15  1  0.54907215  0.80414939  0.89808949  1  0.077937  -0.001408  0.10853  0.071155  -0.000608  1.027125  0.0
H  H16  1  0.42842330  0.80367056  0.43826060  1  0.105108  0.000769  0.107681  0.123263  0.000445  0.995842  0.0
H  H17  1  0.57154894  0.30342271  0.06189337  1  0.111709  0.000785  0.107502  0.122266  0.000464  0.996559  0.0
H  H18  1  0.55716882  0.20210680  0.55946430  1  0.101467  0.000111  0.109838  0.125434  3.1e-05  0.991818  0.0
H  H19  1  0.43210692  0.69357187  0.93583817  1  0.12807  -0.000741  0.109548  0.125348  -0.000443  0.990966  0.0
H  H20  1  0.17692454  0.83208475  0.38004784  1  0.104873  0.000119  0.107582  0.115909  0.00011  0.986014  0.0
H  H21  1  0.82318363  0.33077281  0.11970732  1  0.098292  0.000129  0.108238  0.116979  0.000108  0.985546  0.0
H  H22  1  0.80875544  0.17200892  0.61536853  1  0.08941  0.000103  0.108274  0.119732  3.9e-05  0.986156  0.0
H  H23  1  0.18020352  0.66627201  0.87787681  1  0.093458  3.3e-05  0.108285  0.115285  2.6e-05  0.9814  0.0
H  H24  1  0.95693868  0.79640951  0.28996641  1  0.064201  0.000273  0.083031  0.075791  0.000165  1.081916  0.0
H  H25  1  0.04287885  0.29502526  0.21042388  1  0.080289  0.000272  0.083221  0.07577  0.000164  1.080687  0.0
H  H26  1  0.03447971  0.20871763  0.70749826  1  0.041992  0.000125  0.085876  0.080624  4.4e-05  1.071347  0.0
H  H27  1  0.95925544  0.70341978  0.78866285  1  0.073157  -0.000246  0.082763  0.074908  -0.000168  1.084963  0.0
H  H28  1  0.83899018  0.71347964  0.19442386  1  0.146346  0.000285  0.103636  0.12592  9.6e-05  1.047364  0.0
H  H29  1  0.16066227  0.21261648  0.30636024  1  0.193902  0.000274  0.104122  0.12712  8.8e-05  1.045231  0.0
H  H30  1  0.14939121  0.29110578  0.80323723  1  0.178353  5.2e-05  0.104502  0.128474  3.6e-05  1.037518  0.0
H  H31  1  0.84020046  0.78729643  0.69416645  1  0.155052  -0.000269  0.104155  0.126512  -8.5e-05  1.045841  0.0
H  H32  1  0.85339828  0.60402237  0.11893845  1  0.12332  5.3e-05  0.122927  0.137266  2.2e-05  0.954631  0.0
H  H33  1  0.14672941  0.10336167  0.38214472  1  0.163485  2.9e-05  0.123625  0.137353  2.5e-05  0.953979  0.0
H  H34  1  0.12865725  0.40300601  0.88093326  1  0.102329  0.000518  0.120573  0.137125  0.000314  0.958947  0.0
H  H35  1  0.85341889  0.89687680  0.61898104  1  0.125049  -4.7e-05  0.123533  0.137323  -1.8e-05  0.953274  0.0
H  H36  1  0.00602910  0.50693011  0.08038868  1  0.075947  0.000824  0.11006  0.121807  0.000446  0.980336  0.0
H  H37  1  0.99474300  0.00667499  0.42025771  1  0.087904  0.000786  0.109868  0.121118  0.00043  0.979311  0.0
H  H38  1  0.96529665  0.49613813  0.91721389  1  0.067716  0.000137  0.107805  0.118743  -9.3e-05  0.983692  0.0
H  H39  1  0.00491413  0.99393125  0.58100600  1  0.074467  -0.000761  0.111072  0.122864  -0.00041  0.97935  0.0
H  H40  1  0.26514045  0.49857617  0.14101307  1  0.127241  0.001195  0.11027  0.083154  0.000367  1.037346  0.001
H  H41  1  0.73627106  0.99827100  0.35895214  1  0.128855  0.001187  0.110287  0.082444  0.000367  1.037288  0.001
H  H42  1  0.70902762  0.50043250  0.85614098  1  0.141888  0.000471  0.11299  0.089917  0.000522  1.039891  0.0
H  H43  1  0.26368270  0.00217205  0.64182503  1  0.134489  -0.001187  0.110959  0.083928  -0.000392  1.035179  -0.001
H  H44  1  0.77905708  0.66648517  0.31572570  1  0.150759  0.001063  0.108027  0.077705  0.000295  1.06189  0.001
H  H45  1  0.22085777  0.16756904  0.18454753  1  0.139622  0.001054  0.108322  0.078357  0.000286  1.062605  0.001
H  H46  1  0.23902066  0.33683072  0.69570858  1  0.153875  0.000435  0.111914  0.088484  0.000445  1.067324  0.0
H  H47  1  0.77911616  0.83168844  0.81500022  1  0.118072  -0.001087  0.108223  0.077832  -0.000321  1.060599  -0.001
H  H48  1  0.98248153  0.67219506  0.42106294  1  0.088001  0.00076  0.102295  0.111507  0.000414  1.003799  0.0
H  H49  1  0.01723229  0.17385331  0.07937505  1  0.066169  0.000748  0.102458  0.11042  0.000411  1.005466  0.0
H  H50  1  0.03499118  0.32715976  0.59256027  1  0.080333  0.000358  0.10065  0.111144  0.000124  1.00726  0.0
H  H51  1  0.98261680  0.82534939  0.92026443  1  0.097325  -0.00074  0.102165  0.110715  -0.000408  1.005261  0.0
H  H52  1  0.98576722  0.58453920  0.51865993  1  0.108327  0.000105  0.100597  0.105233  0.000112  1.044355  0.0
H  H53  1  0.01461357  0.08671773  0.98118910  1  0.110653  -9e-06  0.100753  0.106026  3.2e-05  1.0431  0.0
H  H54  1  0.02304879  0.41035937  0.49042795  1  0.115551  0.000411  0.098832  0.108853  0.000391  1.04331  0.0
H  H55  1  0.98548927  0.91273540  0.01823812  1  0.118403  1.5e-05  0.10088  0.106412  -3.1e-05  1.044667  0.0
H  H56  1  0.87111295  0.47620857  0.56540635  1  0.071833  0.000629  0.094861  0.093067  0.000489  1.041867  0.0
H  H57  1  0.13133911  0.97880395  0.93353533  1  0.057139  0.000146  0.094979  0.092811  0.000111  1.040122  0.0
H  H58  1  0.13840192  0.52110671  0.43982005  1  0.070608  0.000152  0.09669  0.09627  5.6e-05  1.03293  0.0
H  H59  1  0.86919996  0.02073943  0.06583769  1  0.062653  -0.000137  0.095144  0.092729  -0.000103  1.041065  0.0
H  H60  1  0.67542957  0.38557702  0.54982550  1  0.067523  0.000282  0.09948  0.105362  0.000251  1.028219  0.0
H  H61  1  0.32722057  0.88768157  0.94860759  1  0.08371  0.000195  0.100499  0.106963  0.00031  1.024282  0.0
H  H62  1  0.33342122  0.61112158  0.45379702  1  0.069984  0.000174  0.100612  0.10794  -9.2e-05  1.022331  0.0
H  H63  1  0.67336701  0.11185414  0.05084337  1  0.097004  -0.000186  0.100459  0.107457  -0.000312  1.025557  0.0
H  H64  1  0.44126666  0.33818750  0.47803733  1  0.08468  0.000313  0.109119  0.112392  0.000279  0.992628  0.0
H  H65  1  0.55990033  0.83792031  0.02138832  1  0.077409  -3.9e-05  0.109894  0.112844  1e-06  0.98837  0.0
H  H66  1  0.57264426  0.66082479  0.52866536  1  0.103255  0.000361  0.110378  0.118109  0.000224  0.98577  0.0
H  H67  1  0.43980443  0.16101279  0.97869497  1  0.089536  0.000149  0.110589  0.113664  8.7e-05  0.986882  0.0
H  H68  1  0.24070012  0.35541324  0.37514640  1  0.075295  0.000994  0.105563  0.115504  0.000593  1.002655  0.0
H  H69  1  0.75862162  0.85344236  0.12515101  1  0.090536  0.00085  0.106151  0.116718  0.000492  1.002168  0.0
H  H70  1  0.76983899  0.64036388  0.63230261  1  0.090824  0.000253  0.103915  0.111798  8.2e-05  1.010466  0.0
H  H71  1  0.24053553  0.14521314  0.87517667  1  0.070619  -0.000795  0.106555  0.117437  -0.000453  1.002119  0.0
H  H72  1  0.25119973  0.45798091  0.29211817  1  0.090447  0.001757  0.097035  0.05285  0.001004  1.071936  0.001
H  H73  1  0.74804854  0.95609628  0.20847146  1  0.091073  0.001745  0.097392  0.052406  0.001006  1.071819  0.001
H  H74  1  0.76118321  0.53577296  0.71172087  1  0.102857  0.00083  0.100551  0.061655  0.000661  1.07818  0.0
H  H75  1  0.25195007  0.04349158  0.79127808  1  0.086822  -0.001704  0.097211  0.052717  -0.000953  1.071802  -0.001
C  C76  1  0.59378936  0.44530264  0.18519193  1  1.646707  0.012634  0.188754  0.573045  0.013043  4.296509  0.011
C  C77  1  0.40704279  0.94612144  0.31487407  1  1.661655  0.012713  0.18984  0.573361  0.01303  4.297824  0.011
C  C78  1  0.41332549  0.54942746  0.80621458  1  1.623871  -0.003091  0.197263  0.560383  -0.003065  4.263633  -0.002
C  C79  1  0.59266901  0.05514370  0.68445580  1  1.641889  -0.012152  0.188256  0.57294  -0.012378  4.298925  -0.011
C  C80  1  0.62582118  0.38797193  0.24356589  1  0.077595  0.002237  -0.025334  -0.071732  0.00133  3.999628  0.001
C  C81  1  0.37495243  0.88850245  0.25669384  1  0.052459  0.002279  -0.025934  -0.071689  0.001338  4.000918  0.001
C  C82  1  0.37973375  0.60787831  0.74958228  1  0.059514  -0.000762  -0.025534  -0.074564  -0.00036  4.017606  -0.001
C  C83  1  0.62482000  0.11298473  0.74241174  1  0.023189  -0.002154  -0.025819  -0.070734  -0.001208  4.001815  -0.001
C  C84  1  0.52546019  0.33520373  0.25223961  1  -0.216401  0.002195  -0.054717  -0.006279  0.001494  3.847875  0.001
C  C85  1  0.47518265  0.83514481  0.24809970  1  -0.217617  0.002205  -0.054226  -0.005966  0.001507  3.849854  0.001
C  C86  1  0.47847559  0.66213144  0.74249252  1  -0.228853  -0.000962  -0.054395  -0.008308  -0.000678  3.854388  -0.001
C  C87  1  0.52480321  0.16650763  0.75086780  1  -0.1814  -0.000826  -0.055189  -0.008844  -0.000537  3.851854  -0.001
C  C88  1  0.55285610  0.28264122  0.30561386  1  0.041531  0.001869  -0.02571  -0.070716  0.000969  3.997842  0.001
C  C89  1  0.44785196  0.78246450  0.19476601  1  0.037422  0.001861  -0.025266  -0.070405  0.000973  3.999478  0.001
C  C90  1  0.44862592  0.71672499  0.69105159  1  0.036605  -0.001741  -0.024638  -0.06797  -0.000836  3.99594  -0.001
C  C91  1  0.55298968  0.21974121  0.80371815  1  0.072794  -0.000209  -0.024335  -0.067369  -2e-05  4.001213  0.0
C  C92  1  0.68627579  0.28415901  0.35135994  1  -0.202633  0.001905  -0.060815  -0.085667  0.001453  3.855797  0.001
C  C93  1  0.31418135  0.78415396  0.14925172  1  -0.180761  0.001884  -0.061058  -0.084007  0.001459  3.855676  0.001
C  C94  1  0.31389514  0.71627316  0.64653095  1  -0.165287  -0.001257  -0.059648  -0.084105  -0.000958  3.855832  -0.001
C  C95  1  0.68662876  0.21800611  0.84923620  1  -0.229578  -0.000637  -0.061399  -0.085375  -0.000468  3.856935  0.0
C  C96  1  0.79411533  0.33405091  0.34423762  1  0.432319  0.000296  0.078913  0.231101  0.000168  4.138194  0.0
C  C97  1  0.20597865  0.83402569  0.15690654  1  0.44533  0.000282  0.078355  0.228358  0.000177  4.139173  0.0
C  C98  1  0.20631089  0.66628983  0.65385390  1  0.455457  -7.3e-05  0.080766  0.232495  -4.5e-05  4.137957  0.0
C  C99  1  0.79431117  0.16757630  0.84203943  1  0.452365  -0.000105  0.079073  0.229891  -6.7e-05  4.143407  0.0
C  C100  1  0.75888299  0.38551642  0.28948125  1  -0.186271  0.001756  -0.060065  -0.082764  0.001374  3.844908  0.001
C  C101  1  0.24159761  0.88614878  0.21108690  1  -0.207843  0.001717  -0.059858  -0.082275  0.001354  3.847189  0.001
C  C102  1  0.24429698  0.61209275  0.70597466  1  -0.203669  -0.000683  -0.059318  -0.083907  -0.000529  3.845456  -0.001
C  C103  1  0.75827752  0.11536300  0.78797170  1  -0.196503  -0.001039  -0.06053  -0.083488  -0.000818  3.849418  -0.001
C  C104  1  0.44170586  0.22592365  0.31498393  1  1.654723  0.014119  0.195337  0.574832  0.014307  4.279565  0.013
C  C105  1  0.55885584  0.72525790  0.18522812  1  1.655095  0.014251  0.194292  0.572946  0.014397  4.279637  0.013
C  C106  1  0.55904727  0.77429073  0.68260854  1  1.655214  -0.013593  0.196308  0.576572  -0.013527  4.278615  -0.012
C  C107  1  0.44025156  0.27532724  0.81416423  1  1.641781  -0.000578  0.190576  0.560324  -0.000225  4.301678  0.0
C  C108  1  0.43655415  0.70685162  0.37539536  1  0.444517  0.008324  0.04654  0.087103  0.006766  3.991938  0.005
C  C109  1  0.56352970  0.20706277  0.12502610  1  0.434955  0.008085  0.046175  0.084663  0.006561  3.993513  0.005
C  C110  1  0.54978021  0.29726460  0.62345313  1  0.457371  0.006932  0.041805  0.069918  0.005211  3.95547  0.002
C  C111  1  0.43890995  0.79107470  0.87392108  1  0.486922  -0.007594  0.047216  0.085872  -0.006111  3.99166  -0.005
C  C112  1  0.36953961  0.76803575  0.39763670  1  0.042495  0.000865  -0.087376  -0.134601  0.000674  4.023284  0.0
C  C113  1  0.63055039  0.26768588  0.10249647  1  0.041645  0.000932  -0.087577  -0.134123  0.000735  4.022671  0.0
C  C114  1  0.61724539  0.23696687  0.60046282  1  0.023178  0.005324  -0.088239  -0.136629  0.004458  4.029679  0.003
C  C115  1  0.37266521  0.72967948  0.89568911  1  -0.108925  -0.001034  -0.086342  -0.132082  -0.000747  4.019682  0.0
C  C116  1  0.23009525  0.78353307  0.36538322  1  0.004481  0.007021  -0.066293  -0.071192  0.00556  3.937273  0.004
C  C117  1  0.77015485  0.28259800  0.13458389  1  -0.070117  0.006864  -0.066377  -0.071438  0.005396  3.934685  0.004
C  C118  1  0.75765572  0.22053598  0.63139885  1  -0.051968  0.012322  -0.068594  -0.078553  0.009892  3.932709  0.007
C  C119  1  0.23314564  0.71479745  0.86351996  1  0.063061  -0.006138  -0.066047  -0.07213  -0.004781  3.935829  -0.004
C  C120  1  0.15890129  0.73789492  0.31088406  1  -0.071084  0.001358  -0.006338  0.043266  0.000912  4.005707  0.001
C  C121  1  0.84131226  0.23701636  0.18924836  1  0.036103  0.001331  -0.00523  0.045079  0.000928  4.003878  0.001
C  C122  1  0.83024353  0.26536814  0.68606730  1  0.025856  0.002649  -0.004362  0.049043  0.002195  4.013252  0.001
C  C123  1  0.16101856  0.76126881  0.80978379  1  -0.02407  -0.001255  -0.005948  0.044504  -0.000861  4.006116  -0.001
C  C124  1  0.23708157  0.67840030  0.29085960  1  0.47434  0.004459  0.11761  0.125539  0.003556  3.96242  0.003
C  C125  1  0.76328020  0.17791119  0.20935681  1  0.458898  0.004403  0.11715  0.124498  0.003509  3.96206  0.003
C  C126  1  0.75323734  0.32432886  0.70732764  1  0.431336  0.008901  0.112186  0.116001  0.007779  3.966119  0.004
C  C127  1  0.23845893  0.82099772  0.79031377  1  0.471767  -0.004024  0.118442  0.127262  -0.003142  3.957476  -0.002
C  C128  1  0.01484041  0.74990920  0.27452151  1  -0.031631  -0.000314  -0.094556  -0.12652  -0.000315  4.010778  0.0
C  C129  1  0.98510753  0.24880467  0.22585174  1  -0.051407  -0.000335  -0.094366  -0.127169  -0.000342  4.011352  0.0
C  C130  1  0.97466534  0.25448430  0.72290728  1  0.014668  -0.001897  -0.092652  -0.128056  -0.001468  3.995107  -0.001
C  C131  1  0.01675770  0.74995089  0.77361065  1  -0.079466  0.000334  -0.096742  -0.131909  0.000319  4.016415  0.0
C  C132  1  0.94983479  0.70479673  0.22152979  1  -0.02782  0.00087  -0.089868  -0.121637  0.000572  3.945633  0.001
C  C133  1  0.05007790  0.20389768  0.27908385  1  -0.135609  0.000906  -0.08902  -0.119958  0.000581  3.944444  0.001
C  C134  1  0.03827611  0.29970610  0.77633588  1  -0.073895  0.001763  -0.085238  -0.114648  0.001307  3.924595  0.001
C  C135  1  0.95104893  0.79567405  0.72121140  1  -0.004734  -0.000726  -0.088552  -0.118041  -0.000456  3.943948  -0.001
C  C136  1  0.02681156  0.64530100  0.19918285  1  0.015866  -6e-05  -0.007829  0.036743  -0.000212  4.019633  -0.001
C  C137  1  0.97349830  0.14464403  0.30134723  1  0.053526  -8e-05  -0.006772  0.037564  -0.000224  4.018541  -0.001
C  C138  1  0.96019499  0.35857031  0.79931230  1  -0.082986  -0.001861  -0.007858  0.044696  -0.001362  4.032651  -0.003
C  C139  1  0.02735502  0.85518689  0.69917183  1  -0.020822  3.1e-05  -0.007821  0.034618  0.000218  4.01951  0.001
C  C140  1  0.17138133  0.63294480  0.23270085  1  0.457717  0.008624  0.115448  0.117931  0.00683  3.97175  0.006
C  C141  1  0.82918764  0.13239081  0.26753792  1  0.474139  0.008656  0.114577  0.116565  0.006854  3.973129  0.006
C  C142  1  0.81603616  0.36884705  0.76484675  1  0.434388  0.020569  0.104708  0.098868  0.016628  3.983068  0.012
C  C143  1  0.17194644  0.86718250  0.73270545  1  0.470464  -0.008504  0.115558  0.117952  -0.006642  3.970871  -0.006
C  C144  1  0.96572845  0.59782027  0.14385982  1  -0.08834  0.010796  -0.061943  -0.075918  0.008533  3.932404  0.006
C  C145  1  0.03463371  0.09729807  0.35685784  1  -0.160569  0.010999  -0.062414  -0.07585  0.008662  3.93077  0.006
C  C146  1  0.01674656  0.40677217  0.85464884  1  -0.042206  0.037867  -0.075976  -0.104426  0.030458  3.953068  0.022
C  C147  1  0.96565095  0.90291033  0.64406595  1  -0.052244  -0.010672  -0.060837  -0.072376  -0.008346  3.928663  -0.006
C  C148  1  0.04979091  0.54442641  0.12282070  1  0.038008  -0.00039  -0.091947  -0.150294  -0.000366  4.034918  -0.001
C  C149  1  0.95093220  0.04406501  0.37770490  1  0.042664  -0.000433  -0.091742  -0.149121  -0.000414  4.033532  -0.001
C  C150  1  0.92635291  0.45833980  0.87431064  1  0.006239  0.00023  -0.096851  -0.152723  0.000645  4.059223  -0.002
C  C151  1  0.04908293  0.95634192  0.62333120  1  -0.041118  0.000387  -0.092353  -0.15092  0.00047  4.034096  0.001
C  C152  1  0.19370697  0.53839045  0.15700100  1  0.459106  0.010974  0.04949  0.087969  0.008988  3.977418  0.007
C  C153  1  0.80734686  0.03801289  0.34313385  1  0.462544  0.011083  0.049514  0.088353  0.009075  3.978121  0.007
C  C154  1  0.78291484  0.46251490  0.83990517  1  0.433119  0.024507  0.038871  0.067775  0.019135  3.954396  0.013
C  C155  1  0.19290291  0.96224105  0.65762134  1  0.527717  -0.010771  0.050142  0.088087  -0.008841  3.975479  -0.007
C  C156  1  0.78447773  0.62985691  0.35986979  1  0.463036  0.011382  0.049157  0.086083  0.009298  3.98271  0.007
C  C157  1  0.21565875  0.13097088  0.14029768  1  0.468624  0.010996  0.0496  0.085036  0.008991  3.980001  0.007
C  C158  1  0.23198329  0.37151244  0.65025348  1  0.456497  0.020689  0.035945  0.059594  0.016078  3.960286  0.01
C  C159  1  0.78433036  0.86833885  0.85922791  1  0.4815  -0.011066  0.048707  0.086085  -0.008973  3.981138  -0.007
C  C160  1  0.89742563  0.63231042  0.41863311  1  -0.041737  -9.8e-05  -0.092317  -0.139876  -0.000231  3.997425  -0.001
C  C161  1  0.10262853  0.13383744  0.08153453  1  0.013064  -0.000331  -0.092008  -0.136473  -0.000384  3.992398  -0.001
C  C162  1  0.11856981  0.36725458  0.59221804  1  -0.070899  0.006826  -0.097726  -0.143742  0.005773  4.024922  0.002
C  C163  1  0.89729955  0.86545257  0.91800747  1  -0.04059  0.000435  -0.093191  -0.141201  0.000501  3.99631  0.001
C  C164  1  0.89943154  0.58328549  0.47241230  1  -0.053042  0.01108  -0.070757  -0.075438  0.008727  3.925908  0.007
C  C165  1  0.10097729  0.08505429  0.02745702  1  -0.059094  0.010362  -0.070032  -0.075014  0.008144  3.924512  0.006
C  C166  1  0.11124768  0.41401935  0.53574710  1  -0.036338  0.036859  -0.084391  -0.1039  0.029395  3.936607  0.022
C  C167  1  0.89910908  0.91437577  0.97198669  1  -0.052243  -0.010392  -0.070008  -0.073175  -0.008065  3.923366  -0.006
C  C168  1  0.78867934  0.53170587  0.46718768  1  0.016127  9.2e-05  -0.006112  0.040204  -8.7e-05  4.009533  -0.001
C  C169  1  0.21218094  0.03323180  0.03250235  1  -0.004329  -0.000162  -0.005716  0.039522  -0.000318  4.012234  -0.001
C  C170  1  0.21989040  0.46620092  0.53851933  1  -0.002248  -0.000505  -0.00766  0.046546  -0.000339  4.031963  -0.003
C  C171  1  0.78806563  0.96625473  0.96691102  1  -0.031197  0.00022  -0.006477  0.039133  0.000391  4.009107  0.001
C  C172  1  0.67674275  0.53490637  0.40684159  1  0.472913  0.008743  0.120687  0.122737  0.006949  3.967586  0.006
C  C173  1  0.32382900  0.03578099  0.09298644  1  0.453048  0.00852  0.119929  0.120621  0.006738  3.969904  0.006
C  C174  1  0.33374731  0.46505640  0.59773810  1  0.414233  0.022496  0.105836  0.098064  0.018337  3.99189  0.012
C  C175  1  0.67642741  0.96377925  0.90640676  1  0.524667  -0.008378  0.120583  0.121682  -0.006579  3.9681  -0.006
C  C176  1  0.78480058  0.47730250  0.51914297  1  -0.033579  0.000831  -0.088391  -0.118954  0.000696  3.994315  0.0
C  C177  1  0.21700240  0.97923821  0.98008626  1  -0.059963  0.000415  -0.088535  -0.11965  0.000286  3.99727  0.0
C  C178  1  0.22467710  0.52010860  0.48609533  1  -0.028793  0.000313  -0.086265  -0.117098  0.000129  3.9805  0.0
C  C179  1  0.78348129  0.02028546  0.01931793  1  0.002779  -0.000311  -0.088551  -0.119305  -0.000201  3.996651  0.0
C  C180  1  0.67638635  0.42774500  0.51080480  1  -0.040477  3.7e-05  -0.0857  -0.110414  3e-06  3.962581  0.0
C  C181  1  0.32549506  0.92923089  0.98825928  1  -0.006051  -0.000618  -0.085518  -0.110742  -0.00041  3.963187  0.0
C  C182  1  0.33342703  0.56965877  0.49356244  1  0.002042  -0.000909  -0.083927  -0.11111  -0.000909  3.950842  -0.001
C  C183  1  0.67502142  0.07026311  0.01122676  1  -0.067472  0.000673  -0.085044  -0.111183  0.000444  3.961061  0.0
C  C184  1  0.55923912  0.43107485  0.45169774  1  0.023662  0.00129  -0.001144  0.044101  0.000898  4.002395  0.0
C  C185  1  0.44175039  0.93149833  0.04782371  1  -0.025948  0.001236  -0.001109  0.042624  0.000832  4.00224  0.001
C  C186  1  0.45211656  0.56714443  0.55216528  1  -0.021786  0.001503  -0.001296  0.04961  0.00124  4.016936  -0.001
C  C187  1  0.55862240  0.06798545  0.95172682  1  -0.025215  -0.001158  -8.7e-05  0.045809  -0.000782  3.999123  0.0
C  C188  1  0.55778890  0.48575772  0.40021358  1  0.518016  0.00509  0.12153  0.126454  0.004095  3.964295  0.003
C  C189  1  0.44271306  0.98600387  0.09963628  1  0.522438  0.004895  0.12195  0.127137  0.003942  3.961831  0.003
C  C190  1  0.45133400  0.51211922  0.60273526  1  0.435159  0.018363  0.110555  0.111884  0.015227  3.968173  0.009
C  C191  1  0.55768540  0.01360744  0.89980972  1  0.46596  -0.004825  0.12075  0.125355  -0.003837  3.962157  -0.003
C  C192  1  0.44204928  0.38312879  0.44175799  1  -0.044309  0.007124  -0.06005  -0.061323  0.005644  3.914108  0.004
C  C193  1  0.55857409  0.88273934  0.05792300  1  -0.002925  0.006281  -0.059924  -0.059975  0.004966  3.913282  0.004
C  C194  1  0.56957505  0.61469633  0.56336162  1  0.010233  0.024852  -0.067332  -0.074655  0.01985  3.914387  0.015
C  C195  1  0.44140058  0.11641613  0.94195374  1  0.017024  -0.005764  -0.06059  -0.062373  -0.004483  3.909854  -0.003
C  C196  1  0.33045330  0.39285383  0.38493550  1  -0.006537  0.001343  -0.081437  -0.112195  0.000934  3.992097  0.0
C  C197  1  0.66934106  0.89155668  0.11521758  1  0.029394  0.000965  -0.08189  -0.113067  0.000645  3.992479  0.0
C  C198  1  0.68004410  0.60291673  0.62087830  1  -0.010978  0.00646  -0.086748  -0.118575  0.005524  4.015912  0.003
C  C199  1  0.33035989  0.10748533  0.88481176  1  0.011496  -0.000938  -0.079654  -0.10592  -0.000592  3.989547  0.0
C  C200  1  0.33727186  0.44945170  0.33770411  1  0.513608  0.008099  0.048211  0.089801  0.006712  3.992235  0.005
C  C201  1  0.66231215  0.94816469  0.16265644  1  0.489358  0.007965  0.048439  0.090878  0.006617  3.988859  0.005
C  C202  1  0.67473778  0.54531696  0.66679291  1  0.417323  0.01439  0.035861  0.060968  0.010909  3.971026  0.006
C  C203  1  0.33778701  0.05126948  0.83706091  1  0.516287  -0.007493  0.048583  0.090317  -0.006199  3.986554  -0.005
I  I204  1  0.32466537  0.33503326  0.18111361  1  0.081863  0.002536  0.127016  0.016147  0.00157  1.646444  0.001
I  I205  1  0.67557124  0.83416853  0.31943242  1  0.082923  0.002553  0.128006  0.017086  0.001592  1.647356  0.001
I  I206  1  0.67779400  0.66317559  0.81445504  1  0.090496  -0.000525  0.135131  0.023097  -0.000216  1.664776  0.0
I  I207  1  0.32279748  0.16673909  0.68074425  1  0.081268  -0.000128  0.126959  0.015123  0.000333  1.644385  0.0
I  I208  1  0.73131725  0.20928648  0.43538798  1  0.118326  0.000863  0.13177  0.036648  0.00049  1.62089  0.0
I  I209  1  0.26951012  0.70990861  0.06457552  1  0.1068  0.000611  0.127424  0.030556  0.000344  1.612207  0.0
I  I210  1  0.26626329  0.79282046  0.56406786  1  0.11347  -0.000291  0.136082  0.040352  -3.3e-05  1.620595  0.0
I  I211  1  0.72972772  0.29134634  0.93448024  1  0.116519  0.000121  0.133438  0.041781  8e-05  1.618377  0.0
I  I212  1  0.91790689  0.46099471  0.27642372  1  0.099479  0.001279  0.130247  0.034773  0.000898  1.670758  0.0
I  I213  1  0.08286265  0.96264172  0.22381703  1  0.098589  0.001238  0.132448  0.037143  0.000893  1.676804  0.0
I  I214  1  0.08608103  0.53748742  0.72115999  1  0.113171  0.000709  0.142436  0.049809  0.000799  1.687814  0.0
I  I215  1  0.91652323  0.03837568  0.77558751  1  0.097699  -0.00109  0.129264  0.03324  -0.000771  1.671883  0.0
N  N216  1  0.92515655  0.33427969  0.38988311  1  -1.22762  0.000356  -0.603123  -0.603382  0.000212  3.414426  0.0
N  N217  1  0.07379937  0.83367090  0.11216331  1  -1.260254  0.000104  -0.602877  -0.600398  5.7e-05  3.419247  0.0
N  N218  1  0.07271958  0.66847639  0.61075156  1  -1.223773  9.3e-05  -0.600613  -0.597886  4.6e-05  3.420327  0.0
N  N219  1  0.92599108  0.16747748  0.88715542  1  -1.25375  -5.8e-05  -0.601959  -0.601762  -4.2e-05  3.419881  0.0
N  N220  1  0.37332760  0.66334655  0.32333000  1  -1.249602  0.051995  -0.311644  -0.270569  0.038964  3.507619  0.026
N  N221  1  0.62693835  0.16337645  0.17699256  1  -1.248093  0.051827  -0.311664  -0.270364  0.038828  3.506184  0.026
N  N222  1  0.61473431  0.34059132  0.67632137  1  -1.202337  0.022831  -0.329337  -0.225017  0.020245  3.566943  0.028
N  N223  1  0.37491657  0.83537872  0.82261705  1  -1.23501  -0.050527  -0.309344  -0.269972  -0.037662  3.500014  -0.026
N  N224  1  0.25243782  0.58039438  0.21122067  1  -1.272922  0.051356  -0.314371  -0.263513  0.035987  3.502564  0.018
N  N225  1  0.74854902  0.07992724  0.28881061  1  -1.266518  0.051399  -0.314219  -0.263818  0.036009  3.503501  0.018
N  N226  1  0.72721907  0.42005452  0.78452326  1  -1.202925  0.023331  -0.335905  -0.223639  0.019158  3.560496  0.023
N  N227  1  0.25223691  0.91990359  0.71154756  1  -1.276074  -0.051232  -0.313696  -0.263074  -0.035305  3.505366  -0.017
N  N228  1  0.67620220  0.58325754  0.35453299  1  -1.256517  0.052061  -0.313907  -0.264439  0.036475  3.515216  0.018
N  N229  1  0.32406904  0.08402212  0.14553010  1  -1.258804  0.051348  -0.313145  -0.262583  0.036049  3.511971  0.018
N  N230  1  0.34116128  0.41847990  0.65327934  1  -1.205216  0.032435  -0.340304  -0.227175  0.026838  3.568603  0.032
N  N231  1  0.67611203  0.91546174  0.85389264  1  -1.260608  -0.051131  -0.313686  -0.264945  -0.035589  3.516123  -0.018
N  N232  1  0.44833473  0.49417593  0.34435508  1  -1.243243  0.054334  -0.30934  -0.265999  0.040232  3.513433  0.026
N  N233  1  0.55168291  0.99369228  0.15579361  1  -1.246579  0.053885  -0.308327  -0.265048  0.039884  3.50968  0.025
N  N234  1  0.56130652  0.50056015  0.65955304  1  -1.198677  0.034792  -0.340613  -0.218659  0.029323  3.601757  0.036
N  N235  1  0.44874104  0.00600207  0.84362323  1  -1.24973  -0.053713  -0.309034  -0.266016  -0.039325  3.510081  -0.026
O  O236  1  0.51791017  0.50050617  0.19620780  1  -1.212423  0.076498  -0.331311  -0.556125  0.054853  2.388057  0.035
O  O237  1  0.48309430  0.00081200  0.30375549  1  -1.201381  0.076457  -0.332048  -0.556329  0.054854  2.387218  0.035
O  O238  1  0.47532035  0.48913816  0.79352829  1  -1.130285  -0.017961  -0.305331  -0.477226  -0.01264  2.420683  -0.005
O  O239  1  0.51843252  0.99987540  0.69606360  1  -1.207677  -0.077232  -0.331736  -0.55654  -0.054683  2.382393  -0.036
O  O240  1  0.64170219  0.43414883  0.13278403  1  -1.146551  0.016773  -0.327142  -0.528043  0.012475  2.090167  0.013
O  O241  1  0.35881897  0.93554765  0.36721068  1  -1.145085  0.016834  -0.326691  -0.526808  0.012524  2.087845  0.013
O  O242  1  0.38156630  0.56296275  0.86229441  1  -1.126993  -0.009892  -0.312845  -0.503242  -0.007606  2.080662  -0.008
O  O243  1  0.63927149  0.06614214  0.63172544  1  -1.141914  -0.016676  -0.327004  -0.526834  -0.01232  2.084775  -0.013
O  O244  1  0.42792938  0.16997978  0.27450654  1  -1.216218  0.070231  -0.325887  -0.55244  0.050695  2.401282  0.031
O  O245  1  0.57276715  0.66943967  0.22568226  1  -1.216304  0.069627  -0.324677  -0.551107  0.05028  2.398331  0.031
O  O246  1  0.57113977  0.82975768  0.72357266  1  -1.216576  -0.069085  -0.325405  -0.553947  -0.049283  2.394315  -0.031
O  O247  1  0.42846929  0.33609129  0.78101537  1  -1.162681  -0.00168  -0.292795  -0.506725  -0.001284  2.278857  0.003
O  O248  1  0.37196732  0.23847805  0.35979782  1  -1.164387  0.015993  -0.318017  -0.533839  0.011874  2.140784  0.013
O  O249  1  0.62804365  0.73732370  0.14016395  1  -1.167045  0.015897  -0.318742  -0.534575  0.011843  2.140309  0.013
O  O250  1  0.63013543  0.76227732  0.63824497  1  -1.16316  -0.015611  -0.319523  -0.534586  -0.011577  2.130806  -0.013
O  O251  1  0.36250794  0.25679676  0.85396231  1  -1.152659  0.001081  -0.320097  -0.536132  0.000917  2.143428  0.001
