# generated using pymatgen
data_CuH12(C2N)8
_symmetry_space_group_name_H-M   'P 1'
_cell_length_a   9.07499203
_cell_length_b   9.97990247
_cell_length_c   11.24871236
_cell_angle_alpha   74.91708748
_cell_angle_beta   66.20043987
_cell_angle_gamma   62.96163716
_symmetry_Int_Tables_number   1
_chemical_formula_structural   CuH12(C2N)8
_chemical_formula_sum   'Cu2 H24 C32 N16'
_cell_volume   826.56247521
_cell_formula_units_Z   2
loop_
 _symmetry_equiv_pos_site_id
 _symmetry_equiv_pos_as_xyz
  1  'x, y, z'
loop_
 _atom_site_type_symbol
 _atom_site_label
 _atom_site_symmetry_multiplicity
 _atom_site_fract_x
 _atom_site_fract_y
 _atom_site_fract_z
 _atom_site_occupancy
 _atom_site_hle17_ddec_charge
 _atom_site_hle17_ddec_spin_density
 _atom_site_hle17_ddec_sum_bond_order
 _atom_site_hle17_magmom
 _atom_site_hse06_10hf_ddec_charge
 _atom_site_hse06_10hf_ddec_spin_density
 _atom_site_hse06_10hf_ddec_sum_bond_order
 _atom_site_hse06_10hf_magmom
 _atom_site_hse06_ddec_charge
 _atom_site_hse06_ddec_spin_density
 _atom_site_hse06_ddec_sum_bond_order
 _atom_site_hse06_magmom
 _atom_site_pbe_cm5_charge
 _atom_site_pbe_ddec_charge
 _atom_site_pbe_ddec_spin_density
 _atom_site_pbe_ddec_sum_bond_order
 _atom_site_pbe_magmom
Cu  Cu0  1  0.00000082  0.00000053  0.49999877  1  0.908821  0.769074  1.94967  0.539  0.887133  0.831994  2.352467  0.648  0.961353  0.903001  2.292116  0.725  0.825691  0.842555  0.780701  2.393214  0.596
Cu  Cu1  1  0.49999893  0.49999807  0.00000077  1  0.912183  -0.771347  1.947473  -0.541  0.889614  -0.832767  2.350484  -0.648  0.963601  -0.903577  2.29058  -0.726  0.82691  0.844787  -0.780783  2.391671  -0.596
H  H2  1  0.20532526  0.83948290  0.68074863  1  0.087944  0.001571  0.941897  0.002  0.093897  0.001172  1.006914  0.002  0.094759  0.000812  1.006108  0.001  0.118143  0.093115  0.00146  1.007734  0.002
H  H3  1  0.27427718  0.33943214  0.18090679  1  0.087733  -0.001529  0.942522  -0.002  0.093825  -0.001134  1.007302  -0.002  0.094727  -0.000788  1.006393  -0.001  0.1175  0.092941  -0.001461  1.008219  -0.002
H  H4  1  0.79467650  0.16051885  0.31924694  1  0.087949  0.001567  0.941881  0.002  0.093872  0.001172  1.006937  0.002  0.094736  0.000812  1.006125  0.001  0.118117  0.093089  0.00146  1.007758  0.002
H  H5  1  0.72571979  0.66056505  0.81909239  1  0.087739  -0.001531  0.942488  -0.002  0.093806  -0.001134  1.007283  -0.002  0.094707  -0.000788  1.006374  -0.001  0.117495  0.092926  -0.001461  1.008202  -0.002
H  H6  1  0.36327952  0.89842834  0.78291938  1  0.116626  0.000678  0.95371  0.001  0.125948  0.000531  1.015035  0.001  0.128085  0.000361  1.015142  0.0  0.106348  0.124271  0.000707  1.015411  0.001
H  H7  1  0.95517579  0.39846099  0.28308356  1  0.11884  -0.000741  0.953226  -0.001  0.12784  -0.000553  1.014653  -0.001  0.12995  -0.000375  1.014813  0.0  0.106873  0.126237  -0.000705  1.014845  -0.001
H  H8  1  0.63672246  0.10157115  0.21707597  1  0.116632  0.000678  0.953736  0.001  0.125992  0.000531  1.015008  0.001  0.128129  0.000361  1.015114  0.0  0.106387  0.124313  0.000707  1.015382  0.001
H  H9  1  0.04481939  0.60154185  0.71691559  1  0.118838  -0.00074  0.953206  -0.001  0.127833  -0.000553  1.01464  -0.001  0.129943  -0.000375  1.014798  0.0  0.10687  0.126231  -0.000705  1.014832  -0.001
H  H10  1  0.27928967  0.31995802  0.53586209  1  0.108069  0.000664  0.995198  0.001  0.113784  0.000477  1.061091  0.001  0.116053  0.000309  1.061641  0.0  0.103825  0.112099  0.000681  1.061024  0.001
H  H11  1  0.86506580  0.81974174  0.03563390  1  0.107261  -0.000768  0.995472  -0.001  0.112851  -0.000523  1.061773  -0.001  0.115143  -0.000348  1.062308  0.0  0.10325  0.111091  -0.00068  1.061674  -0.001
H  H12  1  0.72070952  0.68004142  0.46413849  1  0.107999  0.000663  0.995191  0.001  0.113712  0.000477  1.061103  0.001  0.115981  0.000309  1.061654  0.0  0.103808  0.112031  0.000681  1.061034  0.001
H  H13  1  0.13493426  0.18026108  0.96436760  1  0.107259  -0.000766  0.995438  -0.001  0.112852  -0.000523  1.061742  -0.001  0.115144  -0.000348  1.062278  0.0  0.103247  0.11109  -0.00068  1.061642  -0.001
H  H14  1  0.12961381  0.24015445  0.44134521  1  0.085352  0.001284  0.950957  0.002  0.092493  0.001032  1.015653  0.001  0.093545  0.000723  1.014282  0.001  0.11772  0.091752  0.001327  1.016565  0.002
H  H15  1  0.18910504  0.73988750  0.94121526  1  0.086352  -0.001324  0.950048  -0.002  0.093372  -0.001052  1.014873  -0.001  0.09443  -0.000736  1.013449  -0.001  0.118183  0.092503  -0.001328  1.015963  -0.002
H  H16  1  0.87038885  0.75984501  0.55865309  1  0.085372  0.001284  0.950939  0.002  0.09251  0.001031  1.015636  0.001  0.093562  0.000723  1.014265  0.001  0.117735  0.091776  0.001327  1.01654  0.002
H  H17  1  0.81089341  0.26011304  0.05878908  1  0.086349  -0.001327  0.950087  -0.002  0.093411  -0.001052  1.014865  -0.001  0.094436  -0.000736  1.013478  -0.001  0.118197  0.092541  -0.001328  1.015951  -0.002
H  H18  1  0.54860895  0.14399985  0.67693700  1  0.098529  -0.000401  0.943912  0.0  0.115041  -0.000164  1.004835  0.0  0.114726  -0.000172  1.007028  0.0  0.099021  0.115166  -0.000155  1.003444  0.0
H  H19  1  0.63042972  0.64407403  0.17680828  1  0.09841  0.000404  0.943371  0.0  0.114795  0.000158  1.003963  0.0  0.114524  0.000166  1.00614  0.0  0.099203  0.114909  0.000155  1.002562  0.0
H  H20  1  0.45138742  0.85600184  0.32306520  1  0.098503  -0.000401  0.943944  0.0  0.115026  -0.000165  1.004878  0.0  0.114713  -0.000172  1.007067  0.0  0.099012  0.115149  -0.000155  1.003489  0.0
H  H21  1  0.36956878  0.35592881  0.82319116  1  0.098386  0.000408  0.943381  0.0  0.114772  0.000158  1.003983  0.0  0.114501  0.000167  1.00616  0.0  0.099203  0.114888  0.000155  1.00258  0.0
H  H22  1  0.41503160  0.09425024  0.82994843  1  0.080738  -5.2e-05  0.953406  0.0  0.092372  -8e-06  1.022926  0.0  0.093454  -9e-06  1.022973  0.0  0.092559  0.091816  -1.7e-05  1.022527  0.0
H  H23  1  0.66064038  0.59427169  0.32984364  1  0.080508  5.5e-05  0.953022  0.0  0.092637  1.8e-05  1.021598  0.0  0.09371  1.5e-05  1.021711  0.0  0.092514  0.091605  1.7e-05  1.021981  0.0
H  H24  1  0.58496269  0.90575260  0.17005162  1  0.080728  -5.7e-05  0.953382  0.0  0.092383  -8e-06  1.022896  0.0  0.093464  -8e-06  1.022944  0.0  0.092554  0.091828  -1.7e-05  1.022498  0.0
H  H25  1  0.33935657  0.40573117  0.67015373  1  0.080576  5.4e-05  0.952958  0.0  0.092702  1.7e-05  1.021532  0.0  0.093781  1.5e-05  1.021631  0.0  0.092536  0.091667  1.7e-05  1.021922  0.0
C  C26  1  0.25785914  0.66870162  0.43775497  1  0.518176  -0.007805  3.973249  -0.004  0.493527  0.001283  4.253445  0.006  0.523838  -0.000209  4.260524  0.003  0.319232  0.47313  0.002548  4.248125  0.007
C  C27  1  0.63564752  0.16875551  0.93769893  1  0.518485  0.007303  3.973464  0.004  0.493668  -0.001387  4.253268  -0.006  0.523903  0.000125  4.26034  -0.004  0.320191  0.473088  -0.002522  4.248057  -0.007
C  C28  1  0.74213969  0.33129668  0.56224658  1  0.518101  -0.007798  3.973413  -0.004  0.493452  0.001274  4.253594  0.006  0.523766  -0.000206  4.260675  0.004  0.31924  0.473057  0.002548  4.248272  0.007
C  C29  1  0.36435323  0.83124391  0.06230371  1  0.518486  0.0073  3.973551  0.004  0.493672  -0.001399  4.25332  -0.006  0.523906  0.00013  4.260389  -0.004  0.320234  0.473093  -0.00252  4.248114  -0.007
C  C30  1  0.43162763  0.46273145  0.31625006  1  0.47721  -0.003648  3.98747  -0.004  0.45056  0.00031  4.279957  0.0  0.476005  0.000392  4.289869  0.0  0.290776  0.433416  0.000215  4.273059  0.0
C  C31  1  0.78901685  0.96276393  0.81618025  1  0.475749  0.0033  3.991508  0.004  0.449028  -0.000273  4.283834  0.0  0.474414  -0.00038  4.293757  0.0  0.290174  0.431864  -0.000218  4.276676  0.0
C  C32  1  0.56837616  0.53726348  0.68375075  1  0.477154  -0.003643  3.98759  -0.004  0.450498  0.000305  4.280075  0.0  0.475948  0.000397  4.289989  0.0  0.290799  0.433354  0.000215  4.273179  0.0
C  C33  1  0.21099114  0.03723329  0.18381634  1  0.475717  0.003301  3.991355  0.004  0.448983  -0.000298  4.283691  0.0  0.47437  -0.000372  4.293621  0.0  0.290116  0.431816  -0.000218  4.276525  0.0
C  C34  1  0.22460763  0.94488332  0.65200620  1  0.13239  -0.007458  3.701276  -0.008  0.104871  -0.000614  3.957806  -0.001  0.114177  -0.001947  3.978515  -0.003  0.046293  0.099068  0.000433  3.943809  0.0
C  C35  1  0.17840170  0.44479118  0.15208400  1  0.133057  0.007521  3.702555  0.008  0.105757  0.000639  3.958414  0.001  0.11508  0.001972  3.979093  0.003  0.046409  0.099713  -0.000437  3.944603  0.0
C  C36  1  0.77538918  0.05511951  0.34799373  1  0.132386  -0.00744  3.701222  -0.008  0.104888  -0.000614  3.957769  -0.001  0.114196  -0.001947  3.978477  -0.003  0.046288  0.099083  0.000433  3.943767  0.0
C  C37  1  0.82159468  0.55520714  0.84791638  1  0.133101  0.007526  3.702542  0.008  0.105855  0.000638  3.958361  0.001  0.115178  0.001971  3.979041  0.003  0.046435  0.099808  -0.000437  3.94456  0.0
C  C38  1  0.31192910  0.97983903  0.70885069  1  -0.173746  0.012484  3.695543  0.013  -0.192161  0.004526  3.941968  0.005  -0.201397  0.003983  3.96437  0.005  -0.086756  -0.186089  0.005069  3.927017  0.006
C  C39  1  0.99925219  0.47980163  0.20893572  1  -0.17594  -0.012483  3.696598  -0.013  -0.194485  -0.004498  3.943338  -0.005  -0.203762  -0.003959  3.965773  -0.005  -0.086409  -0.188463  -0.005076  3.928423  -0.006
C  C40  1  0.68807452  0.02016045  0.29114544  1  -0.173775  0.012473  3.695501  0.013  -0.192239  0.004527  3.941898  0.005  -0.201474  0.003983  3.964298  0.005  -0.086798  -0.186166  0.005069  3.926939  0.006
C  C41  1  0.00074336  0.52019898  0.79106064  1  -0.175976  -0.012489  3.696576  -0.013  -0.194525  -0.004498  3.943304  -0.005  -0.203802  -0.00396  3.965741  -0.005  -0.086414  -0.188502  -0.005076  3.928395  -0.006
C  C42  1  0.33063463  0.11794084  0.67138751  1  0.168633  -0.009725  3.703735  -0.009  0.184006  -0.002909  3.939345  -0.003  0.190147  -0.003186  3.960588  -0.003  0.018493  0.180085  -0.002754  3.924836  -0.003
C  C43  1  0.88003167  0.61786570  0.17133786  1  0.16779  0.009801  3.702293  0.01  0.182979  0.002926  3.937454  0.003  0.189108  0.003192  3.958763  0.003  0.016892  0.178892  0.002756  3.922955  0.003
C  C44  1  0.66936662  0.88205975  0.32861160  1  0.168558  -0.009717  3.703683  -0.009  0.183993  -0.002911  3.939249  -0.003  0.190134  -0.003187  3.960491  -0.003  0.01848  0.180076  -0.002754  3.924733  -0.003
C  C45  1  0.11996485  0.38213601  0.82866177  1  0.167817  0.009809  3.702202  0.01  0.183015  0.002925  3.937379  0.003  0.189142  0.003193  3.958691  0.003  0.016911  0.178929  0.002755  3.92288  0.003
C  C46  1  0.26699805  0.21182593  0.57125707  1  -0.173733  0.011878  3.700344  0.012  -0.189137  0.004472  3.9429  0.005  -0.19849  0.003969  3.965541  0.005  -0.090349  -0.1831  0.004851  3.92788  0.006
C  C47  1  0.95004396  0.71163431  0.07110888  1  -0.170413  -0.011609  3.701269  -0.012  -0.185783  -0.00434  3.943606  -0.005  -0.195166  -0.00388  3.966318  -0.005  -0.088217  -0.179676  -0.00485  3.928444  -0.006
C  C48  1  0.73300654  0.78817128  0.42874051  1  -0.173588  0.011873  3.700351  0.012  -0.189013  0.004472  3.942892  0.005  -0.198367  0.003969  3.965533  0.005  -0.090302  -0.182982  0.004851  3.927871  0.006
C  C49  1  0.04995440  0.28836851  0.92889312  1  -0.170418  -0.011623  3.701188  -0.012  -0.185809  -0.004338  3.943565  -0.005  -0.195191  -0.003881  3.966269  -0.005  -0.088231  -0.179701  -0.004849  3.928397  -0.006
C  C50  1  0.18164726  0.16978436  0.51862221  1  0.128851  -0.006772  3.712958  -0.007  0.102608  -0.000391  3.965703  -0.001  0.11192  -0.001715  3.985852  -0.003  0.044372  0.096624  0.000642  3.95212  0.0
C  C51  1  0.13006873  0.66957461  0.01853716  1  0.125569  0.006683  3.715802  0.007  0.099277  0.000353  3.968644  0.001  0.108585  0.001689  3.988854  0.003  0.042598  0.093251  -0.000638  3.95508  0.0
C  C52  1  0.81835511  0.83021397  0.48137579  1  0.128849  -0.006768  3.712998  -0.007  0.102625  -0.000391  3.965723  -0.001  0.111938  -0.001715  3.985872  -0.003  0.044376  0.096638  0.000641  3.95215  0.0
C  C53  1  0.86992950  0.33042481  0.98146559  1  0.125543  0.006699  3.715823  0.007  0.099224  0.000352  3.968681  0.001  0.108556  0.00169  3.988899  0.003  0.042581  0.0932  -0.000638  3.955111  0.0
C  C54  1  0.41123712  0.16574495  0.73776421  1  -0.162616  0.000974  3.673508  0.001  -0.203762  0.000157  3.920042  0.0  -0.205232  9.7e-05  3.931846  0.0  -0.158165  -0.202594  0.000219  3.911652  0.0
C  C55  1  0.68520892  0.66577457  0.23766735  1  -0.164769  -0.000945  3.672864  -0.001  -0.204867  -0.000132  3.917733  0.0  -0.206465  -8.2e-05  3.929622  0.0  -0.159415  -0.203385  -0.000218  3.909497  0.0
C  C56  1  0.58875968  0.83425788  0.26223572  1  -0.162505  0.000982  3.673357  0.001  -0.203728  0.000159  3.919917  0.0  -0.205196  9.7e-05  3.931721  0.0  -0.158171  -0.202571  0.000219  3.911538  0.0
C  C57  1  0.31479136  0.33422828  0.76233031  1  -0.16475  -0.000947  3.672796  -0.001  -0.204857  -0.000131  3.91768  0.0  -0.20645  -8.2e-05  3.929567  0.0  -0.159437  -0.203376  -0.000218  3.90944  0.0
N  N58  1  0.18090113  0.79524690  0.46341389  1  -0.603113  0.061842  2.998731  0.072  -0.586392  0.043861  3.310355  0.054  -0.61553  0.037719  3.311593  0.048  -0.410465  -0.567954  0.04747  3.309916  0.057
N  N59  1  0.56061492  0.29526522  0.96343470  1  -0.603931  -0.06156  3.000661  -0.072  -0.586528  -0.043841  3.311829  -0.054  -0.61565  -0.037701  3.313194  -0.048  -0.41092  -0.568113  -0.047486  3.311831  -0.057
N  N60  1  0.81909629  0.20475253  0.53658847  1  -0.603074  0.061831  2.998837  0.072  -0.586349  0.043872  3.310453  0.054  -0.615488  0.037714  3.31169  0.048  -0.410464  -0.567909  0.047468  3.310013  0.057
N  N61  1  0.43937979  0.70473189  0.03657524  1  -0.603991  -0.061561  3.00079  -0.072  -0.5866  -0.043817  3.311958  -0.054  -0.61572  -0.037704  3.31332  -0.048  -0.41097  -0.568185  -0.047485  3.311965  -0.057
N  N62  1  0.33888154  0.52625128  0.42487355  1  -0.457845  0.008575  3.315309  0.011  -0.408137  0.001132  3.570987  0.002  -0.43163  0.000178  3.572496  0.001  -0.308133  -0.391723  0.001923  3.569177  0.003
N  N63  1  0.70971935  0.02631650  0.92477110  1  -0.458023  -0.007386  3.315793  -0.01  -0.407914  -0.000892  3.571451  -0.002  -0.431261  -4.8e-05  3.572878  -0.001  -0.309242  -0.391281  -0.001872  3.569166  -0.003
N  N64  1  0.66111352  0.47374587  0.57512997  1  -0.457717  0.008576  3.315463  0.011  -0.407998  0.001123  3.571132  0.002  -0.431492  0.000181  3.572639  0.001  -0.30811  -0.391583  0.001923  3.569323  0.003
N  N65  1  0.29029966  0.97368182  0.07522832  1  -0.457941  -0.007372  3.315703  -0.01  -0.407809  -0.000914  3.571351  -0.002  -0.431155  -4.7e-05  3.572775  -0.001  -0.309221  -0.391178  -0.001871  3.569063  -0.003
N  N66  1  0.51771768  0.39282482  0.22434610  1  -0.589272  0.008738  2.700219  0.008  -0.580495  0.001375  2.973566  0.001  -0.598612  0.000807  2.977842  0.0  -0.371995  -0.568432  0.002025  2.97128  0.001
N  N67  1  0.86479841  0.89275351  0.72433367  1  -0.588596  -0.008032  2.702615  -0.008  -0.579537  -0.001347  2.975914  -0.001  -0.597642  -0.000776  2.980214  0.0  -0.370964  -0.567425  -0.001974  2.973295  -0.001
N  N68  1  0.48228716  0.60716893  0.77566031  1  -0.589291  0.008734  2.7002  0.008  -0.58052  0.001383  2.973564  0.001  -0.598645  0.000801  2.977846  0.0  -0.372026  -0.568457  0.002025  2.971283  0.001
N  N69  1  0.13519850  0.10724367  0.27566680  1  -0.588618  -0.008038  2.702506  -0.008  -0.57955  -0.001312  2.9758  -0.001  -0.597657  -0.000784  2.980104  0.0  -0.37094  -0.567438  -0.001974  2.973175  -0.001
N  N70  1  0.15679607  0.04017424  0.56074469  1  -0.29623  0.102578  3.348547  0.125  -0.252776  0.06585  3.639885  0.087  -0.286579  0.053087  3.667004  0.074  -0.343373  -0.231729  0.073777  3.622518  0.094
N  N71  1  0.24230110  0.54001141  0.06075446  1  -0.294589  -0.102965  3.347477  -0.125  -0.251569  -0.065826  3.638752  -0.087  -0.285383  -0.053001  3.665856  -0.074  -0.342473  -0.230374  -0.073848  3.621368  -0.095
N  N72  1  0.84320577  0.95982523  0.43925322  1  -0.296251  0.102574  3.348526  0.125  -0.252814  0.065852  3.639865  0.087  -0.286618  0.053088  3.666982  0.074  -0.343366  -0.231768  0.073781  3.622498  0.094
N  N73  1  0.75769772  0.45998690  0.93924710  1  -0.294602  -0.102974  3.347537  -0.125  -0.251602  -0.065824  3.638815  -0.087  -0.285415  -0.052999  3.665911  -0.074  -0.342464  -0.230406  -0.073845  3.621433  -0.095
