# generated using pymatgen
data_CuPH14C9S2NO2
_symmetry_space_group_name_H-M   'P 1'
_cell_length_a   5.90413609
_cell_length_b   7.91367771
_cell_length_c   13.86283341
_cell_angle_alpha   102.88867956
_cell_angle_beta   94.81411275
_cell_angle_gamma   101.46914810
_symmetry_Int_Tables_number   1
_chemical_formula_structural   CuPH14C9S2NO2
_chemical_formula_sum   'Cu2 P2 H28 C18 S4 N2 O4'
_cell_volume   613.18865991
_cell_formula_units_Z   2
loop_
 _symmetry_equiv_pos_site_id
 _symmetry_equiv_pos_as_xyz
  1  'x, y, z'
loop_
 _atom_site_type_symbol
 _atom_site_label
 _atom_site_symmetry_multiplicity
 _atom_site_fract_x
 _atom_site_fract_y
 _atom_site_fract_z
 _atom_site_occupancy
 _atom_site_pbe_bader_spin_density
 _atom_site_pbe_cm5_charge
 _atom_site_pbe_ddec_charge
 _atom_site_pbe_ddec_spin_density
 _atom_site_pbe_ddec_sum_bond_order
 _atom_site_pbe_magmom
Cu  Cu0  1  0.09379199  0.95531301  0.68048355  1  0  0.404459  0.315682  0  2.526523  0
Cu  Cu1  1  0.90622115  0.04467410  0.31952455  1  0  0.404577  0.315665  0  2.526735  0
P  P2  1  0.59214533  0.87792958  0.77185829  1  0  0.248356  0.84291  0  5.376363  0
P  P3  1  0.40785553  0.12207314  0.22814389  1  0  0.24834  0.842805  0  5.376247  0
H  H4  1  0.34023169  0.12564456  0.54394309  1  0  0.100299  0.085415  0  1.030822  0
H  H5  1  0.65973741  0.87434195  0.45605719  1  0  0.100264  0.085354  0  1.030672  0
H  H6  1  0.31139347  0.35755791  0.45636670  1  0  0.095382  0.108626  0  1.060709  0
H  H7  1  0.68856498  0.64240709  0.54362262  1  0  0.095411  0.108587  0  1.060844  0
H  H8  1  0.72564657  0.45287663  0.61347742  1  0  0.102991  0.114173  0  1.026599  0
H  H9  1  0.27438802  0.54712966  0.38655051  1  0  0.102962  0.114202  0  1.02623  0
H  H10  1  0.77485204  0.20989268  0.69203245  1  0  0.109506  0.082937  0  1.03906  0
H  H11  1  0.22516838  0.79011070  0.30799016  1  0  0.109521  0.083009  0  1.039125  0
H  H12  1  0.16490955  0.54286698  0.80699657  1  0  0.095606  0.066707  0  0.990528  0
H  H13  1  0.83509675  0.45711401  0.19297875  1  0  0.095629  0.066769  0  0.990395  0
H  H14  1  0.35056937  0.53882815  0.71284192  1  0  0.090217  0.048992  0  1.03175  0
H  H15  1  0.64946499  0.46117067  0.28714977  1  0  0.09027  0.049021  0  1.031811  0
H  H16  1  0.41708807  0.32555396  0.81864408  1  0  0.090156  0.13167  0  1.030065  0
H  H17  1  0.58292952  0.67444758  0.18135727  1  0  0.09015  0.131634  0  1.030098  0
H  H18  1  0.67186240  0.49642490  0.83033793  1  0  0.080614  0.119957  0  1.038917  0
H  H19  1  0.32814761  0.50358580  0.16966271  1  0  0.080591  0.119892  0  1.038907  0
H  H20  1  0.48950230  0.50675985  0.92651878  1  0  0.086946  0.120492  0  1.024899  0
H  H21  1  0.51049532  0.49325463  0.07347886  1  0  0.086912  0.120474  0  1.024832  0
H  H22  1  0.74611974  0.00092329  0.96769662  1  0  0.104087  0.069109  0  0.994412  0
H  H23  1  0.25387347  0.99910051  0.03230552  1  0  0.104067  0.069122  0  0.99432  0
H  H24  1  0.62412289  0.19116464  0.98886650  1  0  0.104647  0.077224  0  0.987422  0
H  H25  1  0.37587473  0.80886173  0.01113038  1  0  0.104653  0.077214  0  0.987592  0
H  H26  1  0.05856992  0.27671042  0.02922496  1  0  0.08559  0.125482  0  1.039079  0
H  H27  1  0.94143654  0.72330399  0.97076586  1  0  0.085546  0.125466  0  1.039168  0
H  H28  1  0.96856101  0.36041227  0.92634614  1  0  0.087233  0.12256  0  1.013187  0
H  H29  1  0.03144812  0.63958612  0.07363714  1  0  0.087272  0.122602  0  1.013128  0
H  H30  1  0.08783483  0.16675419  0.90530565  1  0  0.082627  0.117568  0  1.040816  0
H  H31  1  0.91216180  0.83323766  0.09468567  1  0  0.082631  0.117569  0  1.040807  0
C  C32  1  0.20549373  0.20109781  0.55731042  1  0  0.033814  0.086877  0  3.937772  0
C  C33  1  0.79450608  0.79888382  0.44269500  1  0  0.033822  0.086931  0  3.937466  0
C  C34  1  0.18754477  0.33369174  0.50832008  1  0  -0.089394  -0.181171  0  3.97392  0
C  C35  1  0.81244107  0.66628322  0.49168825  1  0  -0.089406  -0.181112  0  3.973793  0
C  C36  1  0.01298967  0.43007651  0.52580492  1  0  0.010278  0.106084  0  3.961591  0
C  C37  1  0.98700133  0.56992225  0.47420139  1  0  0.010246  0.105969  0  3.961949  0
C  C38  1  0.86381136  0.38393479  0.59433381  1  0  -0.07986  -0.145476  0  3.912154  0
C  C39  1  0.13616634  0.61607706  0.40567200  1  0  -0.079822  -0.145512  0  3.912089  0
C  C40  1  0.89126867  0.24863287  0.63992512  1  0  0.037543  0.083081  0  3.925549  0
C  C41  1  0.10873268  0.75139274  0.36009420  1  0  0.037536  0.083037  0  3.925753  0
C  C42  1  0.34813752  0.57088292  0.79410807  1  0  -0.067606  0.125971  0  3.849937  0
C  C43  1  0.65187285  0.42911572  0.20588539  1  0  -0.06769  0.125789  0  3.850017  0
C  C44  1  0.49039364  0.46914090  0.84542337  1  0  -0.254024  -0.403552  0  3.935685  0
C  C45  1  0.50962017  0.53086445  0.15457321  1  0  -0.253988  -0.403412  0  3.935559  0
C  C46  1  0.73730722  0.12259928  0.94335907  1  0  -0.061994  0.125064  0  3.820145  0
C  C47  1  0.26269373  0.87740858  0.05663649  1  0  -0.062034  0.124994  0  3.820485  0
C  C48  1  0.97750721  0.23892607  0.95088453  1  0  -0.252397  -0.403529  0  3.942041  0
C  C49  1  0.02248438  0.76107758  0.04910434  1  0  -0.252422  -0.403547  0  3.942032  0
S  S50  1  0.89755014  0.80145873  0.77080755  1  0  -0.228083  -0.511826  0  2.79276  0
S  S51  1  0.10245272  0.19854018  0.22920076  1  0  -0.228082  -0.511776  0  2.792896  0
S  S52  1  0.42784398  0.87067174  0.63905678  1  0  -0.216137  -0.510856  0  2.703141  0
S  S53  1  0.57215663  0.12932289  0.36093866  1  0  -0.216131  -0.510802  0  2.703308  0
N  N54  1  0.05951765  0.15601699  0.62206969  1  0  -0.368388  -0.206814  0  3.663232  0
N  N55  1  0.94046312  0.84398837  0.37793983  1  0  -0.368387  -0.206815  0  3.663729  0
O  O56  1  0.43097188  0.76227547  0.83355788  1  0  -0.217816  -0.353583  0  2.529605  0
O  O57  1  0.56902239  0.23772706  0.16643892  1  0  -0.217808  -0.35351  0  2.529563  0
O  O58  1  0.61730711  0.07444257  0.84064529  1  0  -0.214648  -0.359713  0  2.542487  0
O  O59  1  0.38267738  0.92553586  0.15934246  1  0  -0.214635  -0.359681  0  2.542288  0
