# generated using pymatgen
data_Cu4H6C18SeO15
_symmetry_space_group_name_H-M   'P 1'
_cell_length_a   12.41523407
_cell_length_b   14.28537663
_cell_length_c   20.37634962
_cell_angle_alpha   89.97717371
_cell_angle_beta   107.65844272
_cell_angle_gamma   89.96487357
_symmetry_Int_Tables_number   1
_chemical_formula_structural   Cu4H6C18SeO15
_chemical_formula_sum   'Cu16 H24 C72 Se4 O60'
_cell_volume   3443.59315713
_cell_formula_units_Z   4
loop_
 _symmetry_equiv_pos_site_id
 _symmetry_equiv_pos_as_xyz
  1  'x, y, z'
loop_
 _atom_site_type_symbol
 _atom_site_label
 _atom_site_symmetry_multiplicity
 _atom_site_fract_x
 _atom_site_fract_y
 _atom_site_fract_z
 _atom_site_occupancy
 _atom_site_pbe_bader_charge
 _atom_site_pbe_bader_spin_density
 _atom_site_pbe_cm5_charge
 _atom_site_pbe_ddec_charge
 _atom_site_pbe_ddec_spin_density
 _atom_site_pbe_ddec_sum_bond_order
 _atom_site_pbe_magmom
Cu  Cu0  1  0.46495687  0.99202619  0.54981207  1  1.067932  0.534689  0.710141  0.838882  0.688932  2.206299  0.536
Cu  Cu1  1  0.91529690  0.50822840  0.45014505  1  1.065327  0.535071  0.711172  0.840452  0.689718  2.208248  0.537
Cu  Cu2  1  0.53497063  0.00820788  0.45021379  1  1.06821  0.534792  0.710401  0.83915  0.689366  2.206508  0.536
Cu  Cu3  1  0.08462057  0.49191330  0.54967791  1  1.064813  0.534511  0.710998  0.839599  0.688966  2.210465  0.536
Cu  Cu4  1  0.93331010  0.94476263  0.88354376  1  1.158927  0.593668  0.70411  0.982355  0.751394  2.235733  0.593
Cu  Cu5  1  0.05083745  0.55572847  0.11680930  1  1.160155  0.578729  0.706726  0.983991  0.732815  2.241619  0.578
Cu  Cu6  1  0.06640916  0.05563651  0.11665258  1  1.16184  0.586283  0.70934  0.98991  0.741869  2.239491  0.585
Cu  Cu7  1  0.94911679  0.44365384  0.88389944  1  1.162431  0.587373  0.708181  0.991024  0.743193  2.227145  0.586
Cu  Cu8  1  0.71838324  0.05999032  0.91659923  1  1.099486  0.559987  0.715439  0.909237  0.714398  2.248155  0.56
Cu  Cu9  1  0.80376845  0.44038631  0.08263925  1  1.103418  0.509298  0.723555  0.919849  0.650272  2.275191  0.509
Cu  Cu10  1  0.27984404  0.94060994  0.08260342  1  1.104659  0.506115  0.724317  0.92018  0.646046  2.274823  0.506
Cu  Cu11  1  0.19670834  0.55968955  0.91738465  1  1.10593  0.505382  0.724963  0.920845  0.64513  2.277971  0.505
Cu  Cu12  1  0.72921836  0.30490805  0.90108309  1  1.150998  0.587467  0.696267  0.993609  0.727262  2.089222  0.583
Cu  Cu13  1  0.83107347  0.19285141  0.09399593  1  1.155877  -0.518103  0.693913  1.004127  -0.671557  2.09198  -0.514
Cu  Cu14  1  0.26442766  0.69281087  0.09472556  1  1.151266  -0.522434  0.693434  0.998477  -0.677653  2.103955  -0.519
Cu  Cu15  1  0.16890217  0.80752531  0.90513610  1  1.147759  -0.517393  0.692639  0.997759  -0.67095  2.104295  -0.514
H  H16  1  0.03648575  0.69939912  0.69323000  1  0.151813  0.000265  0.11578  0.130318  0.000182  0.984602  0.0
H  H17  1  0.34342180  0.80080360  0.30670620  1  0.11592  0.000272  0.11576  0.129792  0.000177  0.985722  0.0
H  H18  1  0.96336901  0.30073290  0.30662793  1  0.151325  0.000266  0.115662  0.130267  0.000182  0.984291  0.0
H  H19  1  0.65783458  0.19862042  0.69370259  1  0.120197  0.000688  0.115596  0.129634  0.000522  0.985287  0.0
H  H20  1  0.78566551  0.90926900  0.68912865  1  0.136542  0.000451  0.115701  0.129498  0.00037  0.987578  0.0
H  H21  1  0.09687627  0.59112502  0.31086634  1  0.129114  0.000444  0.116059  0.130435  0.000367  0.986709  0.0
H  H22  1  0.21408025  0.09073151  0.31075880  1  0.136348  0.000451  0.115818  0.129771  0.000371  0.987297  0.0
H  H23  1  0.90403219  0.40872766  0.68919516  1  0.142156  0.00045  0.116152  0.130312  0.000348  0.985362  0.0
H  H24  1  0.76839393  0.75286568  0.50522847  1  0.128156  0.000614  0.117958  0.131734  0.000434  0.977415  0.0
H  H25  1  0.26293068  0.74721703  0.49482480  1  0.126321  0.000627  0.118032  0.131813  0.000439  0.977575  0.0
H  H26  1  0.23140343  0.24718026  0.49463611  1  0.095877  0.000635  0.117749  0.131549  0.000436  0.977662  0.0
H  H27  1  0.73668261  0.25308515  0.50526023  1  0.130272  0.000616  0.118726  0.132765  0.000433  0.97671  0.0
H  H28  1  0.79568607  0.68928301  0.88512742  1  0.116498  0.000419  0.098422  0.086838  0.000228  1.078065  0.0
H  H29  1  0.91100221  0.80995386  0.11507184  1  0.072443  0.000379  0.09832  0.08674  0.00024  1.079461  0.0
H  H30  1  0.20483138  0.31007149  0.11542465  1  0.116495  0.000446  0.098624  0.086013  0.000349  1.081405  0.0
H  H31  1  0.08804587  0.19007515  0.88517546  1  0.126836  0.000322  0.099374  0.088503  0.000197  1.075256  0.0
H  H32  1  0.51273616  0.53295299  0.90851428  1  0.154519  0.000314  0.118068  0.134345  0.000252  0.979612  0.0
H  H33  1  0.60488048  0.96689836  0.09143379  1  0.123425  -1.5e-05  0.118416  0.135183  5e-06  0.978612  0.0
H  H34  1  0.48696710  0.46679327  0.09132795  1  0.158627  -1.3e-05  0.118555  0.1351  8e-06  0.978889  0.0
H  H35  1  0.39416663  0.03343758  0.90806726  1  0.132832  2e-06  0.119131  0.13589  -1.6e-05  0.977042  0.0
H  H36  1  0.50393197  0.83439404  0.90488615  1  0.147131  0.000101  0.117929  0.133323  2.7e-05  0.984502  0.0
H  H37  1  0.59931234  0.66546377  0.09511142  1  0.143692  0.000105  0.118125  0.133149  2.4e-05  0.984707  0.0
H  H38  1  0.49648402  0.16535462  0.09505000  1  0.147063  0.000107  0.117905  0.132839  2.8e-05  0.985309  0.0
H  H39  1  0.39933887  0.33487288  0.90460450  1  0.13983  0.000347  0.118078  0.133515  0.000243  0.98438  0.0
C  C40  1  0.94396200  0.63772193  0.56152480  1  1.535058  -0.001464  0.218435  0.579381  0.000891  4.149729  -0.005
C  C41  1  0.38246756  0.86233640  0.43856808  1  1.540413  -0.001467  0.218824  0.580148  0.000885  4.147689  -0.005
C  C42  1  0.05590639  0.36237086  0.43832690  1  1.534793  -0.001457  0.217809  0.578276  0.000893  4.150376  -0.005
C  C43  1  0.61756432  0.13784218  0.56161180  1  1.53908  -0.001454  0.219031  0.580428  0.000877  4.148932  -0.005
C  C44  1  0.90470680  0.71695388  0.59621267  1  -0.051934  0.017555  -0.012994  -0.031453  0.012138  3.971026  0.014
C  C45  1  0.30851615  0.78324425  0.40382019  1  -0.051847  0.017732  -0.012493  -0.030864  0.012243  3.96988  0.014
C  C46  1  0.09510748  0.28310534  0.40364768  1  -0.052028  0.017609  -0.012559  -0.030639  0.012171  3.970181  0.014
C  C47  1  0.69185987  0.21677998  0.59646527  1  -0.028106  0.017786  -0.01204  -0.030517  0.012245  3.967502  0.014
C  C48  1  0.96094811  0.73819339  0.66531843  1  -0.024328  0.005083  -0.060534  -0.082696  0.003388  3.880272  0.004
C  C49  1  0.29576094  0.76208721  0.33467128  1  0.008753  0.005036  -0.06016  -0.082171  0.003362  3.882289  0.003
C  C50  1  0.03886446  0.26188542  0.33453763  1  -0.027661  0.005115  -0.060423  -0.082871  0.003407  3.880875  0.004
C  C51  1  0.70538414  0.23753852  0.66576745  1  0.036641  0.004449  -0.060621  -0.082588  0.003091  3.880617  0.003
C  C52  1  0.91896280  0.80884517  0.69830758  1  -0.025134  0.006289  -0.011866  -0.029276  0.004191  3.958103  0.005
C  C53  1  0.22089695  0.69153484  0.30168310  1  0.018332  0.006055  -0.012294  -0.030706  0.004029  3.960537  0.005
C  C54  1  0.08081593  0.19121337  0.30155841  1  0.039507  0.006635  -0.011913  -0.029667  0.004439  3.957094  0.005
C  C55  1  0.78061806  0.30794668  0.69875508  1  -0.013814  0.017966  -0.011927  -0.030075  0.012228  3.960776  0.014
C  C56  1  0.82009909  0.85648218  0.66261167  1  0.029944  0.002435  -0.06191  -0.08144  0.001688  3.88751  0.001
C  C57  1  0.15767023  0.64388941  0.33737620  1  0.000461  0.002411  -0.061367  -0.081252  0.001674  3.887942  0.001
C  C58  1  0.17965005  0.14352532  0.33727394  1  -0.032579  0.002483  -0.061515  -0.080988  0.00171  3.884749  0.001
C  C59  1  0.84317952  0.35593351  0.66278632  1  -0.020433  0.003544  -0.060683  -0.080775  0.002416  3.886117  0.002
C  C60  1  0.76693004  0.83748363  0.59314066  1  -0.011752  0.016885  -0.00955  -0.02077  0.011761  3.981929  0.013
C  C61  1  0.17380423  0.66282850  0.40685950  1  -0.020924  0.01698  -0.008762  -0.018687  0.011801  3.978522  0.013
C  C62  1  0.23285122  0.16253577  0.40674502  1  -0.012466  0.016902  -0.00893  -0.019472  0.011766  3.97976  0.013
C  C63  1  0.82643129  0.33726080  0.59320533  1  -0.019725  0.01792  -0.007834  -0.017317  0.0124  3.975893  0.014
C  C64  1  0.80949932  0.76835954  0.55937884  1  -0.018822  0.004587  -0.059935  -0.082014  0.003108  3.884319  0.003
C  C65  1  0.25000523  0.73185816  0.44064277  1  -0.031328  0.004638  -0.060387  -0.083214  0.003122  3.883085  0.003
C  C66  1  0.19028874  0.23168081  0.44048893  1  0.017584  0.004593  -0.060394  -0.082983  0.003134  3.884562  0.003
C  C67  1  0.75002509  0.26831402  0.55950640  1  -0.04647  0.004173  -0.059284  -0.081983  0.002792  3.880831  0.003
C  C68  1  0.66533226  0.89358859  0.55632774  1  1.536837  -0.002024  0.221244  0.587769  0.000378  4.146029  -0.005
C  C69  1  0.10895878  0.60666386  0.44361856  1  1.55247  -0.002111  0.222006  0.588481  0.000394  4.145118  -0.005
C  C70  1  0.33453915  0.10654784  0.44359610  1  1.536715  -0.002025  0.220852  0.58753  0.000393  4.147286  -0.005
C  C71  1  0.89106410  0.39346205  0.55629816  1  1.552747  -0.001846  0.222917  0.589764  0.000566  4.146365  -0.005
C  C72  1  0.97595541  0.83489765  0.77216118  1  1.588908  0.000989  0.222041  0.610602  0.00144  4.159475  0.0
C  C73  1  0.20421053  0.66550549  0.22784030  1  1.58204  0.00097  0.221408  0.611044  0.001384  4.159917  0.0
C  C74  1  0.02395104  0.16521681  0.22768039  1  1.582864  0.000896  0.221978  0.611585  0.001355  4.15866  0.0
C  C75  1  0.79854131  0.33396337  0.77258033  1  1.576112  -0.001697  0.223523  0.613998  0.000679  4.149125  -0.005
C  C76  1  0.71423485  0.86199290  0.89217717  1  1.551725  0.00155  0.223793  0.602594  0.003708  4.141677  0.0
C  C77  1  0.82240243  0.63774898  0.10747952  1  1.558754  0.00118  0.223023  0.600229  0.00333  4.148497  0.0
C  C78  1  0.28598137  0.13772512  0.10759376  1  1.550788  0.001236  0.222708  0.599095  0.003443  4.145142  0.0
C  C79  1  0.17694043  0.36267250  0.89206465  1  1.545583  0.001292  0.224837  0.601933  0.003527  4.144885  0.0
C  C80  1  0.65708156  0.77083923  0.89580692  1  -0.022271  0.018742  -0.015038  -0.033865  0.012842  3.970017  0.015
C  C81  1  0.76159889  0.72873175  0.10424382  1  0.094531  0.017206  -0.015822  -0.033532  0.011975  3.973123  0.014
C  C82  1  0.34341223  0.22874939  0.10442033  1  -0.023192  0.017374  -0.015303  -0.032655  0.011942  3.973308  0.014
C  C83  1  0.23728717  0.27147865  0.89560734  1  -0.018968  0.017548  -0.016155  -0.032533  0.011997  3.974316  0.014
C  C84  1  0.71292403  0.68693389  0.89277332  1  -0.024151  0.000769  -0.072685  -0.088926  0.000536  3.927838  0.001
C  C85  1  0.82064041  0.81244632  0.10737793  1  -0.035044  -0.000555  -0.072614  -0.089796  -0.000401  3.932282  -0.001
C  C86  1  0.28747876  0.31249648  0.10764831  1  -0.024805  -0.000431  -0.073161  -0.090297  -0.000326  3.931711  -0.001
C  C87  1  0.17837421  0.18775571  0.89269447  1  -0.035916  -0.00093  -0.07111  -0.088194  -0.000661  3.925623  -0.001
C  C88  1  0.66306665  0.60077371  0.89880062  1  -0.049073  0.018287  -0.015179  -0.036011  0.012523  3.938169  0.014
C  C89  1  0.76482631  0.89863542  0.10120663  1  -0.035112  0.002731  -0.014445  -0.033141  0.001798  3.939087  0.002
C  C90  1  0.33706065  0.39862496  0.10135287  1  -0.041102  0.00226  -0.014564  -0.033904  0.001463  3.939648  0.002
C  C91  1  0.23442249  0.10166039  0.89885766  1  -0.021429  0.003701  -0.014648  -0.033607  0.002433  3.939203  0.003
C  C92  1  0.55371887  0.59931735  0.90503913  1  -0.011904  -0.001136  -0.055525  -0.063427  -0.000795  3.846129  -0.001
C  C93  1  0.64926518  0.90043687  0.09496458  1  -0.045552  -0.000498  -0.055647  -0.066226  -0.000372  3.846973  0.0
C  C94  1  0.44629694  0.40032721  0.09495817  1  -0.049225  -0.000378  -0.055295  -0.063612  -0.000286  3.845552  0.0
C  C95  1  0.34982082  0.09987253  0.90476853  1  0.007895  0.001575  -0.05476  -0.064321  0.001062  3.845957  0.002
C  C96  1  0.49619853  0.68376962  0.90602297  1  -0.028358  0.006914  -0.010181  -0.034274  0.004662  3.941133  0.005
C  C97  1  0.59070137  0.81609693  0.09407851  1  0.079199  0.006452  -0.010245  -0.034095  0.00445  3.940753  0.005
C  C98  1  0.50403351  0.31598006  0.09400948  1  0.056331  0.006693  -0.010198  -0.034444  0.004588  3.941954  0.005
C  C99  1  0.40806115  0.18427216  0.90549857  1  -0.025661  0.020345  -0.009334  -0.032737  0.014002  3.945948  0.016
C  C100  1  0.54858664  0.76939043  0.90284661  1  0.004001  0.001692  -0.058493  -0.073287  0.001141  3.88619  0.002
C  C101  1  0.64610128  0.73036259  0.09721398  1  -0.080001  0.002418  -0.058839  -0.073312  0.001552  3.885193  0.002
C  C102  1  0.45181621  0.23029990  0.09723149  1  -0.052913  0.002454  -0.05921  -0.074404  0.001614  3.887883  0.002
C  C103  1  0.35270539  0.26992879  0.90257121  1  -0.011169  0.002199  -0.058382  -0.074491  0.00148  3.88822  0.002
C  C104  1  0.37631764  0.68370884  0.90859243  1  1.56647  0.001516  0.226443  0.603809  0.001583  4.131045  0.001
C  C105  1  0.46825231  0.81631007  0.09143441  1  1.549601  0.001539  0.22679  0.604473  0.001549  4.130638  0.001
C  C106  1  0.62381598  0.31620394  0.09122556  1  1.566471  0.001352  0.226741  0.604232  0.00144  4.132106  0.001
C  C107  1  0.52991112  0.18436949  0.90719673  1  1.553483  0.001583  0.227908  0.606223  0.003676  4.131218  0.0
C  C108  1  0.72871297  0.51255328  0.89740562  1  1.543045  0.001393  0.228003  0.617132  0.003569  4.114156  0.0
C  C109  1  0.83210512  0.98652367  0.10227784  1  1.557394  0.001405  0.226958  0.617517  0.001231  4.112876  0.001
C  C110  1  0.27102024  0.48665030  0.10238826  1  1.547607  0.001469  0.227688  0.616685  0.001273  4.11372  0.002
C  C111  1  0.16743168  0.01367605  0.89773228  1  1.556832  0.001793  0.226514  0.616478  0.001494  4.118203  0.002
Se  Se112  1  0.93182722  0.14800478  0.95679495  1  1.862506  0.017231  0.645853  1.26564  0.018204  3.74179  0.013
Se  Se113  1  0.98064191  0.35220470  0.04544751  1  1.855913  0.022165  0.642078  1.256379  0.019913  3.747794  0.015
Se  Se114  1  0.06639702  0.85242186  0.04388369  1  1.849406  0.019862  0.645589  1.259914  0.01751  3.731763  0.013
Se  Se115  1  0.02214081  0.64779153  0.95631766  1  1.852167  0.019966  0.6457  1.259634  0.01769  3.733203  0.013
O  O116  1  0.03733285  0.59856110  0.59457933  1  -1.086774  0.107646  -0.310277  -0.504802  0.068594  2.313602  0.098
O  O117  1  0.44291642  0.90141738  0.40549887  1  -1.09229  0.108273  -0.31045  -0.505556  0.068917  2.311326  0.098
O  O118  1  0.96253124  0.40153455  0.40528825  1  -1.088093  0.107709  -0.310083  -0.504331  0.068634  2.312583  0.098
O  O119  1  0.55708068  0.09882418  0.59467539  1  -1.093027  0.106892  -0.31054  -0.505953  0.068056  2.31083  0.097
O  O120  1  0.87998104  0.61420139  0.50180980  1  -1.105266  0.093754  -0.313873  -0.524349  0.059736  2.326307  0.085
O  O121  1  0.37814899  0.88581793  0.49833992  1  -1.098275  0.094491  -0.313698  -0.523666  0.060324  2.324069  0.086
O  O122  1  0.11993812  0.38591445  0.49802677  1  -1.103572  0.093805  -0.313612  -0.523697  0.059777  2.327124  0.085
O  O123  1  0.62180409  0.11447609  0.50181917  1  -1.097517  0.093218  -0.313835  -0.52428  0.059484  2.325138  0.085
O  O124  1  0.65826276  0.92166331  0.49564536  1  -1.08603  0.101701  -0.31035  -0.509275  0.064916  2.292784  0.093
O  O125  1  0.16235576  0.57860733  0.50429907  1  -1.085419  0.102018  -0.310763  -0.509793  0.065015  2.294419  0.093
O  O126  1  0.34170635  0.07859998  0.50432586  1  -1.087618  0.101678  -0.31032  -0.509959  0.064886  2.294176  0.092
O  O127  1  0.83755289  0.42147526  0.49564407  1  -1.087038  0.101359  -0.311296  -0.511097  0.064623  2.29442  0.092
O  O128  1  0.59545228  0.91040622  0.58979604  1  -1.088742  0.103044  -0.31048  -0.513524  0.065764  2.312731  0.094
O  O129  1  0.00582020  0.58977817  0.41010214  1  -1.091471  0.103579  -0.31103  -0.514786  0.06615  2.312444  0.094
O  O130  1  0.40444608  0.08974918  0.41014701  1  -1.087116  0.103165  -0.310171  -0.513298  0.065851  2.312797  0.094
O  O131  1  0.99421724  0.41032871  0.58977660  1  -1.091459  0.102397  -0.311695  -0.515902  0.065408  2.314027  0.093
O  O132  1  0.93165255  0.90532823  0.79290750  1  -1.112765  0.104092  -0.324293  -0.54945  0.065806  2.395607  0.093
O  O133  1  0.13960546  0.59489762  0.20724938  1  -1.110782  0.102252  -0.323659  -0.548509  0.064635  2.397101  0.092
O  O134  1  0.06764554  0.09407761  0.20729772  1  -1.10753  0.106119  -0.323691  -0.54859  0.066979  2.392853  0.095
O  O135  1  0.85802287  0.40728023  0.79251013  1  -1.113289  0.103972  -0.320075  -0.544258  0.065495  2.384649  0.094
O  O136  1  0.05978603  0.78713681  0.80682609  1  -1.140951  -0.044569  -0.317542  -0.560533  -0.029763  2.305273  -0.041
O  O137  1  0.25300315  0.71334681  0.19295682  1  -1.131189  -0.045896  -0.317533  -0.561313  -0.03063  2.30679  -0.042
O  O138  1  0.94100357  0.21348230  0.19257284  1  -1.138936  -0.044399  -0.317136  -0.56393  -0.029671  2.302905  -0.041
O  O139  1  0.75507180  0.28297275  0.80896926  1  -1.128949  0.079425  -0.321826  -0.574168  0.049598  2.331109  0.072
O  O140  1  0.66441557  0.93455260  0.90564299  1  -1.110567  0.078271  -0.321583  -0.529088  0.049419  2.401725  0.069
O  O141  1  0.75891787  0.56557017  0.09256146  1  -1.111377  0.074709  -0.320085  -0.527046  0.047202  2.406172  0.066
O  O142  1  0.33414663  0.06575762  0.09180329  1  -1.106483  0.07609  -0.319386  -0.525234  0.047988  2.404053  0.068
O  O143  1  0.24122599  0.43419437  0.90878501  1  -1.10913  0.075644  -0.319393  -0.525723  0.047724  2.404847  0.067
O  O144  1  0.80566121  0.85870307  0.87642315  1  -1.119717  0.082724  -0.318894  -0.543801  0.052617  2.392027  0.074
O  O145  1  0.92966001  0.64086482  0.12417490  1  -1.13959  0.081482  -0.318039  -0.543081  0.051794  2.393587  0.073
O  O146  1  0.19608373  0.14038996  0.12508036  1  -1.118883  0.081107  -0.317525  -0.542705  0.051472  2.384795  0.073
O  O147  1  0.06954002  0.36050432  0.87320603  1  -1.101805  0.082435  -0.318256  -0.542324  0.05235  2.388194  0.074
O  O148  1  0.33170187  0.60158899  0.90168245  1  -1.092528  0.09352  -0.323363  -0.52974  0.05916  2.377506  0.083
O  O149  1  0.43044975  0.89842902  0.09828487  1  -1.091373  0.093903  -0.322957  -0.529089  0.059442  2.378558  0.084
O  O150  1  0.66820239  0.39833436  0.09773750  1  -1.093016  0.094062  -0.323204  -0.529262  0.059536  2.379007  0.084
O  O151  1  0.56719070  0.10317542  0.89807059  1  -1.095987  0.09586  -0.323347  -0.53033  0.060372  2.383342  0.086
O  O152  1  0.33194636  0.76132872  0.91564296  1  -1.120184  -0.05559  -0.304536  -0.532005  -0.037116  2.297391  -0.051
O  O153  1  0.41692587  0.73868944  0.08436976  1  -1.125561  -0.057768  -0.304309  -0.531587  -0.038507  2.299331  -0.053
O  O154  1  0.66829325  0.23852793  0.08435045  1  -1.119517  -0.057875  -0.304555  -0.53081  -0.0386  2.294305  -0.052
O  O155  1  0.58073695  0.26248626  0.91547464  1  -1.115485  0.075307  -0.304485  -0.528662  0.047042  2.309321  0.067
O  O156  1  0.68002919  0.43445672  0.89923532  1  -1.111185  0.07764  -0.311387  -0.548675  0.048612  2.368815  0.068
O  O157  1  0.78073785  0.06451761  0.09784539  1  -1.113871  -0.068521  -0.310431  -0.547739  -0.045642  2.367687  -0.06
O  O158  1  0.31822053  0.56453625  0.09805371  1  -1.116255  -0.070033  -0.31069  -0.547763  -0.046629  2.372004  -0.061
O  O159  1  0.21912181  0.93583821  0.90195216  1  -1.115065  -0.069862  -0.310061  -0.5478  -0.046545  2.373235  -0.061
O  O160  1  0.82942837  0.52534943  0.89501829  1  -1.123258  0.096455  -0.322171  -0.586813  0.061768  2.476296  0.087
O  O161  1  0.93622828  0.97326931  0.10708022  1  -1.126403  0.094397  -0.321723  -0.586924  0.060671  2.465696  0.085
O  O162  1  0.17156497  0.47372719  0.10702258  1  -1.12237  0.09124  -0.322394  -0.587125  0.058725  2.470144  0.082
O  O163  1  0.06340993  0.02674947  0.89303992  1  -1.125951  0.092488  -0.322972  -0.58688  0.059456  2.471226  0.083
O  O164  1  0.88273705  0.02961056  0.94628252  1  -0.991452  0.147818  -0.436895  -0.752442  0.096656  2.303419  0.13
O  O165  1  0.93889453  0.47045316  0.05485595  1  -0.98015  0.112876  -0.43451  -0.742607  0.073974  2.309569  0.099
O  O166  1  0.11683723  0.97050648  0.05412686  1  -0.980682  0.10849  -0.432545  -0.741324  0.071453  2.30608  0.094
O  O167  1  0.06223476  0.52977204  0.94587070  1  -0.979935  0.109691  -0.432143  -0.740858  0.072048  2.302848  0.095
O  O168  1  0.78738575  0.18217413  0.93482899  1  -0.981704  0.146595  -0.442989  -0.762956  0.095592  2.476495  0.13
O  O169  1  0.86098878  0.31915374  0.07198781  1  -0.96156  0.004864  -0.444886  -0.75237  0.002932  2.46876  0.004
O  O170  1  0.21203625  0.81925842  0.07281290  1  -0.957333  -0.002579  -0.441821  -0.752836  -0.001855  2.476387  -0.003
O  O171  1  0.13825028  0.68101170  0.92676163  1  -0.958529  -0.001527  -0.44207  -0.752577  -0.001258  2.478705  -0.002
O  O172  1  0.96537042  0.16155647  0.04378790  1  -1.021922  0.018384  -0.399016  -0.762151  0.011068  2.279256  0.017
O  O173  1  0.92829667  0.33699774  0.95917104  1  -1.028265  0.042769  -0.398534  -0.767434  0.027518  2.252789  0.039
O  O174  1  0.03778464  0.83741288  0.95735558  1  -1.021403  0.001014  -0.39984  -0.767614  -0.000138  2.285197  0.001
O  O175  1  0.08066543  0.66310687  0.04276821  1  -1.023632  0.000592  -0.3998  -0.769838  -0.000475  2.285705  0.001
