# generated using pymatgen
data_ZrH8C14O5
_symmetry_space_group_name_H-M   'P 1'
_cell_length_a   7.84125680
_cell_length_b   15.59661040
_cell_length_c   17.86995996
_cell_angle_alpha   115.86566814
_cell_angle_beta   101.47960657
_cell_angle_gamma   89.99625416
_symmetry_Int_Tables_number   1
_chemical_formula_structural   ZrH8C14O5
_chemical_formula_sum   'Zr4 H32 C56 O20'
_cell_volume   1917.81506109
_cell_formula_units_Z   4
loop_
 _symmetry_equiv_pos_site_id
 _symmetry_equiv_pos_as_xyz
  1  'x, y, z'
loop_
 _atom_site_type_symbol
 _atom_site_label
 _atom_site_symmetry_multiplicity
 _atom_site_fract_x
 _atom_site_fract_y
 _atom_site_fract_z
 _atom_site_occupancy
 _atom_site_pbe_bader_charge
 _atom_site_pbe_bader_spin_density
 _atom_site_pbe_cm5_charge
 _atom_site_pbe_ddec_charge
 _atom_site_pbe_ddec_spin_density
 _atom_site_pbe_ddec_sum_bond_order
 _atom_site_pbe_magmom
Zr  Zr0  1  0.66213107  0.05918947  0.08399131  1  2.610868  0  1.619926  2.36715  0  2.864579  0
Zr  Zr1  1  0.83781411  0.97514630  0.91599705  1  2.609227  0  1.619874  2.367019  0  2.864878  0
Zr  Zr2  1  0.33786823  0.94081004  0.91600957  1  2.610828  0  1.619915  2.367086  0  2.864646  0
Zr  Zr3  1  0.16218623  0.02485418  0.08400338  1  2.609174  0  1.619887  2.367019  0  2.864873  0
H  H4  1  0.79177503  0.04030338  0.70083345  1  0.102642  0  0.10997  0.11513  0  0.990837  0
H  H5  1  0.70816957  0.33950271  0.29913618  1  0.099554  0  0.110007  0.115337  0  0.990426  0
H  H6  1  0.20822401  0.95969923  0.29916910  1  0.102529  0  0.109912  0.115061  0  0.990935  0
H  H7  1  0.29181658  0.66049666  0.70086384  1  0.099758  0  0.109962  0.115255  0  0.990414  0
H  H8  1  0.76591035  0.05690583  0.56843248  1  0.03086  0  0.100421  0.098213  0  1.020885  0
H  H9  1  0.73413401  0.48845554  0.43155714  1  0.029595  0  0.100376  0.097776  0  1.020935  0
H  H10  1  0.23408739  0.94309611  0.43156940  1  0.031019  0  0.100375  0.098186  0  1.020887  0
H  H11  1  0.26585487  0.51154306  0.56844284  1  0.029491  0  0.100338  0.097781  0  1.020826  0
H  H12  1  0.27655690  0.91598098  0.66809099  1  0.109793  0  0.109581  0.116076  0  0.99312  0
H  H13  1  0.22344736  0.24798754  0.33195408  1  0.095661  0  0.109336  0.115762  0  0.992639  0
H  H14  1  0.72344071  0.08401971  0.33190893  1  0.109756  0  0.109555  0.116041  0  0.993145  0
H  H15  1  0.77654451  0.75200944  0.66804642  1  0.095799  0  0.109281  0.1157  0  0.992679  0
H  H16  1  0.25326561  0.93083321  0.53524712  1  0.052023  0  0.101214  0.100364  0  1.017478  0
H  H17  1  0.24672699  0.39568050  0.46474540  1  0.046452  0  0.101282  0.099405  0  1.019595  0
H  H18  1  0.74673070  0.06916681  0.46475212  1  0.051971  0  0.101197  0.100374  0  1.017454  0
H  H19  1  0.75326501  0.60431605  0.53525539  1  0.046688  0  0.101294  0.100222  0  1.018453  0
H  H20  1  0.71702851  0.36073994  0.12886588  1  0.087406  0  0.108248  0.112107  0  0.99119  0
H  H21  1  0.78319971  0.23190592  0.87111564  1  0.07954  0  0.10831  0.111961  0  0.991515  0
H  H22  1  0.28297443  0.63926245  0.87113645  1  0.087432  0  0.108252  0.112117  0  0.99118  0
H  H23  1  0.21680089  0.76809482  0.12888648  1  0.079502  0  0.108305  0.111965  0  0.991569  0
H  H24  1  0.72623313  0.52061508  0.13127534  1  0.049789  0  0.101036  0.099452  0  1.00929  0
H  H25  1  0.77392516  0.38936881  0.86869236  1  0.039553  0  0.100897  0.099438  0  1.009332  0
H  H26  1  0.27376838  0.47938707  0.86872604  1  0.049835  0  0.101018  0.099425  0  1.009291  0
H  H27  1  0.22607947  0.61063184  0.13131038  1  0.039509  0  0.100884  0.099439  0  1.009371  0
H  H28  1  0.63857017  0.78942277  0.11033572  1  0.088806  0  0.106165  0.111227  0  0.995096  0
H  H29  1  0.86160945  0.67922818  0.88978100  1  0.094396  0  0.105826  0.110377  0  0.995217  0
H  H30  1  0.36142861  0.21057846  0.88966402  1  0.088815  0  0.106161  0.111227  0  0.995144  0
H  H31  1  0.13839232  0.32077198  0.11021983  1  0.094378  0  0.105827  0.11037  0  0.995212  0
H  H32  1  0.63167432  0.63059867  0.10917037  1  0.042808  0  0.097406  0.093708  0  1.025034  0
H  H33  1  0.86842773  0.52150797  0.89083091  1  0.032122  0  0.097548  0.094414  0  1.025495  0
H  H34  1  0.36832615  0.36940194  0.89083090  1  0.042829  0  0.097422  0.093728  0  1.025  0
H  H35  1  0.13157404  0.47849276  0.10917048  1  0.032135  0  0.097541  0.094378  0  1.02553  0
C  C36  1  0.00747230  0.99537137  0.54005556  1  0.022158  0  -0.002116  0.07359  0  3.983472  0
C  C37  1  0.49255234  0.45534653  0.45993773  1  0.023574  0  -0.002337  0.073337  0  3.985067  0
C  C38  1  0.99252271  0.00463077  0.45994581  1  0.059797  0  -0.002136  0.073524  0  3.983466  0
C  C39  1  0.50743731  0.54465005  0.54006451  1  -0.006265  0  -0.002392  0.073249  0  3.985561  0
C  C40  1  0.87910114  0.02570900  0.58895267  1  -0.094081  0  -0.091987  -0.137991  0  3.988309  0
C  C41  1  0.62092144  0.43677125  0.41103386  1  -0.058056  0  -0.091604  -0.135832  0  3.988055  0
C  C42  1  0.12089517  0.97429326  0.41104880  1  -0.094276  0  -0.091923  -0.137923  0  3.98848  0
C  C43  1  0.37906887  0.56322760  0.58896708  1  -0.058465  0  -0.091539  -0.135641  0  3.98813  0
C  C44  1  0.89235230  0.01678422  0.66386969  1  -0.019384  0  -0.080217  -0.081705  0  3.982294  0
C  C45  1  0.60759707  0.35296179  0.33610509  1  -0.048127  0  -0.080015  -0.082247  0  3.98358  0
C  C46  1  0.10764818  0.98321751  0.33613270  1  -0.019135  0  -0.080163  -0.081656  0  3.982501  0
C  C47  1  0.39239572  0.64703660  0.66389466  1  -0.048168  0  -0.079933  -0.08218  0  3.983622  0
C  C48  1  0.03583851  0.97733148  0.69313093  1  -0.032784  0  -0.016647  -0.04283  0  3.964877  0
C  C49  1  0.46417647  0.28424497  0.30689030  1  -0.021731  0  -0.016761  -0.044568  0  3.967583  0
C  C50  1  0.96416145  0.02267198  0.30687032  1  -0.032938  0  -0.016703  -0.042872  0  3.964905  0
C  C51  1  0.53581137  0.71575434  0.69311181  1  -0.021808  0  -0.016787  -0.044438  0  3.967329  0
C  C52  1  0.16504541  0.94687530  0.64553579  1  -0.079108  0  -0.080633  -0.08255  0  3.978209  0
C  C53  1  0.33495326  0.30142323  0.35447614  1  -0.030397  0  -0.080191  -0.080414  0  3.97668  0
C  C54  1  0.83495338  0.05312706  0.35446507  1  -0.079061  0  -0.080589  -0.082493  0  3.978116  0
C  C55  1  0.66503874  0.69857164  0.64552297  1  -0.030341  0  -0.080146  -0.080528  0  3.976945  0
C  C56  1  0.15056410  0.95568847  0.57053389  1  -0.000123  0  -0.090711  -0.135107  0  3.983917  0
C  C57  1  0.34941029  0.38524759  0.42945262  1  -0.019103  0  -0.091181  -0.136102  0  3.986325  0
C  C58  1  0.84942973  0.04431145  0.42946597  1  -0.000138  0  -0.090677  -0.135101  0  3.983813  0
C  C59  1  0.65057637  0.61474837  0.57054687  1  -0.019167  0  -0.091156  -0.136601  0  3.986319  0
C  C60  1  0.05052909  0.96709948  0.77313975  1  1.567633  0  0.241172  0.646644  0  4.12938  0
C  C61  1  0.44948129  0.19402756  0.22686446  1  1.575618  0  0.24053  0.647477  0  4.129084  0
C  C62  1  0.94947516  0.03290078  0.22686045  1  1.567626  0  0.241152  0.646614  0  4.129549  0
C  C63  1  0.55051267  0.80597137  0.77313513  1  1.575408  0  0.24043  0.647264  0  4.129316  0
C  C64  1  0.75010240  0.46805435  0.99998429  1  -0.026411  0  0.001828  0.081369  0  3.96971  0
C  C65  1  0.24990315  0.53194715  0.00001715  1  -0.026337  0  0.001818  0.081314  0  3.969678  0
C  C66  1  0.73483755  0.45768977  0.07300789  1  -0.059874  0  -0.087722  -0.133724  0  3.974755  0
C  C67  1  0.76536411  0.38470833  0.92696068  1  -0.039316  0  -0.087551  -0.133974  0  3.974927  0
C  C68  1  0.26516149  0.54231228  0.92699410  1  -0.059899  0  -0.087662  -0.133616  0  3.974715  0
C  C69  1  0.23463909  0.61529264  0.07304166  1  -0.039551  0  -0.087516  -0.133944  0  3.974953  0
C  C70  1  0.73197767  0.36850669  0.07271078  1  0.019844  0  -0.076182  -0.075853  0  3.973432  0
C  C71  1  0.76829526  0.29581807  0.92728514  1  0.019592  0  -0.076901  -0.076593  0  3.973764  0
C  C72  1  0.26802398  0.63149503  0.92729088  1  0.019905  0  -0.07624  -0.075928  0  3.973347  0
C  C73  1  0.23170782  0.70418389  0.07271747  1  0.019741  0  -0.076923  -0.076646  0  3.974064  0
C  C74  1  0.75017799  0.28672576  0.00000169  1  -0.051392  0  -0.015246  -0.049783  0  3.979578  0
C  C75  1  0.24982371  0.71327569  0.00000147  1  -0.051375  0  -0.015222  -0.049738  0  3.979678  0
C  C76  1  0.75003318  0.56288440  0.99999586  1  -0.00865  0  -0.004827  0.064792  0  3.987752  0
C  C77  1  0.24996989  0.43711588  0.00000508  1  -0.008625  0  -0.004968  0.064653  0  3.987662  0
C  C78  1  0.68715090  0.64059358  0.06196791  1  -0.039217  0  -0.090827  -0.132413  0  3.98792  0
C  C79  1  0.81291905  0.57866244  0.93803263  1  -0.023969  0  -0.091939  -0.134593  0  3.99049  0
C  C80  1  0.31284957  0.35940759  0.93803392  1  -0.039224  0  -0.090846  -0.132399  0  3.987945  0
C  C81  1  0.18708142  0.42133817  0.06196864  1  -0.023983  0  -0.091823  -0.13444  0  3.99017  0
C  C82  1  0.68826227  0.72987994  0.06243986  1  -0.041514  0  -0.081216  -0.080058  0  3.975542  0
C  C83  1  0.81191966  0.66751988  0.93765231  1  -0.056469  0  -0.08034  -0.07765  0  3.974013  0
C  C84  1  0.31173794  0.27012042  0.93755972  1  -0.04151  0  -0.08121  -0.080106  0  3.975559  0
C  C85  1  0.18808223  0.33247930  0.06234824  1  -0.056469  0  -0.080341  -0.077665  0  3.973985  0
C  C86  1  0.75011344  0.74431820  0.00006200  1  0.020277  0  -0.015468  -0.034191  0  3.947058  0
C  C87  1  0.24988560  0.25568217  0.99993832  1  0.020291  0  -0.015436  -0.034112  0  3.946962  0
C  C88  1  0.75012692  0.19150860  0.99998610  1  1.564227  0  0.244585  0.650034  0  4.078787  0
C  C89  1  0.24987485  0.80849325  0.00001640  1  1.564178  0  0.244531  0.649924  0  4.079004  0
C  C90  1  0.74998217  0.83976878  0.00003828  1  1.551944  0  0.233799  0.62649  0  4.130346  0
C  C91  1  0.25001960  0.16023083  0.99996199  1  1.551957  0  0.233774  0.626457  0  4.130254  0
O  O92  1  0.40505221  0.00735626  0.05163760  1  -1.218512  0  -0.796331  -1.214308  0  2.146028  0
O  O93  1  0.09498473  0.95580960  0.94836142  1  -1.218207  0  -0.79618  -1.214387  0  2.146288  0
O  O94  1  0.59494956  0.99264447  0.94836379  1  -1.218553  0  -0.796352  -1.214377  0  2.146106  0
O  O95  1  0.90501574  0.04418990  0.05163873  1  -1.218259  0  -0.796177  -1.214388  0  2.146266  0
O  O96  1  0.92802739  0.99341819  0.81283087  1  -1.180801  0  -0.347326  -0.611579  0  2.321011  0
O  O97  1  0.57189164  0.18071426  0.18711752  1  -1.180807  0  -0.346769  -0.611603  0  2.320513  0
O  O98  1  0.07197568  0.00658097  0.18716895  1  -1.180847  0  -0.347326  -0.611584  0  2.321096  0
O  O99  1  0.42810636  0.81928682  0.81288493  1  -1.18064  0  -0.346755  -0.611543  0  2.320571  0
O  O100  1  0.18637371  0.93109500  0.79582549  1  -1.194929  0  -0.370382  -0.645707  0  2.316274  0
O  O101  1  0.31375761  0.13527972  0.20421327  1  -1.195877  0  -0.370496  -0.646411  0  2.315441  0
O  O102  1  0.81362936  0.06890472  0.20417489  1  -1.194885  0  -0.370357  -0.645659  0  2.316278  0
O  O103  1  0.68623388  0.86471743  0.79578526  1  -1.195822  0  -0.370384  -0.646261  0  2.315453  0
O  O104  1  0.69400450  0.18362860  0.05941348  1  -1.174307  0  -0.352954  -0.604235  0  2.278506  0
O  O105  1  0.80619011  0.12419008  0.94056596  1  -1.175602  0  -0.353012  -0.60393  0  2.27836  0
O  O106  1  0.30599467  0.81637246  0.94058824  1  -1.174213  0  -0.35293  -0.604141  0  2.278587  0
O  O107  1  0.19381061  0.87581079  0.05943700  1  -1.17567  0  -0.352973  -0.603886  0  2.278415  0
O  O108  1  0.69239269  0.90705752  0.05871291  1  -1.194727  0  -0.351632  -0.624222  0  2.326217  0
O  O109  1  0.80746914  0.84837249  0.94133138  1  -1.186237  0  -0.351635  -0.6242  0  2.326874  0
O  O110  1  0.30760908  0.09294152  0.94128680  1  -1.194736  0  -0.351577  -0.624178  0  2.326191  0
O  O111  1  0.19253237  0.15162910  0.05866943  1  -1.186242  0  -0.351669  -0.624219  0  2.326872  0
