# generated using pymatgen
data_HgH6C8I2N2O
_symmetry_space_group_name_H-M   'P 1'
_cell_length_a   4.25157955
_cell_length_b   16.79851749
_cell_length_c   28.74563156
_cell_angle_alpha   90.00356483
_cell_angle_beta   89.99876290
_cell_angle_gamma   96.35273415
_symmetry_Int_Tables_number   1
_chemical_formula_structural   HgH6C8I2N2O
_chemical_formula_sum   'Hg6 H36 C48 I12 N12 O6'
_cell_volume   2040.41321937
_cell_formula_units_Z   6
loop_
 _symmetry_equiv_pos_site_id
 _symmetry_equiv_pos_as_xyz
  1  'x, y, z'
loop_
 _atom_site_type_symbol
 _atom_site_label
 _atom_site_symmetry_multiplicity
 _atom_site_fract_x
 _atom_site_fract_y
 _atom_site_fract_z
 _atom_site_occupancy
 _atom_site_pbe_bader_charge
 _atom_site_pbe_bader_spin_density
 _atom_site_pbe_cm5_charge
 _atom_site_pbe_ddec_charge
 _atom_site_pbe_ddec_spin_density
 _atom_site_pbe_ddec_sum_bond_order
 _atom_site_pbe_magmom
Hg  Hg0  1  0.04449364  0.04103828  0.42437986  1  0.465431  0  0.331612  0.344885  0  2.707771  0
Hg  Hg1  1  0.95536172  0.95899276  0.92434061  1  0.465428  0  0.331606  0.344955  0  2.707289  0
Hg  Hg2  1  0.00361063  0.31046978  0.93665390  1  0.440535  0  0.335615  0.334469  0  2.714962  0
Hg  Hg3  1  0.99639242  0.68952397  0.43664666  1  0.44034  0  0.335533  0.33437  0  2.714995  0
Hg  Hg4  1  0.93206856  0.87799370  0.12502980  1  0.459424  0  0.337628  0.341665  0  2.705646  0
Hg  Hg5  1  0.06801904  0.12200225  0.62504110  1  0.459627  0  0.337575  0.34159  0  2.705376  0
H  H6  1  0.17769203  0.71911856  0.17038589  1  0.163968  0  0.101621  0.097813  0  1.079088  0
H  H7  1  0.82230105  0.28085629  0.67040279  1  0.165092  0  0.101581  0.09781  0  1.079216  0
H  H8  1  0.96642960  0.13651764  0.98757454  1  0.093651  0  0.084316  0.061763  0  1.076138  0
H  H9  1  0.03349262  0.86348719  0.48758949  1  0.094398  0  0.084435  0.062013  0  1.076061  0
H  H10  1  0.79541344  0.30179247  0.25111071  1  0.091745  0  0.112511  0.11427  0  1.005843  0
H  H11  1  0.20459274  0.69820392  0.75110911  1  0.091399  0  0.11249  0.114168  0  1.005785  0
H  H12  1  0.30296727  0.35899788  0.04043807  1  0.106404  0  0.096313  0.074973  0  1.047835  0
H  H13  1  0.69708000  0.64099559  0.54043459  1  0.106493  0  0.096291  0.074881  0  1.048113  0
H  H14  1  0.84649322  0.18824633  0.36201742  1  0.074638  0  0.094846  0.076236  0  1.055528  0
H  H15  1  0.15349998  0.81176394  0.86201175  1  0.074424  0  0.094892  0.07638  0  1.055246  0
H  H16  1  0.07230337  0.06838190  0.06283512  1  0.119589  0  0.086646  0.099755  0  1.045822  0
H  H17  1  0.92762595  0.93160522  0.56285931  1  0.119642  0  0.086868  0.099878  0  1.045903  0
H  H18  1  0.30104233  0.15120084  0.12976264  1  0.163601  0  0.103519  0.130153  0  1.03465  0
H  H19  1  0.69900895  0.84877712  0.62978727  1  0.163426  0  0.103412  0.12997  0  1.03476  0
H  H20  1  0.05267967  0.70322920  0.31980930  1  0.094666  0  0.094414  0.103105  0  1.027627  0
H  H21  1  0.94723336  0.29678478  0.81982410  1  0.094742  0  0.094522  0.103142  0  1.02774  0
H  H22  1  0.44137092  0.35567238  0.47946536  1  0.111151  0  0.104643  0.122085  0  0.985392  0
H  H23  1  0.55869857  0.64436705  0.97947568  1  0.111487  0  0.104633  0.121953  0  0.985417  0
H  H24  1  0.32314263  0.45496943  0.16048011  1  0.088955  0  0.110996  0.107106  0  1.015386  0
H  H25  1  0.67687019  0.54499897  0.66048226  1  0.088835  0  0.111011  0.107229  0  1.015298  0
H  H26  1  0.67810793  0.54343179  0.29255953  1  0.102025  0  0.11213  0.1125  0  1.006367  0
H  H27  1  0.32184813  0.45656641  0.79255740  1  0.102077  0  0.11215  0.112523  0  1.006429  0
H  H28  1  0.78425928  0.90159248  0.23898753  1  0.113884  0  0.098285  0.077008  0  1.035548  0
H  H29  1  0.21574504  0.09840301  0.73901261  1  0.113808  0  0.098373  0.077106  0  1.035251  0
H  H30  1  0.21250866  0.42386122  0.41131057  1  0.143916  0  0.094476  0.125314  0  1.05498  0
H  H31  1  0.78756174  0.57615954  0.91132141  1  0.144576  0  0.094417  0.125267  0  1.055036  0
H  H32  1  0.36236767  0.20543918  0.48453848  1  0.122274  0  0.089832  0.07431  0  1.066409  0
H  H33  1  0.63761782  0.79459900  0.98453627  1  0.12174  0  0.089883  0.074315  0  1.066364  0
H  H34  1  0.82759605  0.83413466  0.31665584  1  0.12416  0  0.084465  0.104221  0  1.057402  0
H  H35  1  0.17234771  0.16588602  0.81667469  1  0.124269  0  0.084409  0.104146  0  1.057698  0
H  H36  1  0.26852928  0.60219673  0.27992187  1  0.470738  0  0.318916  0.276332  0  0.94611  0
H  H37  1  0.73144400  0.39781984  0.77992583  1  0.470591  0  0.318994  0.276426  0  0.94609  0
H  H38  1  0.72177159  0.30059652  0.32446793  1  0.459521  0  0.324119  0.279002  0  0.930294  0
H  H39  1  0.27825395  0.69940127  0.82447053  1  0.459317  0  0.324076  0.278957  0  0.930311  0
H  H40  1  0.44995396  0.37391743  0.11664161  1  0.446546  0  0.322196  0.27593  0  0.938925  0
H  H41  1  0.55017692  0.62606412  0.61664273  1  0.44626  0  0.322112  0.275904  0  0.939183  0
C  C42  1  0.10245401  0.74218757  0.20348087  1  0.54018  0  0.03351  -0.008308  0  3.878999  0
C  C43  1  0.89754438  0.25779511  0.70349874  1  0.538428  0  0.033553  -0.008345  0  3.879797  0
C  C44  1  0.06827707  0.17015328  0.01743859  1  0.524847  0  0.025458  0.069717  0  3.955557  0
C  C45  1  0.93167293  0.82984212  0.51745213  1  0.524832  0  0.025385  0.069718  0  3.955824  0
C  C46  1  0.92562011  0.41581531  0.32182633  1  1.387514  0  0.241063  0.482511  0  4.110489  0
C  C47  1  0.07436740  0.58418779  0.82182611  1  1.38764  0  0.241291  0.482926  0  4.109998  0
C  C48  1  0.70927733  0.35971073  0.24482556  1  -0.015158  0  -0.075187  -0.122972  0  3.940115  0
C  C49  1  0.29071673  0.64027790  0.74482783  1  -0.015689  0  -0.075238  -0.122925  0  3.94022  0
C  C50  1  0.75312750  0.42246451  0.27682109  1  -0.041141  0  -0.013213  -0.027342  0  4.003766  0
C  C51  1  0.24684514  0.57753693  0.77682046  1  -0.04129  0  -0.013191  -0.027275  0  4.003883  0
C  C52  1  0.25427351  0.29455797  0.04718753  1  0.517753  0  0.026489  -0.036153  0  3.95472  0
C  C53  1  0.74574972  0.70543093  0.54719154  1  0.517429  0  0.026639  -0.035814  0  3.954664  0
C  C54  1  0.55831401  0.37005601  0.20223328  1  0.034601  0  -0.017878  -0.034609  0  4.014906  0
C  C55  1  0.44170519  0.62992385  0.70223186  1  0.035327  0  -0.017875  -0.034686  0  4.013652  0
C  C56  1  0.50711441  0.29827037  0.17093087  1  1.397435  0  0.238873  0.472434  0  4.130226  0
C  C57  1  0.49291579  0.70172166  0.67093311  1  1.397625  0  0.23915  0.472895  0  4.130344  0
C  C58  1  0.97820840  0.22798568  0.38727676  1  0.547862  0  0.029299  -0.027952  0  3.953468  0
C  C59  1  0.02178960  0.77203185  0.88727383  1  0.547637  0  0.029167  -0.028229  0  3.953753  0
C  C60  1  0.01412514  0.31132049  0.38128709  1  0.319679  0  0.094693  0.200016  0  4.041347  0
C  C61  1  0.98590971  0.68869705  0.88129090  1  0.321002  0  0.094797  0.200104  0  4.041553  0
C  C62  1  0.13356502  0.70029675  0.24530119  1  0.34026  0  0.099692  0.210895  0  4.007756  0
C  C63  1  0.86641464  0.29970068  0.74531547  1  0.341026  0  0.099651  0.211071  0  4.008023  0
C  C64  1  0.12804902  0.13295310  0.05926494  1  -0.089328  0  -0.086516  -0.094802  0  3.987934  0
C  C65  1  0.87191260  0.86703713  0.55928407  1  -0.089669  0  -0.087079  -0.095575  0  3.988648  0
C  C66  1  0.25427536  0.17854363  0.09660451  1  -0.024623  0  -0.072355  -0.119692  0  3.882594  0
C  C67  1  0.74574883  0.82144292  0.59662228  1  -0.024744  0  -0.072052  -0.118952  0  3.882204  0
C  C68  1  0.48533994  0.50624840  0.22482808  1  0.025892  0  -0.011427  -0.01918  0  3.983409  0
C  C69  1  0.51466122  0.49373885  0.72482932  1  0.025117  0  -0.011319  -0.019153  0  3.983722  0
C  C70  1  0.03015280  0.73361838  0.28657192  1  -0.07888  0  -0.084763  -0.148339  0  3.956075  0
C  C71  1  0.96979998  0.26638889  0.78658807  1  -0.079757  0  -0.085007  -0.148641  0  3.956267  0
C  C72  1  0.30904692  0.32076307  0.45248970  1  -0.046324  0  -0.082392  -0.099359  0  3.965729  0
C  C73  1  0.69101611  0.67927014  0.95249358  1  -0.046198  0  -0.082242  -0.098618  0  3.96567  0
C  C74  1  0.44881735  0.44356828  0.19246519  1  -0.076158  0  -0.069798  -0.111267  0  3.933572  0
C  C75  1  0.55122954  0.55640882  0.69246689  1  -0.075298  0  -0.070071  -0.111742  0  3.933327  0
C  C76  1  0.64084004  0.49585236  0.26673016  1  -0.083714  0  -0.069212  -0.107458  0  3.942998  0
C  C77  1  0.35913792  0.50414124  0.76672884  1  -0.083653  0  -0.069186  -0.107509  0  3.942889  0
C  C78  1  0.88206630  0.84442062  0.24221832  1  0.435466  0  0.032559  0.070509  0  3.953786  0
C  C79  1  0.11792455  0.15557136  0.74223985  1  0.436198  0  0.032628  0.070679  0  3.952995  0
C  C80  1  0.18337924  0.35901887  0.41490231  1  0.002531  0  -0.079499  -0.129125  0  3.90408  0
C  C81  1  0.81668086  0.64100202  0.91490781  1  0.001086  0  -0.079571  -0.12946  0  3.904569  0
C  C82  1  0.35295894  0.58194198  0.21111962  1  1.382899  0  0.240196  0.470034  0  4.120235  0
C  C83  1  0.64703689  0.41803825  0.71112283  1  1.385075  0  0.24055  0.47074  0  4.119428  0
C  C84  1  0.31863663  0.26166448  0.09058290  1  0.384715  0  0.09944  0.213827  0  4.022166  0
C  C85  1  0.68138824  0.73831866  0.59058988  1  0.384503  0  0.099364  0.213315  0  4.022551  0
C  C86  1  0.26526569  0.23744116  0.45579471  1  0.485091  0  0.031912  0.071264  0  3.95625  0
C  C87  1  0.73475626  0.76259119  0.95579688  1  0.485643  0  0.031735  0.070895  0  3.956465  0
C  C88  1  0.90531814  0.80655949  0.28500689  1  0.008737  0  -0.091646  -0.102122  0  3.995232  0
C  C89  1  0.09465687  0.19345032  0.78502289  1  0.008433  0  -0.091589  -0.10212  0  3.995627  0
I  I90  1  0.57608076  0.19634332  0.90289674  1  -0.239929  0  -0.130677  -0.220284  0  1.773491  0
I  I91  1  0.42380323  0.80365786  0.40288294  1  -0.239936  0  -0.130684  -0.220317  0  1.773516  0
I  I92  1  0.18397878  0.77059513  0.07225774  1  -0.266726  0  -0.163722  -0.243422  0  1.55159  0
I  I93  1  0.81627347  0.22943118  0.57227921  1  -0.266835  0  -0.163766  -0.243369  0  1.551208  0
I  I94  1  0.45563091  0.02764593  0.49479779  1  -0.233912  0  -0.118507  -0.204488  0  1.801161  0
I  I95  1  0.54428557  0.97239037  0.99477191  1  -0.234121  0  -0.118474  -0.204582  0  1.801065  0
I  I96  1  0.58663328  0.99511380  0.15166519  1  -0.252348  0  -0.133794  -0.20627  0  1.599062  0
I  I97  1  0.41346364  0.00488062  0.65166285  1  -0.252404  0  -0.133765  -0.206231  0  1.599092  0
I  I98  1  0.71478698  0.01437192  0.34505257  1  -0.278564  0  -0.172383  -0.246252  0  1.526273  0
I  I99  1  0.28515424  0.98562038  0.84501596  1  -0.278538  0  -0.172369  -0.246272  0  1.52615  0
I  I100  1  0.32669453  0.45367812  0.94939404  1  -0.278707  0  -0.174505  -0.270947  0  1.563055  0
I  I101  1  0.67315957  0.54633563  0.44939630  1  -0.278536  0  -0.174417  -0.270887  0  1.563248  0
N  N102  1  0.10193379  0.19254332  0.42340131  1  -1.235732  0  -0.315558  -0.178242  0  3.531949  0
N  N103  1  0.89806615  0.80748104  0.92339713  1  -1.236231  0  -0.31552  -0.178161  0  3.532131  0
N  N104  1  0.13047636  0.24966256  0.01204448  1  -1.259036  0  -0.320414  -0.173317  0  3.561558  0
N  N105  1  0.86951286  0.75033351  0.51204739  1  -1.258483  0  -0.3204  -0.173414  0  3.560968  0
N  N106  1  0.97809821  0.81198389  0.20280668  1  -1.208807  0  -0.311576  -0.176816  0  3.535747  0
N  N107  1  0.02190034  0.18799874  0.70282560  1  -1.208654  0  -0.311632  -0.176952  0  3.535654  0
N  N108  1  0.26494344  0.62749371  0.24773809  1  -1.26527  0  -0.394609  -0.375858  0  3.590526  0
N  N109  1  0.73503358  0.37250506  0.74774575  1  -1.265046  0  -0.394675  -0.376071  0  3.590268  0
N  N110  1  0.87497105  0.34107487  0.34167806  1  -1.240036  0  -0.394891  -0.369517  0  3.589357  0
N  N111  1  0.12505825  0.65892720  0.84168233  1  -1.239841  0  -0.394891  -0.369557  0  3.589231  0
N  N112  1  0.43264945  0.31512756  0.12561100  1  -1.244543  0  -0.397997  -0.376193  0  3.596645  0
N  N113  1  0.56742880  0.68485042  0.62561381  1  -1.244297  0  -0.397954  -0.376115  0  3.596805  0
O  O114  1  0.09682170  0.47312456  0.33846485  1  -1.128864  0  -0.287636  -0.471533  0  2.126838  0
O  O115  1  0.90313648  0.52688178  0.83846325  1  -1.128859  0  -0.28779  -0.47175  0  2.12649  0
O  O116  1  0.52666940  0.23009689  0.18577083  1  -1.111193  0  -0.28175  -0.446465  0  2.081727  0
O  O117  1  0.47330009  0.76987461  0.68577452  1  -1.111312  0  -0.28185  -0.44666  0  2.082524  0
O  O118  1  0.32333367  0.59932229  0.16979132  1  -1.093242  0  -0.280366  -0.445738  0  2.101381  0
O  O119  1  0.67664992  0.40064226  0.66979475  1  -1.095636  0  -0.280575  -0.446026  0  2.10115  0
