# generated using pymatgen
data_ZnH11C20N3O4
_symmetry_space_group_name_H-M   'P 1'
_cell_length_a   13.97525732
_cell_length_b   15.31282319
_cell_length_c   17.16623779
_cell_angle_alpha   88.66054054
_cell_angle_beta   94.72521220
_cell_angle_gamma   89.99321563
_symmetry_Int_Tables_number   1
_chemical_formula_structural   ZnH11C20N3O4
_chemical_formula_sum   'Zn2 H22 C40 N6 O8'
_cell_volume   3660.09218291
_cell_formula_units_Z   2
loop_
 _symmetry_equiv_pos_site_id
 _symmetry_equiv_pos_as_xyz
  1  'x, y, z'
loop_
 _atom_site_type_symbol
 _atom_site_label
 _atom_site_symmetry_multiplicity
 _atom_site_fract_x
 _atom_site_fract_y
 _atom_site_fract_z
 _atom_site_occupancy
 _atom_site_pbe_bader_charge
 _atom_site_pbe_bader_spin_density
 _atom_site_pbe_cm5_charge
 _atom_site_pbe_ddec_charge
 _atom_site_pbe_ddec_spin_density
 _atom_site_pbe_ddec_sum_bond_order
 _atom_site_pbe_magmom
Zn  Zn0  1  0.60035128  0.49945818  0.50372449  1  1.28494  0  0.666667  0.817279  0  2.417715  0
Zn  Zn1  1  0.39963900  0.49801707  0.49862668  1  1.287475  0  0.667731  0.818384  0  2.428677  0
H  H2  1  0.63278705  0.54856905  0.25911677  1  0.093792  0  0.102114  0.102928  0  1.008477  0
H  H3  1  0.36794107  0.50352210  0.74226694  1  0.087199  0  0.103513  0.108165  0  0.999256  0
H  H4  1  0.25277192  0.37645990  0.55391155  1  0.139041  0  0.130515  0.106427  0  0.977146  0
H  H5  1  0.74038838  0.56383756  0.39540062  1  0.139793  0  0.13137  0.108908  0  0.980614  0
H  H6  1  0.24218632  0.62028022  0.44512905  1  0.15274  0  0.13109  0.108532  0  0.977633  0
H  H7  1  0.76472019  0.43599494  0.61092597  1  0.146905  0  0.132061  0.109968  0  0.973307  0
H  H8  1  0.06284073  0.62693367  0.44342828  1  0.097269  0  0.119002  0.125802  0  0.983485  0
H  H9  1  0.94449514  0.43291704  0.61451110  1  0.077273  0  0.116892  0.122362  0  0.987544  0
H  H10  1  0.62456453  0.56047199  0.11224443  1  0.100314  0  0.104769  0.10453  0  1.017724  0
H  H11  1  0.37267193  0.51890202  0.88839244  1  0.095216  0  0.105224  0.10582  0  1.01886  0
H  H12  1  0.68015827  0.53464232  0.90002310  1  0.113134  0  0.106643  0.109039  0  0.99585  0
H  H13  1  0.32026066  0.51719072  0.10203939  1  0.082195  0  0.107114  0.10887  0  0.994956  0
H  H14  1  0.67532391  0.51685948  0.75373552  1  0.100861  0  0.103266  0.106385  0  1.001719  0
H  H15  1  0.32942017  0.50294796  0.24952537  1  0.113662  0  0.105615  0.111444  0  0.995468  0
H  H16  1  0.62688031  0.22945805  0.42946548  1  0.094256  0  0.117094  0.128907  0  0.981401  0
H  H17  1  0.35651463  0.77354633  0.42759431  1  0.109105  0  0.113181  0.121117  0  0.99259  0
H  H18  1  0.36319468  0.21398679  0.54014670  1  0.097124  0  0.10935  0.110998  0  0.992647  0
H  H19  1  0.64068123  0.77954515  0.54191619  1  0.135473  0  0.112624  0.118599  0  0.983389  0
H  H20  1  0.36434495  0.05166788  0.53052335  1  0.097797  0  0.110498  0.114861  0  0.984153  0
H  H21  1  0.64049154  0.94266809  0.53129951  1  0.090069  0  0.110655  0.114746  0  0.984498  0
H  H22  1  0.07387195  0.37149237  0.55746407  1  0.075841  0  0.117529  0.123577  0  0.9853  0
H  H23  1  0.91903131  0.56670775  0.38879371  1  0.082681  0  0.118272  0.124374  0  0.983882  0
C  C24  1  0.49628545  0.32864409  0.49527984  1  1.566828  0  0.216307  0.59464  0  4.173434  0
C  C25  1  0.49678276  0.66946640  0.49623450  1  1.588026  0  0.214485  0.58969  0  4.181201  0
C  C26  1  0.56972061  0.19012938  0.45167167  1  -0.002559  0  -0.062599  -0.109065  0  3.902489  0
C  C27  1  0.41835965  0.81099026  0.45050982  1  -0.070672  0  -0.064467  -0.110279  0  3.91512  0
C  C28  1  0.49567343  0.23124374  0.48663953  1  0.006257  0  -0.009324  -0.020626  0  3.961204  0
C  C29  1  0.49803330  0.76714177  0.48685449  1  -0.020281  0  -0.010276  -0.020306  0  3.965746  0
C  C30  1  0.42089450  0.18095518  0.51353177  1  -0.035464  0  -0.068992  -0.065222  0  3.954317  0
C  C31  1  0.57875498  0.81497402  0.51436328  1  0.002163  0  -0.068412  -0.066043  0  3.944718  0
C  C32  1  0.42148898  0.09057615  0.50758748  1  -0.039782  0  -0.08044  -0.121431  0  3.978922  0
C  C33  1  0.57840186  0.90570088  0.50789501  1  -0.022505  0  -0.078344  -0.118613  0  3.975921  0
C  C34  1  0.49598583  0.04770519  0.47395882  1  -0.027579  0  0.010827  0.044515  0  3.968579  0
C  C35  1  0.49805293  0.95129113  0.47359506  1  0.039419  0  0.010292  0.043892  0  3.968979  0
C  C36  1  0.10791899  0.42856503  0.53266964  1  0.021764  0  -0.073878  -0.1724  0  3.937553  0
C  C37  1  0.88835291  0.53778300  0.43972547  1  -0.007163  0  -0.072856  -0.170214  0  3.935344  0
C  C38  1  0.20708449  0.43036016  0.53073268  1  0.449177  0  0.065343  0.110357  0  3.911868  0
C  C39  1  0.78926663  0.53632327  0.44248956  1  0.483651  0  0.065494  0.109584  0  3.907283  0
C  C40  1  0.20100390  0.56674431  0.46869363  1  0.485847  0  0.065216  0.109168  0  3.909128  0
C  C41  1  0.80279701  0.46355874  0.56309865  1  0.465474  0  0.063976  0.106162  0  3.914501  0
C  C42  1  0.10156505  0.56950514  0.46790598  1  -0.022546  0  -0.073395  -0.171973  0  3.936293  0
C  C43  1  0.90231935  0.46196462  0.56426033  1  -0.0011  0  -0.074716  -0.172628  0  3.942753  0
C  C44  1  0.05283485  0.49932211  0.50065730  1  -0.049302  0  0.017686  0.10652  0  3.984933  0
C  C45  1  0.94725851  0.49975344  0.50153525  1  0.018412  0  0.017514  0.106798  0  3.986608  0
C  C46  1  0.51686584  0.49972802  0.65301398  1  1.564227  0  0.214819  0.593029  0  4.170023  0
C  C47  1  0.48884903  0.51146215  0.34940635  1  1.522987  0  0.213172  0.588872  0  4.17419  0
C  C48  1  0.52132027  0.50885064  0.73988547  1  -0.071999  0  -0.01277  -0.021625  0  3.945039  0
C  C49  1  0.48189339  0.52347187  0.26236899  1  0.034185  0  -0.012867  -0.024648  0  3.947145  0
C  C50  1  0.43577531  0.51012062  0.77772677  1  -0.004168  0  -0.082381  -0.081245  0  3.980762  0
C  C51  1  0.56495110  0.54137405  0.22383306  1  -0.126564  0  -0.082548  -0.079994  0  3.983859  0
C  C52  1  0.43805274  0.51905562  0.85797079  1  0.013355  0  -0.084797  -0.141654  0  3.956746  0
C  C53  1  0.56068638  0.54817241  0.14303685  1  0.058584  0  -0.083323  -0.138938  0  3.954847  0
C  C54  1  0.52698645  0.52804518  0.90190965  1  0.271745  0  0.08708  0.172301  0  4.046909  0
C  C55  1  0.47194636  0.53746688  0.09922196  1  0.339884  0  0.088482  0.173263  0  4.044551  0
C  C56  1  0.61251592  0.52757973  0.86431631  1  -0.002002  0  -0.08129  -0.14309  0  3.965314  0
C  C57  1  0.38807218  0.52373244  0.13757252  1  -0.022363  0  -0.079774  -0.13963  0  3.957339  0
C  C58  1  0.60969099  0.51762679  0.78381692  1  -0.07515  0  -0.084701  -0.088176  0  3.987151  0
C  C59  1  0.39317357  0.51595499  0.21870476  1  -0.053107  0  -0.08215  -0.084069  0  3.975237  0
C  C60  1  0.57001900  0.09900339  0.44457485  1  0.107286  0  0.008518  0.017695  0  4.053361  0
C  C61  1  0.41788646  0.90240252  0.44321705  1  0.077975  0  0.007121  0.015901  0  4.056609  0
C  C62  1  0.64486200  0.05919597  0.40579911  1  0.811977  0  0.17084  0.229585  0  4.04841  0
C  C63  1  0.33597783  0.94448833  0.40340048  1  0.854084  0  0.169349  0.226987  0  4.055693  0
N  N64  1  0.53820946  0.53471849  0.98404380  1  -0.477302  0  -0.149954  -0.138253  0  3.285396  0
N  N65  1  0.46013699  0.53633545  0.01677814  1  -0.504917  0  -0.15115  -0.14109  0  3.283831  0
N  N66  1  0.25272567  0.49831999  0.49940541  1  -1.236092  0  -0.314088  -0.19171  0  3.508351  0
N  N67  1  0.74737482  0.49991064  0.50314913  1  -1.243162  0  -0.313544  -0.191352  0  3.508753  0
N  N68  1  0.70649315  0.02799680  0.37359142  1  -1.115387  0  -0.326611  -0.372088  0  2.672379  0
N  N69  1  0.26800485  0.97663893  0.37025181  1  -1.126969  0  -0.326779  -0.371041  0  2.677572  0
O  O70  1  0.57465399  0.36796062  0.48518894  1  -1.163253  0  -0.316983  -0.546983  0  2.306022  0
O  O71  1  0.41608193  0.63197219  0.48164010  1  -1.166901  0  -0.316237  -0.55228  0  2.324751  0
O  O72  1  0.41824103  0.36392866  0.51199581  1  -1.16933  0  -0.317111  -0.553126  0  2.31717  0
O  O73  1  0.57614828  0.63225903  0.51795367  1  -1.164147  0  -0.317018  -0.545492  0  2.304707  0
O  O74  1  0.59474069  0.48248593  0.62243448  1  -1.166819  0  -0.321492  -0.555575  0  2.316884  0
O  O75  1  0.41294568  0.48877002  0.38088860  1  -1.153389  0  -0.318314  -0.544651  0  2.31812  0
O  O76  1  0.43486060  0.51083944  0.61586645  1  -1.166289  0  -0.318109  -0.550182  0  2.337194  0
O  O77  1  0.57079443  0.52446616  0.38586515  1  -1.169199  0  -0.317626  -0.555291  0  2.342668  0
