# generated using pymatgen
data_AgH8C6(NO)3
_symmetry_space_group_name_H-M   'P 1'
_cell_length_a   6.21716271
_cell_length_b   11.05228136
_cell_length_c   11.78218951
_cell_angle_alpha   90.00078523
_cell_angle_beta   90.00108787
_cell_angle_gamma   89.99889370
_symmetry_Int_Tables_number   1
_chemical_formula_structural   AgH8C6(NO)3
_chemical_formula_sum   'Ag4 H32 C24 N12 O12'
_cell_volume   809.59938535
_cell_formula_units_Z   4
loop_
 _symmetry_equiv_pos_site_id
 _symmetry_equiv_pos_as_xyz
  1  'x, y, z'
loop_
 _atom_site_type_symbol
 _atom_site_label
 _atom_site_symmetry_multiplicity
 _atom_site_fract_x
 _atom_site_fract_y
 _atom_site_fract_z
 _atom_site_occupancy
 _atom_site_hle17_bader_spin_density
 _atom_site_hle17_ddec_charge
 _atom_site_hle17_ddec_spin_density
 _atom_site_hle17_ddec_sum_bond_order
 _atom_site_hle17_magmom
 _atom_site_hse06_10hf_bader_spin_density
 _atom_site_hse06_10hf_ddec_charge
 _atom_site_hse06_10hf_ddec_spin_density
 _atom_site_hse06_10hf_ddec_sum_bond_order
 _atom_site_hse06_10hf_magmom
 _atom_site_hse06_bader_spin_density
 _atom_site_hse06_ddec_charge
 _atom_site_hse06_ddec_spin_density
 _atom_site_hse06_ddec_sum_bond_order
 _atom_site_hse06_magmom
 _atom_site_pbe_bader_spin_density
 _atom_site_pbe_cm5_charge
 _atom_site_pbe_ddec_charge
 _atom_site_pbe_ddec_spin_density
 _atom_site_pbe_ddec_sum_bond_order
 _atom_site_pbe_magmom
Ag  Ag0  1  0.24999029  0.27494240  0.44310911  1  0  0.508303  0  1.37521  0  0  0.367108  0  1.788963  0  0  0.393904  0  1.753145  0  0  0.456  0.348185  0  1.813846  0
Ag  Ag1  1  0.74999709  0.77493951  0.05689204  1  0  0.508273  0  1.375112  0  0  0.367061  0  1.788855  0  0  0.393856  0  1.753049  0  0  0.45598  0.348125  0  1.813755  0
Ag  Ag2  1  0.25000013  0.22505681  0.94308887  1  0  0.508414  0  1.374981  0  0  0.367203  0  1.788683  0  0  0.394001  0  1.752868  0  0  0.456072  0.348268  0  1.813592  0
Ag  Ag3  1  0.74999246  0.72504396  0.55689896  1  0  0.50818  0  1.375167  0  0  0.367004  0  1.788901  0  0  0.393796  0  1.75309  0  0  0.45599  0.348075  0  1.813784  0
H  H4  1  0.10927727  0.30424298  0.68779487  1  0  0.080758  0  0.932801  0  0  0.098413  0  0.997217  0  0  0.09878  0  0.996974  0  0  0.108888  0.098076  0  0.997505  0
H  H5  1  0.89073996  0.80424048  0.81219992  1  0  0.080712  0  0.93299  0  0  0.098438  0  0.997356  0  0  0.098804  0  0.99711  0  0  0.10891  0.098105  0  0.997637  0
H  H6  1  0.39074418  0.19577512  0.18780617  1  0  0.080665  0  0.933102  0  0  0.098381  0  0.997473  0  0  0.098753  0  0.997223  0  0  0.108905  0.098058  0  0.997759  0
H  H7  1  0.60924912  0.69576030  0.31220331  1  0  0.080656  0  0.93299  0  0  0.098432  0  0.997291  0  0  0.098806  0  0.99704  0  0  0.108852  0.098095  0  0.997579  0
H  H8  1  0.89074408  0.69575243  0.31221236  1  0  0.080658  0  0.932904  0  0  0.098418  0  0.997249  0  0  0.098787  0  0.997003  0  0  0.108852  0.098083  0  0.997531  0
H  H9  1  0.10926048  0.19577484  0.18780391  1  0  0.080698  0  0.932979  0  0  0.098409  0  0.997357  0  0  0.098783  0  0.997101  0  0  0.108902  0.098084  0  0.997646  0
H  H10  1  0.60926108  0.80423840  0.81219511  1  0  0.080676  0  0.933072  0  0  0.09839  0  0.99743  0  0  0.098757  0  0.997188  0  0  0.108899  0.098058  0  0.997717  0
H  H11  1  0.39076419  0.30425774  0.68779882  1  0  0.08072  0  0.933044  0  0  0.098446  0  0.997369  0  0  0.098811  0  0.997132  0  0  0.108884  0.098111  0  0.997651  0
H  H12  1  0.11708226  0.43325192  0.85452535  1  0  0.290093  0  0.92263  0  0  0.272898  0  0.990963  0  0  0.27943  0  0.986341  0  0  0.284926  0.268096  0  0.994432  0
H  H13  1  0.88293055  0.93323258  0.64546684  1  0  0.289996  0  0.922629  0  0  0.27278  0  0.990976  0  0  0.279308  0  0.986358  0  0  0.284938  0.267978  0  0.99444  0
H  H14  1  0.38295323  0.06676501  0.35452219  1  0  0.289922  0  0.922736  0  0  0.272774  0  0.990994  0  0  0.279304  0  0.986369  0  0  0.284891  0.267976  0  0.994459  0
H  H15  1  0.61709756  0.56675852  0.14546441  1  0  0.289976  0  0.922782  0  0  0.272792  0  0.991061  0  0  0.279325  0  0.986437  0  0  0.284925  0.267992  0  0.994525  0
H  H16  1  0.88294230  0.56676883  0.14548017  1  0  0.28996  0  0.922807  0  0  0.272747  0  0.991128  0  0  0.279275  0  0.986509  0  0  0.284924  0.267948  0  0.994591  0
H  H17  1  0.11709080  0.06675469  0.35452510  1  0  0.290003  0  0.922581  0  0  0.272834  0  0.990886  0  0  0.279362  0  0.986266  0  0  0.284924  0.268035  0  0.99435  0
H  H18  1  0.61706973  0.93323131  0.64546127  1  0  0.289945  0  0.922655  0  0  0.272747  0  0.990977  0  0  0.279276  0  0.986358  0  0  0.284922  0.267943  0  0.994442  0
H  H19  1  0.38293343  0.43324685  0.85452923  1  0  0.29008  0  0.922616  0  0  0.27284  0  0.990983  0  0  0.279374  0  0.986356  0  0  0.284925  0.268042  0  0.994441  0
H  H20  1  0.25000026  0.60086575  0.77122594  1  0  0.115918  0  0.973533  0  0  0.12417  0  1.036192  0  0  0.127592  0  1.035013  0  0  0.107414  0.121682  0  1.037205  0
H  H21  1  0.74995637  0.10084649  0.72876793  1  0  0.115931  0  0.973411  0  0  0.124133  0  1.036198  0  0  0.127564  0  1.035005  0  0  0.107377  0.121605  0  1.037249  0
H  H22  1  0.25003120  0.89917245  0.27122741  1  0  0.115874  0  0.973616  0  0  0.124078  0  1.03637  0  0  0.127503  0  1.035201  0  0  0.107384  0.121585  0  1.037398  0
H  H23  1  0.75000339  0.39916133  0.22877365  1  0  0.115926  0  0.973559  0  0  0.12415  0  1.036286  0  0  0.127569  0  1.035118  0  0  0.107371  0.121658  0  1.037305  0
H  H24  1  0.24998519  0.77941978  0.63970824  1  0  0.113154  0  0.978135  0  0  0.122843  0  1.034291  0  0  0.125845  0  1.031713  0  0  0.107258  0.120566  0  1.036258  0
H  H25  1  0.74994442  0.27940516  0.86028963  1  0  0.113217  0  0.978105  0  0  0.122896  0  1.034235  0  0  0.125903  0  1.031673  0  0  0.107318  0.120617  0  1.036198  0
H  H26  1  0.25001098  0.72060473  0.13973712  1  0  0.113043  0  0.97836  0  0  0.122833  0  1.034331  0  0  0.125841  0  1.031762  0  0  0.107334  0.120554  0  1.036292  0
H  H27  1  0.74998468  0.22058378  0.36027522  1  0  0.113161  0  0.978226  0  0  0.122926  0  1.034235  0  0  0.125943  0  1.031656  0  0  0.107296  0.120642  0  1.036208  0
H  H28  1  0.24999171  0.74187125  0.43006615  1  0  0.120872  0  0.937893  0  0  0.136415  0  0.98685  0  0  0.138741  0  0.986868  0  0  0.11295  0.134692  0  0.987149  0
H  H29  1  0.74996784  0.24186504  0.06992525  1  0  0.120781  0  0.937938  0  0  0.136304  0  0.986939  0  0  0.138632  0  0.986947  0  0  0.11289  0.134583  0  0.987243  0
H  H30  1  0.25000847  0.75811952  0.93009131  1  0  0.120785  0  0.938232  0  0  0.136216  0  0.987355  0  0  0.138548  0  0.987349  0  0  0.112923  0.134486  0  0.987661  0
H  H31  1  0.74996369  0.25811512  0.56992410  1  0  0.120769  0  0.937924  0  0  0.136313  0  0.986904  0  0  0.138642  0  0.986911  0  0  0.112876  0.13456  0  0.987246  0
H  H32  1  0.24998767  0.52846864  0.36007948  1  0  0.079155  0  0.988031  0  0  0.083988  0  1.062012  0  0  0.08678  0  1.058986  0  0  0.10761  0.08202  0  1.064045  0
H  H33  1  0.75000974  0.02846617  0.13992191  1  0  0.079192  0  0.987895  0  0  0.084013  0  1.061878  0  0  0.086804  0  1.058853  0  0  0.1076  0.082043  0  1.063922  0
H  H34  1  0.25000999  0.97151657  0.86007853  1  0  0.079128  0  0.987923  0  0  0.083894  0  1.061965  0  0  0.086683  0  1.058944  0  0  0.107529  0.081915  0  1.064018  0
H  H35  1  0.74996934  0.47150778  0.63992095  1  0  0.079248  0  0.988024  0  0  0.084095  0  1.06197  0  0  0.086888  0  1.058941  0  0  0.107618  0.082123  0  1.064019  0
C  C36  1  0.24999682  0.47106169  0.63512392  1  0  0.229632  0  3.69291  0  0  0.230577  0  3.933477  0  0  0.238389  0  3.95562  0  0  0.116306  0.225238  0  3.918245  0
C  C37  1  0.74999861  0.97104701  0.86487301  1  0  0.229411  0  3.692751  0  0  0.230452  0  3.933292  0  0  0.238258  0  3.955447  0  0  0.116383  0.225106  0  3.918071  0
C  C38  1  0.25001630  0.02894931  0.13511809  1  0  0.229124  0  3.692998  0  0  0.230264  0  3.933391  0  0  0.238072  0  3.955556  0  0  0.11637  0.224927  0  3.918181  0
C  C39  1  0.74998753  0.52894187  0.36488670  1  0  0.229589  0  3.692598  0  0  0.230616  0  3.933136  0  0  0.238421  0  3.955286  0  0  0.116486  0.225288  0  3.917879  0
C  C40  1  0.25000971  0.35991686  0.70961360  1  0  -0.010999  0  3.694245  0  0  -0.077662  0  3.952179  0  0  -0.073505  0  3.96326  0  0  -0.074181  -0.080451  0  3.944491  0
C  C41  1  0.74999596  0.85989385  0.79038953  1  0  -0.010785  0  3.693897  0  0  -0.077603  0  3.952033  0  0  -0.073446  0  3.963112  0  0  -0.074279  -0.080411  0  3.944361  0
C  C42  1  0.25000609  0.14011333  0.20960835  1  0  -0.010537  0  3.693624  0  0  -0.077422  0  3.951768  0  0  -0.073274  0  3.962866  0  0  -0.074216  -0.08025  0  3.94413  0
C  C43  1  0.74999394  0.64009304  0.29038513  1  0  -0.010793  0  3.693955  0  0  -0.077659  0  3.952017  0  0  -0.073507  0  3.963109  0  0  -0.074142  -0.080448  0  3.944323  0
C  C44  1  0.24999240  0.58794739  0.67972504  1  0  -0.158043  0  3.701957  0  0  -0.180073  0  3.954347  0  0  -0.187984  0  3.974567  0  0  -0.090156  -0.174831  0  3.941001  0
C  C45  1  0.74997110  0.08793218  0.82027886  1  0  -0.157738  0  3.7017  0  0  -0.179857  0  3.954159  0  0  -0.187752  0  3.974343  0  0  -0.090057  -0.174574  0  3.940831  0
C  C46  1  0.25001808  0.91207319  0.17972582  1  0  -0.157449  0  3.701755  0  0  -0.179645  0  3.954196  0  0  -0.187516  0  3.974321  0  0  -0.089956  -0.174405  0  3.940859  0
C  C47  1  0.74999838  0.41206070  0.32027285  1  0  -0.157816  0  3.701874  0  0  -0.179934  0  3.954261  0  0  -0.187844  0  3.974483  0  0  -0.090053  -0.174687  0  3.940898  0
C  C48  1  0.24999261  0.68723947  0.60661702  1  0  -0.033527  0  3.763765  0  0  -0.045834  0  4.020907  0  0  -0.040342  0  4.032903  0  0  -0.080848  -0.049684  0  4.013382  0
C  C49  1  0.74997072  0.18723167  0.89338730  1  0  -0.033972  0  3.763695  0  0  -0.046196  0  4.02087  0  0  -0.04072  0  4.032888  0  0  -0.081079  -0.050032  0  4.013324  0
C  C50  1  0.25001685  0.81276736  0.10662417  1  0  -0.033803  0  3.763833  0  0  -0.046025  0  4.020869  0  0  -0.040547  0  4.032891  0  0  -0.081146  -0.049863  0  4.013332  0
C  C51  1  0.74998531  0.31276318  0.39337747  1  0  -0.033879  0  3.763861  0  0  -0.046119  0  4.02092  0  0  -0.040647  0  4.032937  0  0  -0.081062  -0.049957  0  4.01338  0
C  C52  1  0.24999407  0.66673878  0.48973963  1  0  -0.136485  0  3.757324  0  0  -0.152956  0  4.019163  0  0  -0.15922  0  4.036148  0  0  -0.09574  -0.149312  0  4.00829  0
C  C53  1  0.74998735  0.16673532  0.01026099  1  0  -0.136198  0  3.756928  0  0  -0.152664  0  4.018657  0  0  -0.158925  0  4.035646  0  0  -0.095618  -0.149027  0  4.007795  0
C  C54  1  0.25000826  0.83325105  0.98975218  1  0  -0.136367  0  3.757763  0  0  -0.152829  0  4.019496  0  0  -0.159087  0  4.036482  0  0  -0.095668  -0.149192  0  4.008624  0
C  C55  1  0.74997580  0.33326207  0.51025910  1  0  -0.136241  0  3.757375  0  0  -0.152761  0  4.019127  0  0  -0.159026  0  4.03612  0  0  -0.09556  -0.149096  0  4.008255  0
C  C56  1  0.24999379  0.54803902  0.45075291  1  0  0.124611  0  3.706265  0  0  0.08738  0  3.962607  0  0  0.095256  0  3.981537  0  0  0.032259  0.082169  0  3.950113  0
C  C57  1  0.75000778  0.04802980  0.04924279  1  0  0.124621  0  3.705698  0  0  0.087448  0  3.961988  0  0  0.095321  0  3.980927  0  0  0.032387  0.08226  0  3.949463  0
C  C58  1  0.25001196  0.95194843  0.95075679  1  0  0.124677  0  3.705931  0  0  0.087578  0  3.962146  0  0  0.095454  0  3.981082  0  0  0.032353  0.082436  0  3.949531  0
C  C59  1  0.74997608  0.45195278  0.54925177  1  0  0.124397  0  3.706433  0  0  0.087215  0  3.962691  0  0  0.095088  0  3.981619  0  0  0.032161  0.082018  0  3.950169  0
N  N60  1  0.24999028  0.45182953  0.52140639  1  0  -0.355314  0  3.337649  0  0  -0.263479  0  3.599279  0  0  -0.285375  0  3.620282  0  0  -0.349138  -0.248089  0  3.584435  0
N  N61  1  0.75000581  0.95181833  0.97859283  1  0  -0.35527  0  3.337242  0  0  -0.263512  0  3.598992  0  0  -0.285418  0  3.62002  0  0  -0.349251  -0.248131  0  3.584176  0
N  N62  1  0.25000749  0.04817165  0.02140336  1  0  -0.355368  0  3.337649  0  0  -0.263602  0  3.599207  0  0  -0.28551  0  3.620227  0  0  -0.349222  -0.248223  0  3.584384  0
N  N63  1  0.74998925  0.54816136  0.47860508  1  0  -0.355112  0  3.337669  0  0  -0.263394  0  3.59941  0  0  -0.28528  0  3.620404  0  0  -0.349149  -0.248008  0  3.584569  0
N  N64  1  0.25000670  0.38296368  0.83247037  1  0  -0.592045  0  3.20238  0  0  -0.518  0  3.460599  0  0  -0.540039  0  3.460777  0  0  -0.643584  -0.502374  0  3.460279  0
N  N65  1  0.74999979  0.88294702  0.66753136  1  0  -0.5918  0  3.202351  0  0  -0.517683  0  3.460515  0  0  -0.539713  0  3.4607  0  0  -0.6435  -0.502039  0  3.460183  0
N  N66  1  0.25001352  0.11705111  0.33246822  1  0  -0.591894  0  3.202324  0  0  -0.51791  0  3.460512  0  0  -0.53994  0  3.460693  0  0  -0.643482  -0.502275  0  3.460206  0
N  N67  1  0.75000821  0.61703898  0.16753855  1  0  -0.591847  0  3.202636  0  0  -0.517809  0  3.460875  0  0  -0.539845  0  3.461067  0  0  -0.643594  -0.502186  0  3.460555  0
N  N68  1  0.24996189  0.05447339  0.62170354  1  0  0.69879  0  4.142546  0  0  0.741866  0  4.412198  0  0  0.770772  0  4.416904  0  0  0.095618  0.722391  0  4.408482  0
N  N69  1  0.75001563  0.55447972  0.87828720  1  0  0.698471  0  4.142635  0  0  0.741416  0  4.41236  0  0  0.770318  0  4.417076  0  0  0.095445  0.721939  0  4.408642  0
N  N70  1  0.25000732  0.44553017  0.12170560  1  0  0.698357  0  4.142658  0  0  0.741341  0  4.41244  0  0  0.77025  0  4.417149  0  0  0.095379  0.721871  0  4.408708  0
N  N71  1  0.75004338  0.94552112  0.37829690  1  0  0.698201  0  4.142531  0  0  0.741371  0  4.412123  0  0  0.77027  0  4.416841  0  0  0.095342  0.721902  0  4.408399  0
O  O72  1  0.42719573  0.10096396  0.59118323  1  0  -0.480066  0  1.764495  0  0  -0.46713  0  1.97792  0  0  -0.482968  0  1.971151  0  0  -0.196128  -0.455882  0  1.982472  0
O  O73  1  0.57277055  0.60098534  0.90878943  1  0  -0.47999  0  1.764474  0  0  -0.466947  0  1.977834  0  0  -0.482812  0  1.971104  0  0  -0.196033  -0.45569  0  1.982377  0
O  O74  1  0.07277399  0.39901382  0.09120074  1  0  -0.480039  0  1.764776  0  0  -0.46689  0  1.978063  0  0  -0.482698  0  1.97124  0  0  -0.195946  -0.455637  0  1.982607  0
O  O75  1  0.92729438  0.89903133  0.40881049  1  0  -0.479897  0  1.764136  0  0  -0.466954  0  1.977526  0  0  -0.482759  0  1.970706  0  0  -0.195992  -0.455699  0  1.982064  0
O  O76  1  0.57280471  0.89901788  0.40881041  1  0  -0.479853  0  1.76448  0  0  -0.466858  0  1.977784  0  0  -0.482728  0  1.971073  0  0  -0.195992  -0.45561  0  1.982338  0
O  O77  1  0.42726849  0.39905260  0.09119064  1  0  -0.48004  0  1.764165  0  0  -0.467028  0  1.977559  0  0  -0.482873  0  1.970773  0  0  -0.196058  -0.455803  0  1.982158  0
O  O78  1  0.92725701  0.60097436  0.90880563  1  0  -0.480081  0  1.764396  0  0  -0.466927  0  1.977707  0  0  -0.482734  0  1.970883  0  0  -0.196011  -0.455668  0  1.982243  0
O  O79  1  0.07271570  0.10097765  0.59120946  1  0  -0.480219  0  1.764261  0  0  -0.467124  0  1.977564  0  0  -0.482961  0  1.970767  0  0  -0.196152  -0.455874  0  1.982118  0
O  O80  1  0.24998128  0.95990229  0.68351450  1  0  -0.485427  0  1.766747  0  0  -0.464685  0  1.964665  0  0  -0.481285  0  1.9587  0  0  -0.197163  -0.452782  0  1.96848  0
O  O81  1  0.75001936  0.45990423  0.81647720  1  0  -0.485309  0  1.766611  0  0  -0.464559  0  1.96458  0  0  -0.481163  0  1.958624  0  0  -0.197192  -0.452658  0  1.968392  0
O  O82  1  0.24998108  0.54010295  0.18351815  1  0  -0.485217  0  1.76657  0  0  -0.464523  0  1.964536  0  0  -0.481133  0  1.958575  0  0  -0.197229  -0.452622  0  1.968338  0
O  O83  1  0.75002881  0.04009041  0.31647830  1  0  -0.485301  0  1.766776  0  0  -0.464649  0  1.964701  0  0  -0.481263  0  1.958751  0  0  -0.197166  -0.452745  0  1.968508  0
