# generated using pymatgen
data_SbH3(C2O)3
_symmetry_space_group_name_H-M   'P 1'
_cell_length_a   4.54545771
_cell_length_b   8.23098677
_cell_length_c   8.48698326
_cell_angle_alpha   89.99980183
_cell_angle_beta   90.00062837
_cell_angle_gamma   106.07466240
_symmetry_Int_Tables_number   1
_chemical_formula_structural   SbH3(C2O)3
_chemical_formula_sum   'Sb2 H6 C12 O6'
_cell_volume   305.11378618
_cell_formula_units_Z   2
loop_
 _symmetry_equiv_pos_site_id
 _symmetry_equiv_pos_as_xyz
  1  'x, y, z'
loop_
 _atom_site_type_symbol
 _atom_site_label
 _atom_site_symmetry_multiplicity
 _atom_site_fract_x
 _atom_site_fract_y
 _atom_site_fract_z
 _atom_site_occupancy
 _atom_site_hle17_bader_spin_density
 _atom_site_hle17_ddec_charge
 _atom_site_hle17_ddec_spin_density
 _atom_site_hle17_ddec_sum_bond_order
 _atom_site_hle17_magmom
 _atom_site_hse06_10hf_bader_spin_density
 _atom_site_hse06_10hf_ddec_charge
 _atom_site_hse06_10hf_ddec_spin_density
 _atom_site_hse06_10hf_ddec_sum_bond_order
 _atom_site_hse06_10hf_magmom
 _atom_site_hse06_bader_spin_density
 _atom_site_hse06_ddec_charge
 _atom_site_hse06_ddec_spin_density
 _atom_site_hse06_ddec_sum_bond_order
 _atom_site_hse06_magmom
 _atom_site_pbe_bader_spin_density
 _atom_site_pbe_cm5_charge
 _atom_site_pbe_ddec_charge
 _atom_site_pbe_ddec_spin_density
 _atom_site_pbe_ddec_sum_bond_order
 _atom_site_pbe_magmom
Sb  Sb0  1  0.96661394  0.99982754  0.00004004  1  0  1.316137  0  2.527367  0  0  1.156222  0  3.000488  0  0  1.202316  0  2.968651  0  0  0.762424  1.119282  0  3.023983  0
Sb  Sb1  1  0.96660639  0.99981098  0.49994912  1  0  1.316193  0  2.527417  0  0  1.156298  0  3.000398  0  0  1.202406  0  2.96856  0  0  0.762467  1.119358  0  3.023894  0
H  H2  1  0.47801682  0.57462685  0.00527793  1  0  0.116354  0  0.962016  0  0  0.127891  0  1.022221  0  0  0.130682  0  1.0216  0  0  0.100053  0.12588  0  1.022805  0
H  H3  1  0.90363161  0.42572565  0.99469695  1  0  0.116686  0  0.960487  0  0  0.128098  0  1.020862  0  0  0.130958  0  1.020149  0  0  0.100174  0.126037  0  1.021505  0
H  H4  1  0.47802273  0.57462420  0.49473100  1  0  0.116338  0  0.961835  0  0  0.127873  0  1.022066  0  0  0.130664  0  1.021447  0  0  0.100034  0.125864  0  1.022637  0
H  H5  1  0.90363133  0.42572198  0.50530398  1  0  0.116666  0  0.960498  0  0  0.128082  0  1.020883  0  0  0.130938  0  1.020171  0  0  0.100162  0.126021  0  1.021527  0
H  H6  1  0.60835535  0.46229309  0.75000602  1  0  0.102025  0  0.937227  0  0  0.11336  0  0.996424  0  0  0.116379  0  0.994282  0  0  0.099946  0.111194  0  0.998026  0
H  H7  1  0.14618608  0.53835464  0.25000120  1  0  0.100886  0  0.937139  0  0  0.112604  0  0.996061  0  0  0.115618  0  0.993915  0  0  0.098891  0.110413  0  0.997712  0
C  C8  1  0.20252485  0.81594014  0.75000425  1  0  0.052375  0  3.900099  0  0  0.036573  0  4.154522  0  0  0.038177  0  4.175919  0  0  0.029934  0.035191  0  4.139678  0
C  C9  1  0.38719658  0.18376631  0.24999543  1  0  0.050188  0  3.902311  0  0  0.0349  0  4.15622  0  0  0.036483  0  4.177707  0  0  0.029117  0.033515  0  4.141338  0
C  C10  1  0.27199828  0.75277182  0.89416650  1  0  0.197008  0  3.957226  0  0  0.186775  0  4.222471  0  0  0.196393  0  4.241369  0  0  0.05078  0.18033  0  4.20912  0
C  C11  1  0.51971040  0.24708156  0.10579606  1  0  0.197025  0  3.960283  0  0  0.187111  0  4.224886  0  0  0.196685  0  4.243847  0  0  0.051071  0.180686  0  4.211518  0
C  C12  1  0.27200225  0.75276810  0.60583318  1  0  0.19699  0  3.957043  0  0  0.186697  0  4.222374  0  0  0.196316  0  4.241271  0  0  0.050752  0.180251  0  4.209026  0
C  C13  1  0.51970986  0.24707896  0.39420243  1  0  0.19707  0  3.960158  0  0  0.187105  0  4.224817  0  0  0.196702  0  4.243754  0  0  0.051103  0.180679  0  4.211454  0
C  C14  1  0.42471849  0.62605279  0.89403283  1  0  -0.218652  0  3.777842  0  0  -0.242291  0  4.042507  0  0  -0.248227  0  4.061776  0  0  -0.125796  -0.238237  0  4.02939  0
C  C15  1  0.79911014  0.37406544  0.10594159  1  0  -0.218117  0  3.776989  0  0  -0.241946  0  4.041681  0  0  -0.24794  0  4.060998  0  0  -0.12609  -0.237816  0  4.02848  0
C  C16  1  0.42472153  0.62605160  0.60598230  1  0  -0.218618  0  3.777931  0  0  -0.242259  0  4.042647  0  0  -0.248198  0  4.061919  0  0  -0.125765  -0.238201  0  4.029529  0
C  C17  1  0.79910583  0.37406411  0.39405457  1  0  -0.218103  0  3.777146  0  0  -0.241917  0  4.041809  0  0  -0.247931  0  4.061166  0  0  -0.126053  -0.237779  0  4.028589  0
C  C18  1  0.49784649  0.56406868  0.74999964  1  0  -0.026033  0  3.781009  0  0  -0.049515  0  4.05333  0  0  -0.046718  0  4.071849  0  0  -0.102714  -0.051196  0  4.040565  0
C  C19  1  0.93415251  0.43622950  0.25000250  1  0  -0.024473  0  3.778014  0  0  -0.048186  0  4.050303  0  0  -0.045397  0  4.068843  0  0  -0.100925  -0.049843  0  4.037492  0
O  O20  1  0.04678548  0.93724892  0.74999888  1  0  -0.554897  0  2.222211  0  0  -0.457432  0  2.458526  0  0  -0.482384  0  2.458182  0  0  -0.263325  -0.438372  0  2.458075  0
O  O21  1  0.10986511  0.06226199  0.24999364  1  0  -0.553562  0  2.222248  0  0  -0.457159  0  2.459321  0  0  -0.481898  0  2.458465  0  0  -0.263388  -0.438254  0  2.459229  0
O  O22  1  0.18706938  0.81659546  0.02966461  1  0  -0.539888  0  2.090493  0  0  -0.472223  0  2.338318  0  0  -0.493031  0  2.334147  0  0  -0.288221  -0.456248  0  2.340343  0
O  O23  1  0.37067582  0.18318717  0.97034086  1  0  -0.539831  0  2.090174  0  0  -0.472253  0  2.33775  0  0  -0.493005  0  2.333606  0  0  -0.288206  -0.45628  0  2.339707  0
O  O24  1  0.18707479  0.81659283  0.47033710  1  0  -0.53989  0  2.090694  0  0  -0.472141  0  2.338422  0  0  -0.492942  0  2.334244  0  0  -0.288181  -0.456174  0  2.34046  0
O  O25  1  0.37066944  0.18318348  0.52965188  1  0  -0.539878  0  2.090203  0  0  -0.472267  0  2.337762  0  0  -0.493046  0  2.333628  0  0  -0.288244  -0.456299  0  2.33973  0
