# generated using pymatgen
data_CaH16C20(NO5)2
_symmetry_space_group_name_H-M   'P 1'
_cell_length_a   7.32179370
_cell_length_b   9.22071219
_cell_length_c   15.95536849
_cell_angle_alpha   106.19229647
_cell_angle_beta   99.02160145
_cell_angle_gamma   91.32650522
_symmetry_Int_Tables_number   1
_chemical_formula_structural   CaH16C20(NO5)2
_chemical_formula_sum   'Ca2 H32 C40 N4 O20'
_cell_volume   1019.11090583
_cell_formula_units_Z   2
loop_
 _symmetry_equiv_pos_site_id
 _symmetry_equiv_pos_as_xyz
  1  'x, y, z'
loop_
 _atom_site_type_symbol
 _atom_site_label
 _atom_site_symmetry_multiplicity
 _atom_site_fract_x
 _atom_site_fract_y
 _atom_site_fract_z
 _atom_site_occupancy
 _atom_site_hle17_bader_spin_density
 _atom_site_hle17_ddec_charge
 _atom_site_hle17_ddec_spin_density
 _atom_site_hle17_ddec_sum_bond_order
 _atom_site_hle17_magmom
 _atom_site_hse06_10hf_bader_spin_density
 _atom_site_hse06_10hf_ddec_charge
 _atom_site_hse06_10hf_ddec_spin_density
 _atom_site_hse06_10hf_ddec_sum_bond_order
 _atom_site_hse06_10hf_magmom
 _atom_site_hse06_bader_spin_density
 _atom_site_hse06_ddec_charge
 _atom_site_hse06_ddec_spin_density
 _atom_site_hse06_ddec_sum_bond_order
 _atom_site_hse06_magmom
 _atom_site_pbe_bader_spin_density
 _atom_site_pbe_cm5_charge
 _atom_site_pbe_ddec_charge
 _atom_site_pbe_ddec_spin_density
 _atom_site_pbe_ddec_sum_bond_order
 _atom_site_pbe_magmom
Ca  Ca0  1  0.73924865  0.65089625  0.00090400  1  0  1.581206  0  1.07108  0  0  1.457023  0  1.419322  0  0  1.499274  0  1.373104  0  0  0.885445  1.425181  0  1.451987  0
Ca  Ca1  1  0.26077405  0.34909158  0.99909879  1  0  1.581218  0  1.071117  0  0  1.457054  0  1.419309  0  0  1.499314  0  1.373078  0  0  0.885436  1.425153  0  1.45207  0
H  H2  1  0.87214572  0.96797112  0.08201601  1  0  0.426045  0  0.873189  0  0  0.395903  0  0.935231  0  0  0.406014  0  0.920363  0  0  0.303065  0.388865  0  0.945549  0
H  H3  1  0.62273485  0.88286402  0.91638766  1  0  0.426347  0  0.872975  0  0  0.397051  0  0.933449  0  0  0.40715  0  0.918606  0  0  0.303837  0.389993  0  0.943795  0
H  H4  1  0.12784033  0.03202754  0.91797965  1  0  0.426073  0  0.873163  0  0  0.39591  0  0.935242  0  0  0.406023  0  0.920378  0  0  0.303046  0.388869  0  0.945563  0
H  H5  1  0.37726055  0.11709387  0.08359934  1  0  0.426347  0  0.872913  0  0  0.397049  0  0.933405  0  0  0.407148  0  0.918556  0  0  0.303882  0.389994  0  0.943746  0
H  H6  1  0.06508702  0.90404254  0.07123447  1  0  0.434422  0  0.854705  0  0  0.406464  0  0.911534  0  0  0.416334  0  0.896973  0  0  0.308583  0.399411  0  0.921947  0
H  H7  1  0.42316159  0.82705731  0.92235161  1  0  0.434344  0  0.857343  0  0  0.404546  0  0.917453  0  0  0.414742  0  0.902417  0  0  0.305465  0.397256  0  0.928204  0
H  H8  1  0.93490222  0.09595880  0.92877373  1  0  0.434457  0  0.854667  0  0  0.40648  0  0.911532  0  0  0.416353  0  0.896968  0  0  0.308595  0.399424  0  0.921949  0
H  H9  1  0.57683180  0.17290876  0.07764464  1  0  0.4343  0  0.857422  0  0  0.404502  0  0.91753  0  0  0.414695  0  0.9025  0  0  0.305521  0.397218  0  0.928272  0
H  H10  1  0.81857814  0.68462414  0.50261375  1  0  0.108729  0  0.937983  0  0  0.120424  0  0.995443  0  0  0.12331  0  0.99412  0  0  0.112037  0.118012  0  0.996865  0
H  H11  1  0.68156454  0.18462086  0.49587576  1  0  0.109621  0  0.933797  0  0  0.121119  0  0.991381  0  0  0.124152  0  0.989869  0  0  0.112311  0.118653  0  0.992826  0
H  H12  1  0.18143937  0.31537120  0.49737854  1  0  0.108727  0  0.93797  0  0  0.120425  0  0.995425  0  0  0.12331  0  0.994101  0  0  0.112037  0.118037  0  0.996822  0
H  H13  1  0.31845193  0.81543445  0.50412616  1  0  0.109642  0  0.933914  0  0  0.121061  0  0.991598  0  0  0.124094  0  0.990088  0  0  0.112275  0.118582  0  0.993078  0
H  H14  1  0.80327124  0.95184570  0.50142752  1  0  0.094998  0  0.98201  0  0  0.101331  0  1.04974  0  0  0.104756  0  1.047986  0  0  0.100191  0.098521  0  1.051501  0
H  H15  1  0.69506017  0.45329619  0.49695840  1  0  0.094626  0  0.982768  0  0  0.10014  0  1.051721  0  0  0.103424  0  1.050073  0  0  0.100396  0.097446  0  1.053372  0
H  H16  1  0.19673835  0.04815316  0.49857041  1  0  0.095038  0  0.981952  0  0  0.101359  0  1.04969  0  0  0.104784  0  1.047934  0  0  0.100204  0.098552  0  1.051445  0
H  H17  1  0.30497961  0.54674379  0.50301896  1  0  0.094676  0  0.982663  0  0  0.1002  0  1.051661  0  0  0.103495  0  1.049972  0  0  0.100408  0.097545  0  1.053226  0
H  H18  1  0.95518869  0.16142358  0.63076018  1  0  0.098657  0  0.937159  0  0  0.109479  0  0.995668  0  0  0.112903  0  0.993667  0  0  0.106066  0.107826  0  0.995896  0
H  H19  1  0.54098861  0.53231184  0.36789580  1  0  0.0988  0  0.937378  0  0  0.109525  0  0.995956  0  0  0.112962  0  0.993941  0  0  0.106189  0.107854  0  0.996199  0
H  H20  1  0.04480987  0.83857425  0.36924248  1  0  0.098628  0  0.937202  0  0  0.109507  0  0.995646  0  0  0.11293  0  0.993647  0  0  0.106098  0.107852  0  0.995871  0
H  H21  1  0.45903811  0.46770196  0.63207484  1  0  0.098736  0  0.93739  0  0  0.10953  0  0.995887  0  0  0.112968  0  0.993869  0  0  0.106275  0.107848  0  0.996145  0
H  H22  1  0.11675472  0.10525330  0.76867302  1  0  0.126512  0  0.955635  0  0  0.132859  0  1.021273  0  0  0.137489  0  1.017534  0  0  0.117267  0.128709  0  1.025195  0
H  H23  1  0.37755711  0.33708416  0.23054101  1  0  0.123976  0  0.951785  0  0  0.129243  0  1.019703  0  0  0.134164  0  1.015539  0  0  0.116522  0.124924  0  1.023867  0
H  H24  1  0.88322689  0.89473887  0.23133139  1  0  0.126515  0  0.955509  0  0  0.132831  0  1.021176  0  0  0.137466  0  1.017438  0  0  0.117239  0.12868  0  1.025095  0
H  H25  1  0.62245218  0.66291422  0.76944240  1  0  0.123917  0  0.951649  0  0  0.129238  0  1.019538  0  0  0.134164  0  1.015357  0  0  0.116533  0.124918  0  1.02371  0
H  H26  1  0.28627142  0.55831377  0.83199270  1  0  0.118167  0  0.932689  0  0  0.128623  0  0.998373  0  0  0.131295  0  0.996313  0  0  0.128669  0.12675  0  0.999945  0
H  H27  1  0.21374026  0.72144986  0.16523647  1  0  0.122678  0  0.933602  0  0  0.133499  0  0.997939  0  0  0.136345  0  0.995578  0  0  0.129505  0.131459  0  0.999757  0
H  H28  1  0.71372412  0.44168165  0.16800563  1  0  0.118141  0  0.932685  0  0  0.128627  0  0.998333  0  0  0.1313  0  0.996271  0  0  0.128646  0.12675  0  0.99991  0
H  H29  1  0.78625362  0.27857443  0.83478429  1  0  0.122886  0  0.933295  0  0  0.133525  0  0.997847  0  0  0.136375  0  0.995483  0  0  0.129513  0.13148  0  0.999674  0
H  H30  1  0.13447781  0.42042347  0.74874714  1  0  0.114883  0  0.909487  0  0  0.129989  0  0.96703  0  0  0.132462  0  0.964758  0  0  0.125227  0.128318  0  0.968379  0
H  H31  1  0.36208268  0.66947037  0.24979993  1  0  0.114853  0  0.909586  0  0  0.129951  0  0.967371  0  0  0.132321  0  0.965141  0  0  0.125101  0.128339  0  0.968728  0
H  H32  1  0.86552286  0.57956636  0.25125132  1  0  0.114799  0  0.909573  0  0  0.129948  0  0.96708  0  0  0.132399  0  0.964833  0  0  0.125203  0.128288  0  0.968413  0
H  H33  1  0.63788669  0.33055635  0.75023018  1  0  0.114717  0  0.909603  0  0  0.129845  0  0.967381  0  0  0.132216  0  0.965154  0  0  0.125047  0.128236  0  0.968737  0
C  C34  1  0.99601781  0.60097553  0.65945016  1  0  0.513766  0  3.800718  0  0  0.465617  0  4.091884  0  0  0.494109  0  4.092373  0  0  0.255663  0.446257  0  4.091185  0
C  C35  1  0.50046838  0.94291482  0.34000054  1  0  0.514968  0  3.79535  0  0  0.466307  0  4.088041  0  0  0.494859  0  4.088269  0  0  0.255218  0.446894  0  4.087499  0
C  C36  1  0.00399373  0.39901308  0.34054384  1  0  0.514178  0  3.800071  0  0  0.465991  0  4.091275  0  0  0.494483  0  4.091762  0  0  0.255859  0.446625  0  4.090587  0
C  C37  1  0.49952845  0.05711477  0.66000994  1  0  0.515108  0  3.795685  0  0  0.466531  0  4.08825  0  0  0.495087  0  4.08847  0  0  0.255292  0.447114  0  4.087708  0
C  C38  1  0.96676670  0.74639753  0.63763370  1  0  -0.088319  0  3.819793  0  0  -0.074713  0  4.05465  0  0  -0.080953  0  4.079805  0  0  -0.012252  -0.070038  0  4.037471  0
C  C39  1  0.53009317  0.11042105  0.36144940  1  0  -0.085815  0  3.812122  0  0  -0.073527  0  4.048467  0  0  -0.07957  0  4.073193  0  0  -0.01172  -0.068956  0  4.031522  0
C  C40  1  0.03324220  0.25359225  0.36236218  1  0  -0.088464  0  3.820053  0  0  -0.074815  0  4.054879  0  0  -0.081062  0  4.080043  0  0  -0.012257  -0.070147  0  4.037715  0
C  C41  1  0.46991221  0.88961299  0.63855795  1  0  -0.085741  0  3.812042  0  0  -0.073526  0  4.04838  0  0  -0.07957  0  4.073106  0  0  -0.011682  -0.068952  0  4.031433  0
C  C42  1  0.88003026  0.77537443  0.56090713  1  0  -0.03613  0  3.68332  0  0  -0.061265  0  3.93263  0  0  -0.061415  0  3.952368  0  0  -0.067824  -0.061408  0  3.919707  0
C  C43  1  0.61837312  0.21673741  0.43781116  1  0  -0.034002  0  3.68042  0  0  -0.058766  0  3.930146  0  0  -0.058899  0  3.949636  0  0  -0.066223  -0.058923  0  3.917375  0
C  C44  1  0.11998559  0.22461645  0.43908688  1  0  -0.036078  0  3.683362  0  0  -0.061213  0  3.932639  0  0  -0.06136  0  3.952381  0  0  -0.067777  -0.061382  0  3.919722  0
C  C45  1  0.38163687  0.78330636  0.56218355  1  0  -0.034246  0  3.680182  0  0  -0.058917  0  3.929877  0  0  -0.059046  0  3.949357  0  0  -0.066451  -0.059079  0  3.917102  0
C  C46  1  0.87500168  0.92727788  0.56052010  1  0  -0.05895  0  3.712211  0  0  -0.076117  0  3.970816  0  0  -0.078131  0  3.991507  0  0  -0.078582  -0.074367  0  3.957077  0
C  C47  1  0.62273246  0.36904441  0.43803474  1  0  -0.06056  0  3.713915  0  0  -0.07739  0  3.973059  0  0  -0.079385  0  3.993818  0  0  -0.078953  -0.07568  0  3.959316  0
C  C48  1  0.12500070  0.07271646  0.43947853  1  0  -0.058953  0  3.711942  0  0  -0.076109  0  3.970559  0  0  -0.078121  0  3.991242  0  0  -0.078577  -0.074358  0  3.956832  0
C  C49  1  0.37729124  0.63098112  0.56195063  1  0  -0.060492  0  3.713505  0  0  -0.07733  0  3.972573  0  0  -0.079311  0  3.993321  0  0  -0.07884  -0.075615  0  3.958826  0
C  C50  1  0.95887461  0.04471005  0.63396846  1  0  -0.054422  0  3.700414  0  0  -0.072247  0  3.961668  0  0  -0.07411  0  3.981459  0  0  -0.079594  -0.07135  0  3.947808  0
C  C51  1  0.53741919  0.41240097  0.36475586  1  0  -0.054127  0  3.700544  0  0  -0.071378  0  3.960586  0  0  -0.073203  0  3.980555  0  0  -0.079636  -0.070523  0  3.946651  0
C  C52  1  0.04112070  0.95528201  0.36603060  1  0  -0.054434  0  3.700359  0  0  -0.072324  0  3.96161  0  0  -0.074185  0  3.981399  0  0  -0.079682  -0.071428  0  3.947743  0
C  C53  1  0.46261017  0.58762681  0.63522835  1  0  -0.054239  0  3.70069  0  0  -0.071594  0  3.960865  0  0  -0.073419  0  3.980836  0  0  -0.079788  -0.070725  0  3.946932  0
C  C54  1  0.04777432  0.01512699  0.71149244  1  0  -0.045574  0  3.663337  0  0  -0.076395  0  3.924658  0  0  -0.075267  0  3.941257  0  0  -0.071782  -0.077422  0  3.914921  0
C  C55  1  0.44725649  0.30457524  0.28758547  1  0  -0.047469  0  3.67052  0  0  -0.078028  0  3.93181  0  0  -0.077329  0  3.948745  0  0  -0.071539  -0.078792  0  3.921912  0
C  C56  1  0.95222107  0.98486620  0.28850680  1  0  -0.045629  0  3.663153  0  0  -0.076374  0  3.924434  0  0  -0.075252  0  3.941036  0  0  -0.071738  -0.077404  0  3.914689  0
C  C57  1  0.55275080  0.69543332  0.71239997  1  0  -0.047314  0  3.671078  0  0  -0.077947  0  3.932384  0  0  -0.077252  0  3.949334  0  0  -0.071543  -0.078709  0  3.922478  0
C  C58  1  0.04750341  0.86465857  0.71188066  1  0  -0.08669  0  3.802253  0  0  -0.07697  0  4.047046  0  0  -0.083641  0  4.070575  0  0  -0.013801  -0.072914  0  4.031517  0
C  C59  1  0.44771141  0.15379884  0.28738013  1  0  -0.0869  0  3.800916  0  0  -0.075171  0  4.044275  0  0  -0.081807  0  4.068007  0  0  -0.012793  -0.071134  0  4.028615  0
C  C60  1  0.95248768  0.13533235  0.28811856  1  0  -0.086552  0  3.802231  0  0  -0.076847  0  4.047043  0  0  -0.083518  0  4.07058  0  0  -0.013783  -0.072783  0  4.031495  0
C  C61  1  0.55228685  0.84621468  0.71262050  1  0  -0.086834  0  3.801271  0  0  -0.075043  0  4.044631  0  0  -0.081684  0  4.06836  0  0  -0.012633  -0.070998  0  4.028967  0
C  C62  1  0.12828867  0.79601173  0.78172491  1  0  0.535502  0  3.770188  0  0  0.479556  0  4.064269  0  0  0.509998  0  4.062587  0  0  0.267678  0.459184  0  4.064677  0
C  C63  1  0.36608396  0.01447850  0.21789057  1  0  0.534484  0  3.772145  0  0  0.476841  0  4.069303  0  0  0.507122  0  4.067843  0  0  0.265508  0.456547  0  4.069609  0
C  C64  1  0.87170246  0.20397926  0.21827621  1  0  0.535569  0  3.770325  0  0  0.479452  0  4.06464  0  0  0.509899  0  4.062953  0  0  0.267674  0.459085  0  4.065042  0
C  C65  1  0.63391946  0.98552848  0.78211568  1  0  0.534709  0  3.771931  0  0  0.476968  0  4.069185  0  0  0.507275  0  4.067686  0  0  0.265408  0.456663  0  4.069502  0
C  C66  1  0.14327711  0.53383551  0.79577788  1  0  -0.139123  0  3.64713  0  0  -0.202969  0  3.906349  0  0  -0.201161  0  3.910759  0  0  -0.052218  -0.204369  0  3.90353  0
C  C67  1  0.35495512  0.73848762  0.20351744  1  0  -0.136168  0  3.640203  0  0  -0.200841  0  3.899025  0  0  -0.198652  0  3.90283  0  0  -0.052287  -0.202478  0  3.896575  0
C  C68  1  0.85671933  0.46615316  0.20422075  1  0  -0.138961  0  3.647271  0  0  -0.202857  0  3.906517  0  0  -0.201028  0  3.910929  0  0  -0.05218  -0.204261  0  3.90369  0
C  C69  1  0.64502918  0.26153576  0.79651130  1  0  -0.136044  0  3.639612  0  0  -0.200642  0  3.898505  0  0  -0.198466  0  3.902327  0  0  -0.052194  -0.20227  0  3.89605  0
C  C70  1  0.01279871  0.53376277  0.86268695  1  0  0.698864  0  3.90135  0  0  0.653503  0  4.205535  0  0  0.686163  0  4.197955  0  0  0.223042  0.631215  0  4.210037  0
C  C71  1  0.49200978  0.68515589  0.13926094  1  0  0.6914  0  3.904157  0  0  0.647588  0  4.205234  0  0  0.679924  0  4.198199  0  0  0.219924  0.625528  0  4.209313  0
C  C72  1  0.98719683  0.46623264  0.13731138  1  0  0.69871  0  3.901671  0  0  0.65333  0  4.205903  0  0  0.68599  0  4.198322  0  0  0.222985  0.631041  0  4.210404  0
C  C73  1  0.50797684  0.31482551  0.86075722  1  0  0.691692  0  3.903322  0  0  0.647836  0  4.20453  0  0  0.680175  0  4.197491  0  0  0.220025  0.625783  0  4.208601  0
N  N74  1  0.09902274  0.64034894  0.74579937  1  0  -0.269278  0  3.466218  0  0  -0.192637  0  3.706988  0  0  -0.2179  0  3.726311  0  0  -0.254943  -0.175284  0  3.693161  0
N  N75  1  0.39495798  0.89495663  0.25427741  1  0  -0.269703  0  3.461443  0  0  -0.192133  0  3.70233  0  0  -0.217566  0  3.721637  0  0  -0.255372  -0.174652  0  3.688511  0
N  N76  1  0.90097524  0.35964199  0.25419907  1  0  -0.26948  0  3.466304  0  0  -0.192801  0  3.707175  0  0  -0.218061  0  3.726483  0  0  -0.25497  -0.175451  0  3.693359  0
N  N77  1  0.60505194  0.10506190  0.74573667  1  0  -0.270148  0  3.461116  0  0  -0.192514  0  3.701966  0  0  -0.217954  0  3.721259  0  0  -0.255395  -0.175028  0  3.688158  0
O  O78  1  0.94513154  0.47065626  0.61511313  1  0  -0.479632  0  1.908376  0  0  -0.435786  0  2.114562  0  0  -0.454677  0  2.109643  0  0  -0.260302  -0.422361  0  2.116686  0
O  O79  1  0.55286272  0.85757089  0.38431976  1  0  -0.479425  0  1.905916  0  0  -0.435461  0  2.112703  0  0  -0.454534  0  2.107893  0  0  -0.259242  -0.421921  0  2.114806  0
O  O80  1  0.05488940  0.52932997  0.38487552  1  0  -0.479811  0  1.907924  0  0  -0.435976  0  2.114166  0  0  -0.454863  0  2.109235  0  0  -0.260482  -0.422554  0  2.116297  0
O  O81  1  0.44712552  0.14247136  0.61570020  1  0  -0.479393  0  1.906212  0  0  -0.435476  0  2.11296  0  0  -0.454549  0  2.108144  0  0  -0.259271  -0.421957  0  2.115091  0
O  O82  1  0.20861817  0.85923425  0.85799764  1  0  -0.502443  0  2.011477  0  0  -0.441034  0  2.217635  0  0  -0.46154  0  2.208409  0  0  -0.237754  -0.426948  0  2.223554  0
O  O83  1  0.28616694  0.00050000  0.14149489  1  0  -0.503437  0  2.006266  0  0  -0.443072  0  2.213448  0  0  -0.463271  0  2.204128  0  0  -0.23754  -0.429239  0  2.219513  0
O  O84  1  0.79136584  0.14075437  0.14200139  1  0  -0.502506  0  2.011637  0  0  -0.440985  0  2.217788  0  0  -0.461494  0  2.208556  0  0  -0.237732  -0.426909  0  2.223713  0
O  O85  1  0.71382606  0.99949578  0.85851460  1  0  -0.503506  0  2.006213  0  0  -0.44308  0  2.213402  0  0  -0.463293  0  2.204072  0  0  -0.237458  -0.429242  0  2.219473  0
O  O86  1  0.05024598  0.44303751  0.90887956  1  0  -0.739833  0  1.990091  0  0  -0.684236  0  2.242261  0  0  -0.711939  0  2.231036  0  0  -0.382846  -0.664131  0  2.249036  0
O  O87  1  0.46256379  0.54979183  0.08927125  1  0  -0.752419  0  1.991508  0  0  -0.693098  0  2.239065  0  0  -0.72147  0  2.228986  0  0  -0.380463  -0.672508  0  2.244992  0
O  O88  1  0.94977837  0.55697091  0.09113273  1  0  -0.739634  0  1.990409  0  0  -0.684086  0  2.242657  0  0  -0.711781  0  2.231428  0  0  -0.382796  -0.663993  0  2.249421  0
O  O89  1  0.53742984  0.45016064  0.91079004  1  0  -0.752528  0  1.991286  0  0  -0.693133  0  2.23882  0  0  -0.7215  0  2.228731  0  0  -0.380473  -0.672556  0  2.244746  0
O  O90  1  0.88096181  0.61959832  0.86725144  1  0  -0.674884  0  1.936357  0  0  -0.624397  0  2.173701  0  0  -0.650201  0  2.164592  0  0  -0.347072  -0.606053  0  2.179304  0
O  O91  1  0.62268997  0.77594276  0.13875962  1  0  -0.668765  0  1.956428  0  0  -0.621137  0  2.193837  0  0  -0.646654  0  2.185467  0  0  -0.344803  -0.603008  0  2.198976  0
O  O92  1  0.11900771  0.38036501  0.13273400  1  0  -0.674944  0  1.93619  0  0  -0.624424  0  2.173498  0  0  -0.650235  0  2.164406  0  0  -0.347125  -0.606069  0  2.179102  0
O  O93  1  0.37726368  0.22403059  0.86122499  1  0  -0.668938  0  1.955848  0  0  -0.621314  0  2.193285  0  0  -0.64683  0  2.184919  0  0  -0.344883  -0.603178  0  2.198422  0
O  O94  1  0.93190182  0.87824679  0.05137932  1  0  -0.880142  0  1.795779  0  0  -0.828194  0  1.972581  0  0  -0.848162  0  1.941696  0  0  -0.631163  -0.813711  0  1.993848  0
O  O95  1  0.55481325  0.81726778  0.94229915  1  0  -0.883685  0  1.784715  0  0  -0.829622  0  1.960091  0  0  -0.849863  0  1.929025  0  0  -0.632206  -0.814959  0  1.981564  0
O  O96  1  0.06809282  0.12175637  0.94861510  1  0  -0.880224  0  1.795818  0  0  -0.828271  0  1.972657  0  0  -0.848241  0  1.94173  0  0  -0.63116  -0.813776  0  1.993934  0
O  O97  1  0.44518359  0.18267406  0.05767863  1  0  -0.883647  0  1.784682  0  0  -0.829598  0  1.960021  0  0  -0.849837  0  1.928974  0  0  -0.63233  -0.814928  0  1.981493  0
