# generated using pymatgen
data_CdH10C14Cl2O5
_symmetry_space_group_name_H-M   'P 1'
_cell_length_a   6.25464933
_cell_length_b   7.32055248
_cell_length_c   17.06526870
_cell_angle_alpha   97.29804289
_cell_angle_beta   103.48075365
_cell_angle_gamma   86.84571138
_symmetry_Int_Tables_number   1
_chemical_formula_structural   CdH10C14Cl2O5
_chemical_formula_sum   'Cd2 H20 C28 Cl4 O10'
_cell_volume   753.43026102
_cell_formula_units_Z   2
loop_
 _symmetry_equiv_pos_site_id
 _symmetry_equiv_pos_as_xyz
  1  'x, y, z'
loop_
 _atom_site_type_symbol
 _atom_site_label
 _atom_site_symmetry_multiplicity
 _atom_site_fract_x
 _atom_site_fract_y
 _atom_site_fract_z
 _atom_site_occupancy
 _atom_site_hle17_bader_spin_density
 _atom_site_hle17_ddec_charge
 _atom_site_hle17_ddec_spin_density
 _atom_site_hle17_ddec_sum_bond_order
 _atom_site_hle17_magmom
 _atom_site_hse06_10hf_bader_spin_density
 _atom_site_hse06_10hf_ddec_charge
 _atom_site_hse06_10hf_ddec_spin_density
 _atom_site_hse06_10hf_ddec_sum_bond_order
 _atom_site_hse06_10hf_magmom
 _atom_site_hse06_bader_spin_density
 _atom_site_hse06_ddec_charge
 _atom_site_hse06_ddec_spin_density
 _atom_site_hse06_ddec_sum_bond_order
 _atom_site_hse06_magmom
 _atom_site_pbe_bader_spin_density
 _atom_site_pbe_cm5_charge
 _atom_site_pbe_ddec_charge
 _atom_site_pbe_ddec_spin_density
 _atom_site_pbe_ddec_sum_bond_order
 _atom_site_pbe_magmom
Cd  Cd0  1  0.82578289  0.24650170  0.99619202  1  0  1.288148  0  1.549116  0  0  1.112619  0  1.991611  0  0  1.170612  0  1.931091  0  0  0.788842  1.070881  0  2.033572  0
Cd  Cd1  1  0.17421017  0.75350730  0.00380754  1  0  1.288157  0  1.54903  0  0  1.11261  0  1.991492  0  0  1.170604  0  1.930982  0  0  0.788857  1.070872  0  2.033452  0
H  H2  1  0.54295205  0.60532342  0.16047828  1  0  0.108333  0  0.94693  0  0  0.116235  0  1.010101  0  0  0.119577  0  1.007382  0  0  0.105783  0.113826  0  1.012066  0
H  H3  1  0.40609142  0.88966418  0.84972580  1  0  0.102553  0  0.93453  0  0  0.113751  0  0.992202  0  0  0.1168  0  0.989961  0  0  0.107247  0.111543  0  0.993876  0
H  H4  1  0.45707058  0.39468512  0.83952299  1  0  0.108352  0  0.946937  0  0  0.116275  0  1.01008  0  0  0.119632  0  1.007348  0  0  0.105791  0.113864  0  1.012052  0
H  H5  1  0.59391011  0.11035004  0.15028002  1  0  0.10262  0  0.934493  0  0  0.11382  0  0.992142  0  0  0.116869  0  0.989901  0  0  0.107269  0.111612  0  0.993813  0
H  H6  1  0.78149025  0.69877715  0.29702164  1  0  0.107853  0  0.961429  0  0  0.116939  0  1.024224  0  0  0.119126  0  1.025209  0  0  0.10088  0.115283  0  1.023829  0
H  H7  1  0.51611121  0.80461634  0.71876951  1  0  0.107132  0  0.969402  0  0  0.116547  0  1.032281  0  0  0.118677  0  1.033286  0  0  0.101349  0.114862  0  1.032052  0
H  H8  1  0.21850971  0.30122472  0.70298273  1  0  0.10793  0  0.961331  0  0  0.117061  0  1.024075  0  0  0.119261  0  1.025026  0  0  0.100912  0.115402  0  1.023685  0
H  H9  1  0.48388891  0.19536213  0.28123290  1  0  0.107176  0  0.96979  0  0  0.11661  0  1.032626  0  0  0.118738  0  1.033632  0  0  0.101387  0.114927  0  1.032401  0
H  H10  1  0.28805283  0.52723655  0.40985044  1  0  0.107406  0  0.968051  0  0  0.111692  0  1.038715  0  0  0.115544  0  1.036595  0  0  0.092173  0.108964  0  1.040292  0
H  H11  1  0.87796945  0.98538368  0.58940156  1  0  0.107199  0  0.968879  0  0  0.111839  0  1.039404  0  0  0.115635  0  1.037312  0  0  0.091598  0.109118  0  1.041018  0
H  H12  1  0.71195510  0.47274886  0.59014654  1  0  0.107409  0  0.968079  0  0  0.111732  0  1.038705  0  0  0.115585  0  1.036582  0  0  0.092169  0.109004  0  1.040282  0
H  H13  1  0.12202536  0.01462112  0.41059907  1  0  0.10723  0  0.969042  0  0  0.11189  0  1.039538  0  0  0.115681  0  1.03745  0  0  0.091603  0.10917  0  1.041151  0
H  H14  1  0.05025948  0.43168447  0.27242223  1  0  0.106972  0  0.946424  0  0  0.116431  0  1.007057  0  0  0.11901  0  1.006455  0  0  0.106314  0.11448  0  1.007726  0
H  H15  1  0.76855106  0.07191750  0.72156808  1  0  0.105568  0  0.952174  0  0  0.114406  0  1.01526  0  0  0.116819  0  1.01498  0  0  0.105292  0.112507  0  1.015871  0
H  H16  1  0.94974988  0.56831474  0.72757393  1  0  0.10685  0  0.9464  0  0  0.116385  0  1.006953  0  0  0.118964  0  1.006355  0  0  0.106292  0.114432  0  1.007623  0
H  H17  1  0.23143396  0.92808194  0.27843205  1  0  0.105595  0  0.952087  0  0  0.114434  0  1.015179  0  0  0.116849  0  1.014893  0  0  0.105264  0.112537  0  1.015785  0
H  H18  1  0.39002076  0.35560016  0.01671227  1  0  0.438475  0  0.863042  0  0  0.408092  0  0.925585  0  0  0.418799  0  0.910049  0  0  0.293033  0.400507  0  0.93656  0
H  H19  1  0.36360542  0.16766119  0.95984259  1  0  0.433303  0  0.870793  0  0  0.403087  0  0.932813  0  0  0.413929  0  0.917105  0  0  0.289653  0.395415  0  0.943905  0
H  H20  1  0.60996865  0.64440634  0.98327982  1  0  0.438327  0  0.863264  0  0  0.407979  0  0.925761  0  0  0.418672  0  0.910242  0  0  0.293031  0.400423  0  0.936704  0
H  H21  1  0.63639216  0.83235206  0.04015055  1  0  0.433188  0  0.870913  0  0  0.402986  0  0.932906  0  0  0.413831  0  0.917196  0  0  0.289614  0.395313  0  0.944  0
C  C22  1  0.14418869  0.44843086  0.12679039  1  0  0.669377  0  3.883754  0  0  0.616366  0  4.17185  0  0  0.652536  0  4.16445  0  0  0.212953  0.591731  0  4.175966  0
C  C23  1  0.01491668  0.04079875  0.87208421  1  0  0.660938  0  3.887942  0  0  0.606733  0  4.178107  0  0  0.642822  0  4.17079  0  0  0.209414  0.582153  0  4.182222  0
C  C24  1  0.85581559  0.55157399  0.87320395  1  0  0.66931  0  3.883124  0  0  0.616253  0  4.171363  0  0  0.652429  0  4.163968  0  0  0.212926  0.591615  0  4.175481  0
C  C25  1  0.98507289  0.95920354  0.12790999  1  0  0.660774  0  3.888589  0  0  0.606546  0  4.17881  0  0  0.642629  0  4.171492  0  0  0.209263  0.581966  0  4.182924  0
C  C26  1  0.28207365  0.51188700  0.20819190  1  0  -0.089504  0  3.761285  0  0  -0.068885  0  3.998839  0  0  -0.079098  0  4.022033  0  0  -0.024714  -0.062185  0  3.983086  0
C  C27  1  0.07974020  0.98588287  0.79388329  1  0  -0.081891  0  3.756724  0  0  -0.060588  0  3.993519  0  0  -0.070648  0  4.016782  0  0  -0.02284  -0.054014  0  3.977792  0
C  C28  1  0.71794054  0.48813276  0.79180704  1  0  -0.08932  0  3.761626  0  0  -0.068872  0  3.999453  0  0  -0.079106  0  4.022682  0  0  -0.024768  -0.062172  0  3.983701  0
C  C29  1  0.92025784  0.01411642  0.20611550  1  0  -0.081704  0  3.756497  0  0  -0.060407  0  3.993281  0  0  -0.070458  0  4.016531  0  0  -0.022822  -0.053833  0  3.977553  0
C  C30  1  0.48768590  0.58792599  0.21504597  1  0  -0.021187  0  3.691026  0  0  -0.045916  0  3.941675  0  0  -0.043251  0  3.959782  0  0  -0.072671  -0.047398  0  3.929286  0
C  C31  1  0.29044743  0.91074692  0.79288782  1  0  -0.02074  0  3.694354  0  0  -0.045538  0  3.944683  0  0  -0.043068  0  3.963303  0  0  -0.073523  -0.046893  0  3.931923  0
C  C32  1  0.51233673  0.41207570  0.78495372  1  0  -0.021284  0  3.691066  0  0  -0.04598  0  3.941783  0  0  -0.043321  0  3.959889  0  0  -0.072742  -0.047467  0  3.929396  0
C  C33  1  0.70955100  0.08924532  0.20711645  1  0  -0.020924  0  3.694399  0  0  -0.045679  0  3.944693  0  0  -0.04321  0  3.963309  0  0  -0.073563  -0.047028  0  3.931928  0
C  C34  1  0.62127672  0.64041837  0.29108497  1  0  -0.140359  0  3.737512  0  0  -0.159413  0  3.986251  0  0  -0.164764  0  4.008194  0  0  -0.096325  -0.155935  0  3.971694  0
C  C35  1  0.35284490  0.86274463  0.71984389  1  0  -0.137475  0  3.748628  0  0  -0.15874  0  3.999025  0  0  -0.164074  0  4.021646  0  0  -0.095407  -0.155293  0  3.984061  0
C  C36  1  0.37872972  0.35957521  0.70891649  1  0  -0.140558  0  3.737269  0  0  -0.159635  0  3.986043  0  0  -0.164984  0  4.007986  0  0  -0.096359  -0.156151  0  3.971492  0
C  C37  1  0.64712185  0.13725793  0.28015205  1  0  -0.137564  0  3.74851  0  0  -0.15886  0  3.999004  0  0  -0.164195  0  4.021616  0  0  -0.09544  -0.155417  0  3.984039  0
C  C38  1  0.54806650  0.61670053  0.36046532  1  0  0.154899  0  3.785834  0  0  0.166027  0  4.048455  0  0  0.171252  0  4.069025  0  0  0.017721  0.162434  0  4.034578  0
C  C39  1  0.20301763  0.88959676  0.64723108  1  0  0.152683  0  3.790519  0  0  0.164372  0  4.052258  0  0  0.169469  0  4.072855  0  0  0.017632  0.160849  0  4.038382  0
C  C40  1  0.45194318  0.38330811  0.63953846  1  0  0.155295  0  3.78546  0  0  0.166348  0  4.048174  0  0  0.171574  0  4.068745  0  0  0.017886  0.162742  0  4.034314  0
C  C41  1  0.79697458  0.11038305  0.35277664  1  0  0.152727  0  3.789818  0  0  0.164339  0  4.051745  0  0  0.169449  0  4.072322  0  0  0.017603  0.160822  0  4.037862  0
C  C42  1  0.34183582  0.54447877  0.35501173  1  0  -0.147204  0  3.751387  0  0  -0.168446  0  4.005895  0  0  -0.173533  0  4.025641  0  0  -0.101066  -0.16508  0  3.992532  0
C  C43  1  0.99164879  0.96386209  0.64661777  1  0  -0.145972  0  3.750298  0  0  -0.166337  0  4.001653  0  0  -0.171278  0  4.02124  0  0  -0.101207  -0.163067  0  3.988422  0
C  C44  1  0.65818184  0.45551478  0.64498533  1  0  -0.147333  0  3.75137  0  0  -0.168575  0  4.00585  0  0  -0.17367  0  4.025616  0  0  -0.101055  -0.165192  0  3.99246  0
C  C45  1  0.00836940  0.03611884  0.35338620  1  0  -0.146103  0  3.750201  0  0  -0.166472  0  4.001585  0  0  -0.171426  0  4.021187  0  0  -0.101235  -0.163202  0  3.988354  0
C  C46  1  0.20981173  0.49168229  0.27852543  1  0  -0.046164  0  3.717803  0  0  -0.067891  0  3.965791  0  0  -0.065505  0  3.984564  0  0  -0.079109  -0.069254  0  3.95313  0
C  C47  1  0.93123413  0.01186170  0.72025918  1  0  -0.043672  0  3.712003  0  0  -0.066835  0  3.960875  0  0  -0.064621  0  3.98043  0  0  -0.078673  -0.068084  0  3.947711  0
C  C48  1  0.79019157  0.50830167  0.72147638  1  0  -0.046083  0  3.718068  0  0  -0.067811  0  3.966104  0  0  -0.065428  0  3.984894  0  0  -0.079059  -0.069173  0  3.953441  0
C  C49  1  0.06874718  0.98814624  0.27973471  1  0  -0.04376  0  3.712186  0  0  -0.066914  0  3.961061  0  0  -0.064699  0  3.980611  0  0  -0.0787  -0.068162  0  3.947895  0
Cl  Cl50  1  0.71998685  0.67538348  0.45466258  1  0  -0.107172  0  1.401709  0  0  -0.09182  0  1.640754  0  0  -0.095883  0  1.636154  0  0  -0.001241  -0.088669  0  1.643982  0
Cl  Cl51  1  0.28461835  0.83148479  0.55700651  1  0  -0.103717  0  1.407534  0  0  -0.089633  0  1.648873  0  0  -0.093944  0  1.644736  0  0  0.000353  -0.08631  0  1.651823  0
Cl  Cl52  1  0.28001321  0.32461422  0.54534273  1  0  -0.107313  0  1.401542  0  0  -0.091947  0  1.640643  0  0  -0.09601  0  1.636043  0  0  -0.001317  -0.088794  0  1.643876  0
Cl  Cl53  1  0.71537383  0.16849230  0.44299988  1  0  -0.103713  0  1.407717  0  0  -0.089577  0  1.649091  0  0  -0.093891  0  1.64495  0  0  0.000373  -0.086253  0  1.652038  0
O  O54  1  0.96390989  0.37061844  0.12300451  1  0  -0.62467  0  1.999902  0  0  -0.554281  0  2.246423  0  0  -0.586048  0  2.237569  0  0  -0.312668  -0.532045  0  2.251735  0
O  O55  1  0.82078017  0.10388922  0.87099635  1  0  -0.614579  0  1.992887  0  0  -0.545686  0  2.238633  0  0  -0.576903  0  2.231068  0  0  -0.308032  -0.523807  0  2.242966  0
O  O56  1  0.03611594  0.62938598  0.87699442  1  0  -0.624647  0  1.999566  0  0  -0.554139  0  2.246019  0  0  -0.585909  0  2.237167  0  0  -0.31259  -0.531901  0  2.251332  0
O  O57  1  0.17920004  0.89611983  0.12900749  1  0  -0.614525  0  1.993331  0  0  -0.545589  0  2.239002  0  0  -0.576827  0  2.231488  0  0  -0.307894  -0.523724  0  2.243367  0
O  O58  1  0.21006140  0.46963141  0.06269380  1  0  -0.728367  0  2.118637  0  0  -0.65253  0  2.371175  0  0  -0.682053  0  2.356211  0  0  -0.337157  -0.63165  0  2.380726  0
O  O59  1  0.15816652  0.02882800  0.93967748  1  0  -0.74028  0  2.099695  0  0  -0.664175  0  2.353182  0  0  -0.693288  0  2.336184  0  0  -0.340346  -0.643605  0  2.364192  0
O  O60  1  0.78993998  0.53037740  0.93730816  1  0  -0.728416  0  2.118201  0  0  -0.652573  0  2.370751  0  0  -0.682102  0  2.355802  0  0  -0.337196  -0.631702  0  2.380306  0
O  O61  1  0.84182526  0.97119317  0.06033092  1  0  -0.740096  0  2.100302  0  0  -0.663976  0  2.353767  0  0  -0.693084  0  2.336766  0  0  -0.340287  -0.643407  0  2.364775  0
O  O62  1  0.46028426  0.27659000  0.97729743  1  0  -0.857871  0  1.844606  0  0  -0.788439  0  2.04184  0  0  -0.812655  0  2.006607  0  0  -0.59524  -0.771279  0  2.066334  0
O  O63  1  0.53971497  0.72340128  0.02269161  1  0  -0.857612  0  1.844706  0  0  -0.788242  0  2.041906  0  0  -0.812441  0  2.006705  0  0  -0.59523  -0.771108  0  2.066342  0
