# generated using pymatgen
data_SmH13C13O9
_symmetry_space_group_name_H-M   'P 1'
_cell_length_a   11.96772059
_cell_length_b   12.44526102
_cell_length_c   12.55200000
_cell_angle_alpha   90.00000000
_cell_angle_beta   98.83509687
_cell_angle_gamma   90.00000000
_symmetry_Int_Tables_number   1
_chemical_formula_structural   SmH13C13O9
_chemical_formula_sum   'Sm4 H52 C52 O36'
_cell_volume   1847.32980406
_cell_formula_units_Z   4
loop_
 _symmetry_equiv_pos_site_id
 _symmetry_equiv_pos_as_xyz
  1  'x, y, z'
loop_
 _atom_site_type_symbol
 _atom_site_label
 _atom_site_symmetry_multiplicity
 _atom_site_fract_x
 _atom_site_fract_y
 _atom_site_fract_z
 _atom_site_occupancy
 _atom_site_hle17_bader_spin_density
 _atom_site_hle17_ddec_charge
 _atom_site_hle17_ddec_spin_density
 _atom_site_hle17_ddec_sum_bond_order
 _atom_site_hle17_magmom
 _atom_site_hse06_10hf_bader_spin_density
 _atom_site_hse06_10hf_ddec_charge
 _atom_site_hse06_10hf_ddec_spin_density
 _atom_site_hse06_10hf_ddec_sum_bond_order
 _atom_site_hse06_10hf_magmom
 _atom_site_hse06_bader_spin_density
 _atom_site_hse06_ddec_charge
 _atom_site_hse06_ddec_spin_density
 _atom_site_hse06_ddec_sum_bond_order
 _atom_site_hse06_magmom
 _atom_site_pbe_bader_charge
 _atom_site_pbe_bader_spin_density
 _atom_site_pbe_cm5_charge
 _atom_site_pbe_ddec_charge
 _atom_site_pbe_ddec_spin_density
 _atom_site_pbe_ddec_sum_bond_order
 _atom_site_pbe_magmom
Sm  Sm0  1  0.37407709  0.44575200  0.13228685  1  0  2.285319  0  1.681539  0  0  2.139562  0  2.148962  0  0  2.241447  0  1.997693  0  2.217464  0  1.542962  2.103928  0  2.184194  0
Sm  Sm1  1  0.62592482  0.94575276  0.86771391  1  0  2.285339  0  1.681506  0  0  2.139571  0  2.14895  0  0  2.241472  0  1.997656  0  2.217474  0  1.542983  2.103972  0  2.184122  0
Sm  Sm2  1  0.63961532  0.22850143  0.18431405  1  0  2.343955  0  1.664891  0  0  2.256631  0  2.024512  0  0  2.299734  0  1.98016  0  2.242775  0  1.544616  2.170033  0  2.160558  0
Sm  Sm3  1  0.36038490  0.72850139  0.81568646  1  0  2.343952  0  1.664852  0  0  2.256622  0  2.02447  0  0  2.299727  0  1.980114  0  2.242734  0  1.544618  2.170014  0  2.160538  0
H  H4  1  0.31846017  0.40528841  0.47269464  1  0  0.140701  0  0.92225  0  0  0.151211  0  0.978522  0  0  0.15618  0  0.974654  0  0.115555  0  0.118234  0.147656  0  0.98133  0
H  H5  1  0.68154089  0.90528836  0.52730600  1  0  0.140686  0  0.922253  0  0  0.151189  0  0.978524  0  0  0.156158  0  0.974656  0  0.115551  0  0.118222  0.147635  0  0.981332  0
H  H6  1  0.48129596  0.33591501  0.79745120  1  0  0.121901  0  0.995287  0  0  0.132134  0  1.058328  0  0  0.135323  0  1.056584  0  0.091364  0  0.111176  0.12985  0  1.059594  0
H  H7  1  0.51870341  0.83591658  0.20255158  1  0  0.121923  0  0.995304  0  0  0.132166  0  1.058342  0  0  0.135358  0  1.056593  0  0.091409  0  0.111197  0.129882  0  1.059606  0
H  H8  1  0.65987963  0.28186070  0.53078143  1  0  0.122502  0  0.940799  0  0  0.134203  0  0.998302  0  0  0.138779  0  0.994565  0  0.108783  0  0.113111  0.130784  0  1.00145  0
H  H9  1  0.34011975  0.78186146  0.46921896  1  0  0.122486  0  0.940812  0  0  0.134189  0  0.99831  0  0  0.138765  0  0.994572  0  0.108773  0  0.113103  0.130771  0  1.001457  0
H  H10  1  0.30212882  0.29755262  0.79753934  1  0  0.065116  0  0.9228  0  0  0.072912  0  0.986137  0  0  0.074306  0  0.984862  0  0.090079  0  0.114452  0.071935  0  0.986971  0
H  H11  1  0.69787140  0.79755338  0.20246196  1  0  0.065144  0  0.922817  0  0  0.072919  0  0.986132  0  0  0.074312  0  0.984857  0  0.090088  0  0.114466  0.071941  0  0.986965  0
H  H12  1  0.10245890  0.33999207  0.73815196  1  0  0.126882  0  0.922697  0  0  0.14742  0  0.980204  0  0  0.149391  0  0.979619  0  0.058938  0  0.10027  0.14598  0  0.980652  0
H  H13  1  0.89754132  0.83999122  0.26185014  1  0  0.126937  0  0.922701  0  0  0.14746  0  0.980224  0  0  0.149432  0  0.979638  0  0.058902  0  0.100275  0.146021  0  0.980672  0
H  H14  1  0.12595853  0.47882804  0.77270546  1  0  0.117769  0  0.945983  0  0  0.139749  0  1.00464  0  0  0.141757  0  1.00359  0  0.062288  0  0.096724  0.13814  0  1.005671  0
H  H15  1  0.87404169  0.97882720  0.22729665  1  0  0.117786  0  0.946004  0  0  0.139775  0  1.004646  0  0  0.141784  0  1.003596  0  0.062665  0  0.096733  0.138164  0  1.005679  0
H  H16  1  0.14164637  0.37897236  0.87579312  1  0  0.131911  0  0.934431  0  0  0.153422  0  0.991885  0  0  0.154726  0  0.992577  0  0.079307  0  0.105185  0.152461  0  0.991452  0
H  H17  1  0.85835554  0.87897152  0.12421002  1  0  0.131956  0  0.934355  0  0  0.153451  0  0.99183  0  0  0.154758  0  0.992519  0  0.079275  0  0.105182  0.152491  0  0.991397  0
H  H18  1  0.65256506  0.37774057  0.86124389  1  0  0.05713  0  0.925102  0  0  0.067029  0  0.985836  0  0  0.068175  0  0.985003  0  0.071383  0  0.113672  0.066149  0  0.986685  0
H  H19  1  0.34743516  0.87774133  0.13875582  1  0  0.057167  0  0.925143  0  0  0.067064  0  0.98586  0  0  0.068211  0  0.985027  0  0.07137  0  0.113687  0.066184  0  0.98671  0
H  H20  1  0.85518448  0.37031445  0.85098912  1  0  0.122966  0  0.944321  0  0  0.141852  0  1.005383  0  0  0.144023  0  1.004371  0  0.070941  0  0.095348  0.140258  0  1.006172  0
H  H21  1  0.14481489  0.87031521  0.14901047  1  0  0.122982  0  0.944338  0  0  0.141865  0  1.005406  0  0  0.144036  0  1.004394  0  0.0709  0  0.09536  0.140271  0  1.006196  0
H  H22  1  0.85887728  0.22897872  0.87226763  1  0  0.111777  0  0.973829  0  0  0.132284  0  1.034864  0  0  0.13287  0  1.036253  0  0.078089  0  0.09228  0.131807  0  1.033932  0
H  H23  1  0.14112209  0.72897949  0.12773196  1  0  0.111785  0  0.973799  0  0  0.132274  0  1.03485  0  0  0.132859  0  1.03624  0  0.078106  0  0.092273  0.131798  0  1.033918  0
H  H24  1  0.83052720  0.31751684  0.97704764  1  0  0.115541  0  0.951124  0  0  0.134335  0  1.015642  0  0  0.135907  0  1.015438  0  0.042951  0  0.099246  0.133362  0  1.015406  0
H  H25  1  0.16947302  0.81751761  0.02295208  1  0  0.115547  0  0.95112  0  0  0.134341  0  1.01563  0  0  0.135911  0  1.015427  0  0.042939  0  0.099247  0.133367  0  1.015396  0
H  H26  1  0.00656366  0.53381122  0.91662643  1  0  0.115866  0  0.962691  0  0  0.125138  0  1.028555  0  0  0.129429  0  1.025272  0  0.088788  0  0.108542  0.121919  0  1.031231  0
H  H27  1  0.99343825  0.03380966  0.08337274  1  0  0.115807  0  0.962764  0  0  0.125111  0  1.0286  0  0  0.129435  0  1.025278  0  0.088777  0  0.108523  0.121893  0  1.031275  0
H  H28  1  0.70273707  0.60654172  0.04732364  1  0  0.127825  0  0.957008  0  0  0.139791  0  1.016136  0  0  0.143625  0  1.013529  0  0.05504  0  0.113336  0.137036  0  1.018124  0
H  H29  1  0.29726315  0.10654176  0.95267369  1  0  0.127805  0  0.957003  0  0  0.139773  0  1.016132  0  0  0.143607  0  1.013526  0  0.055055  0  0.113329  0.137018  0  1.01812  0
H  H30  1  0.01863312  0.56471294  0.26124524  1  0  0.137248  0  0.919721  0  0  0.146722  0  0.977377  0  0  0.15154  0  0.973709  0  0.111539  0  0.116494  0.143288  0  0.98003  0
H  H31  1  0.98136795  0.06471379  0.73875380  1  0  0.137212  0  0.919735  0  0  0.146689  0  0.977396  0  0  0.151507  0  0.973726  0  0.111401  0  0.11648  0.143256  0  0.980047  0
H  H32  1  0.63417125  0.62390254  0.19541930  1  0  0.058509  0  0.920947  0  0  0.065007  0  0.985551  0  0  0.066946  0  0.98376  0  0.076174  0  0.109926  0.063505  0  0.987296  0
H  H33  1  0.36582897  0.12390339  0.80457962  1  0  0.058378  0  0.920945  0  0  0.064961  0  0.985537  0  0  0.066878  0  0.983734  0  0.076171  0  0.109899  0.063458  0  0.987284  0
H  H34  1  0.67962980  0.66309095  0.39434927  1  0  0.119422  0  0.949353  0  0  0.138891  0  1.011431  0  0  0.140175  0  1.012054  0  0.059405  0  0.094486  0.137962  0  1.010985  0
H  H35  1  0.32036957  0.16309019  0.60565032  1  0  0.119433  0  0.949343  0  0  0.138897  0  1.011422  0  0  0.140182  0  1.012047  0  0.059403  0  0.094478  0.137969  0  1.010977  0
H  H36  1  0.71545004  0.52481985  0.41819029  1  0  0.121062  0  0.924271  0  0  0.143157  0  0.978769  0  0  0.144996  0  0.978273  0  0.056177  0  0.098817  0.141747  0  0.979292  0
H  H37  1  0.28454933  0.02482230  0.58180691  1  0  0.121051  0  0.92431  0  0  0.143148  0  0.978791  0  0  0.144989  0  0.978295  0  0.056166  0  0.098803  0.141739  0  0.979315  0
H  H38  1  0.57368021  0.56300306  0.36411745  1  0  0.120633  0  0.943204  0  0  0.141031  0  1.003542  0  0  0.141804  0  1.005018  0  0.040517  0  0.10205  0.140263  0  1.003009  0
H  H39  1  0.42631917  0.06300551  0.63588055  1  0  0.120634  0  0.943253  0  0  0.141051  0  1.003547  0  0  0.141824  0  1.005025  0  0.040552  0  0.10206  0.140286  0  1.003011  0
H  H40  1  0.62835680  0.54877113  0.88060351  1  0  0.060618  0  0.911689  0  0  0.069073  0  0.973111  0  0  0.07121  0  0.97074  0  0.077878  0  0.115128  0.06758  0  0.974796  0
H  H41  1  0.37164426  0.04877198  0.11939633  1  0  0.060596  0  0.911714  0  0  0.069068  0  0.97313  0  0  0.071204  0  0.970758  0  0.077873  0  0.115137  0.06758  0  0.97482  0
H  H42  1  0.67227465  0.50365597  0.69358447  1  0  0.120601  0  0.954057  0  0  0.140499  0  1.014774  0  0  0.141839  0  1.015356  0  0.055722  0  0.096195  0.139418  0  1.014621  0
H  H43  1  0.32772388  0.00365681  0.30641420  1  0  0.120598  0  0.954076  0  0  0.140492  0  1.014802  0  0  0.141838  0  1.015377  0  0.055727  0  0.096202  0.139413  0  1.014646  0
H  H44  1  0.70095282  0.64242204  0.67441178  1  0  0.121762  0  0.921139  0  0  0.145871  0  0.972178  0  0  0.147466  0  0.971998  0  0.052614  0  0.101222  0.144641  0  0.972462  0
H  H45  1  0.29904655  0.14242208  0.32558622  1  0  0.121827  0  0.921168  0  0  0.145948  0  0.972188  0  0  0.147544  0  0.972009  0  0.052604  0  0.101235  0.144718  0  0.972473  0
H  H46  1  0.56197267  0.59983314  0.69052360  1  0  0.114513  0  0.954579  0  0  0.13139  0  1.022483  0  0  0.1329  0  1.022655  0  0.026646  0  0.099809  0.131064  0  1.020825  0
H  H47  1  0.43802755  0.09983318  0.30947691  1  0  0.11447  0  0.954502  0  0  0.131354  0  1.022417  0  0  0.132862  0  1.022592  0  0.026651  0  0.099791  0.131026  0  1.020762  0
H  H48  1  0.82406332  0.11672877  0.07638627  1  0  0.448456  0  0.85022  0  0  0.415047  0  0.918281  0  0  0.42614  0  0.902308  0  0.640768  0  0.300409  0.407216  0  0.92936  0
H  H49  1  0.17593689  0.61672873  0.92361344  1  0  0.448442  0  0.850252  0  0  0.415031  0  0.918313  0  0  0.426126  0  0.902338  0  0.64075  0  0.300395  0.407201  0  0.929392  0
H  H50  1  0.89603528  0.20204156  0.15541624  1  0  0.45366  0  0.793352  0  0  0.443593  0  0.827149  0  0  0.4507  0  0.817238  0  0.635825  0  0.346088  0.438167  0  0.834635  0
H  H51  1  0.10396494  0.70204072  0.84458427  1  0  0.45367  0  0.793342  0  0  0.443604  0  0.827135  0  0  0.45071  0  0.817224  0  0.635847  0  0.346098  0.438178  0  0.834621  0
H  H52  1  0.73732694  0.06228234  0.35215800  1  0  0.433002  0  0.856064  0  0  0.400078  0  0.921753  0  0  0.410473  0  0.906411  0  0.659113  0  0.308516  0.392565  0  0.93266  0
H  H53  1  0.26267244  0.56228230  0.64784239  1  0  0.433014  0  0.856048  0  0  0.400098  0  0.921724  0  0  0.410493  0  0.90638  0  0.659115  0  0.308519  0.392585  0  0.932629  0
H  H54  1  0.69682876  0.16523157  0.40837046  1  0  0.436258  0  0.830708  0  0  0.41366  0  0.887184  0  0  0.42296  0  0.873335  0  0.606485  0  0.320789  0.406966  0  0.896973  0
H  H55  1  0.30317061  0.66522992  0.59162993  1  0  0.436283  0  0.830686  0  0  0.413669  0  0.887181  0  0  0.422971  0  0.873331  0  0.606501  0  0.320783  0.406973  0  0.896974  0
C  C56  1  0.48829004  0.34086629  0.49060735  1  0  -0.030085  0  3.824141  0  0  -0.005874  0  4.056894  0  0  -0.00939  0  4.078478  0  -0.028656  0  -0.019534  -0.003609  0  4.042399  0
C  C57  1  0.51170934  0.84086786  0.50939303  1  0  -0.030093  0  3.824114  0  0  -0.005887  0  4.056864  0  0  -0.0094  0  4.078447  0  -0.028665  0  -0.019531  -0.003616  0  4.042372  0
C  C58  1  0.39137922  0.37769638  0.52867417  1  0  -0.208338  0  3.716469  0  0  -0.248791  0  3.974442  0  0  -0.252789  0  3.990151  0  -0.041917  0  -0.105004  -0.246083  0  3.963808  0
C  C59  1  0.60862100  0.87769634  0.47132713  1  0  -0.20834  0  3.716503  0  0  -0.248763  0  3.974436  0  0  -0.25276  0  3.990142  0  -0.041925  0  -0.105013  -0.24606  0  3.963803  0
C  C60  1  0.38930069  0.37462935  0.63930191  1  0  0.289237  0  3.830185  0  0  0.27987  0  4.099306  0  0  0.291866  0  4.114672  0  0.432484  0  0.080197  0.271562  0  4.089132  0
C  C61  1  0.61069783  0.87463011  0.36069994  1  0  0.289145  0  3.830319  0  0  0.279791  0  4.09943  0  0  0.291785  0  4.114799  0  0.432677  0  0.080187  0.271485  0  4.089255  0
C  C62  1  0.48332205  0.33902624  0.71141664  1  0  -0.317549  0  3.715928  0  0  -0.350144  0  3.975571  0  0  -0.358449  0  3.994121  0  0.016874  0  -0.118868  -0.344599  0  3.963302  0
C  C63  1  0.51667817  0.83902780  0.28858546  1  0  -0.317485  0  3.715969  0  0  -0.350122  0  3.975636  0  0  -0.358429  0  3.994187  0  0.016583  0  -0.118863  -0.344575  0  3.963366  0
C  C64  1  0.58129158  0.30764240  0.67112835  1  0  0.308212  0  3.845779  0  0  0.299255  0  4.112858  0  0  0.312363  0  4.126713  0  0.407948  0  0.08945  0.290201  0  4.1033  0
C  C65  1  0.41870779  0.80764236  0.32887204  1  0  0.308155  0  3.845828  0  0  0.299242  0  4.112926  0  0  0.312358  0  4.126773  0  0.40802  0  0.089436  0.290188  0  4.10337  0
C  C66  1  0.58292869  0.30585297  0.56052679  1  0  -0.204461  0  3.733627  0  0  -0.243572  0  3.98829  0  0  -0.247848  0  4.004639  0  0.042419  0  -0.105531  -0.24083  0  3.97785  0
C  C67  1  0.41707068  0.80585293  0.43947280  1  0  -0.20446  0  3.733641  0  0  -0.24355  0  3.988276  0  0  -0.247829  0  4.004623  0  0.042412  0  -0.105532  -0.240811  0  3.977838  0
C  C68  1  0.49202681  0.33914194  0.37292720  1  0  0.729538  0  3.855892  0  0  0.686341  0  4.140721  0  0  0.720743  0  4.131764  0  1.564556  0  0.24216  0.662874  0  4.145757  0
C  C69  1  0.50797256  0.83914271  0.62707319  1  0  0.729587  0  3.855917  0  0  0.68636  0  4.140793  0  0  0.72076  0  4.131835  0  1.564557  0  0.24218  0.66289  0  4.145833  0
C  C70  1  0.27757724  0.38193574  0.78189250  1  0  0.106833  0  3.600757  0  0  0.085827  0  3.851327  0  0  0.089146  0  3.858543  0  0.401852  0  0.009587  0.083503  0  3.846375  0
C  C71  1  0.72242213  0.88193570  0.21810868  1  0  0.106748  0  3.600891  0  0  0.085873  0  3.851265  0  0  0.089188  0  3.858483  0  0.401887  0  0.009609  0.08355  0  3.84631  0
C  C72  1  0.35645956  0.45139752  0.86241485  1  0  0.706375  0  3.840512  0  0  0.664184  0  4.133673  0  0  0.697458  0  4.125368  0  1.61316  0  0.237072  0.641142  0  4.139278  0
C  C73  1  0.64354235  0.95139588  0.13758432  1  0  0.706317  0  3.840712  0  0  0.664085  0  4.13388  0  0  0.697365  0  4.12557  0  1.613112  0  0.236991  0.641046  0  4.13948  0
C  C74  1  0.15366171  0.39619740  0.79262039  1  0  -0.329778  0  3.658144  0  0  -0.416206  0  3.902434  0  0  -0.418487  0  3.909703  0  -0.087855  0  -0.238503  -0.414391  0  3.89749  0
C  C75  1  0.84633935  0.89619735  0.20738184  1  0  -0.329897  0  3.65816  0  0  -0.416342  0  3.902425  0  0  -0.418625  0  3.909692  0  -0.088166  0  -0.238536  -0.414527  0  3.897483  0
C  C76  1  0.69120796  0.29969641  0.84663275  1  0  0.104461  0  3.627345  0  0  0.086783  0  3.873363  0  0  0.089487  0  3.881392  0  0.441886  0  0.0102  0.084696  0  3.868062  0
C  C77  1  0.30879141  0.79969717  0.15336764  1  0  0.10438  0  3.627409  0  0  0.086752  0  3.873414  0  0  0.089454  0  3.881446  0  0.441905  0  0.010215  0.084671  0  3.868117  0
C  C78  1  0.62905613  0.21516785  0.90445034  1  0  0.716991  0  3.822258  0  0  0.673062  0  4.115006  0  0  0.706873  0  4.106227  0  1.618394  0  0.240513  0.649614  0  4.120916  0
C  C79  1  0.37094325  0.71516941  0.09555004  1  0  0.716899  0  3.82225  0  0  0.672983  0  4.11498  0  0  0.706789  0  4.106211  0  1.61849  0  0.240424  0.649515  0  4.120914  0
C  C80  1  0.81711829  0.30375418  0.88981155  1  0  -0.326752  0  3.668424  0  0  -0.412842  0  3.910069  0  0  -0.41482  0  3.918415  0  -0.075788  0  -0.242708  -0.411193  0  3.904388  0
C  C81  1  0.18288108  0.80375574  0.11018804  1  0  -0.326753  0  3.668408  0  0  -0.412806  0  3.910013  0  0  -0.414783  0  3.918361  0  -0.075774  0  -0.242702  -0.411157  0  3.904332  0
C  C82  1  0.02586989  0.54987517  0.09060089  1  0  -0.021187  0  3.822491  0  0  0.005803  0  4.054329  0  0  0.002844  0  4.075041  0  -0.028103  0  -0.017512  0.007955  0  4.039903  0
C  C83  1  0.97413033  0.04987521  0.90939882  1  0  -0.021233  0  3.822544  0  0  0.005769  0  4.054394  0  0  0.002801  0  4.075128  0  -0.028298  0  -0.017516  0.007921  0  4.039966  0
C  C84  1  0.96558878  0.55162925  0.98617220  1  0  -0.216665  0  3.726859  0  0  -0.256172  0  3.98395  0  0  -0.260471  0  4.000633  0  0.000992  0  -0.110482  -0.253214  0  3.97283  0
C  C85  1  0.03440975  0.05162929  0.01382567  1  0  -0.216585  0  3.726975  0  0  -0.256094  0  3.984089  0  0  -0.260417  0  4.000754  0  0.001055  0  -0.11045  -0.253138  0  3.97297  0
C  C86  1  0.84956622  0.57220254  0.97063562  1  0  0.312047  0  3.821968  0  0  0.303011  0  4.08965  0  0  0.315616  0  4.104414  0  0.428463  0  0.086822  0.294287  0  4.079572  0
C  C87  1  0.15043316  0.07220098  0.02936397  1  0  0.312142  0  3.821801  0  0  0.303005  0  4.089623  0  0  0.315609  0  4.104395  0  0.428466  0  0.086846  0.294281  0  4.079544  0
C  C88  1  0.79322545  0.59072767  0.05892657  1  0  -0.313068  0  3.694178  0  0  -0.344635  0  3.948473  0  0  -0.352564  0  3.965938  0  0.025161  0  -0.117025  -0.339327  0  3.936958  0
C  C89  1  0.20677477  0.09072851  0.94107315  1  0  -0.313029  0  3.694076  0  0  -0.344569  0  3.948392  0  0  -0.3525  0  3.965858  0  0.02515  0  -0.117012  -0.339261  0  3.936876  0
C  C90  1  0.85574935  0.58859111  0.16328822  1  0  0.303016  0  3.816422  0  0  0.295743  0  4.084363  0  0  0.307347  0  4.100179  0  0.400893  0  0.085263  0.287604  0  4.074015  0
C  C91  1  0.14425087  0.08859276  0.83670990  1  0  0.302931  0  3.816453  0  0  0.295661  0  4.084397  0  0  0.307268  0  4.100216  0  0.400827  0  0.085237  0.287523  0  4.074048  0
C  C92  1  0.97174485  0.56862367  0.17992425  1  0  -0.188079  0  3.68954  0  0  -0.229277  0  3.94625  0  0  -0.232846  0  3.961725  0  0.058685  0  -0.099118  -0.226856  0  3.935817  0
C  C93  1  0.02825452  0.06862210  0.82007375  1  0  -0.187948  0  3.68946  0  0  -0.229163  0  3.946188  0  0  -0.232732  0  3.961658  0  0.059  0  -0.099071  -0.226741  0  3.935753  0
C  C94  1  0.14893726  0.52515411  0.10657879  1  0  0.64273  0  3.915861  0  0  0.597736  0  4.203587  0  0  0.630034  0  4.201363  0  1.526425  0  0.197718  0.575215  0  4.208439  0
C  C95  1  0.85106126  0.02515496  0.89342068  1  0  0.642774  0  3.915797  0  0  0.597771  0  4.203536  0  0  0.630069  0  4.201313  0  1.526433  0  0.197756  0.575249  0  4.208392  0
C  C96  1  0.69194195  0.57235039  0.25026716  1  0  0.11243  0  3.618979  0  0  0.094214  0  3.874621  0  0  0.096973  0  3.881753  0  0.43994  0  0.008745  0.09168  0  3.870546  0
C  C97  1  0.30805742  0.07234963  0.74973163  1  0  0.112788  0  3.618618  0  0  0.094336  0  3.87456  0  0  0.097203  0  3.881539  0  0.439884  0  0.008787  0.091801  0  3.870484  0
C  C98  1  0.67574843  0.45650228  0.20998068  1  0  0.661434  0  3.858819  0  0  0.611595  0  4.171682  0  0  0.644231  0  4.164496  0  1.537327  0  0.208179  0.590611  0  4.170325  0
C  C99  1  0.32425263  0.95650224  0.79001836  1  0  0.661295  0  3.85875  0  0  0.611502  0  4.171633  0  0  0.644111  0  4.164441  0  1.537352  0  0.208154  0.590518  0  4.170273  0
C  C100  1  0.66345066  0.58093358  0.36420113  1  0  -0.324134  0  3.656973  0  0  -0.407609  0  3.897324  0  0  -0.410145  0  3.906262  0  -0.051367  0  -0.235162  -0.40567  0  3.891499  0
C  C101  1  0.33654872  0.08093362  0.63579767  1  0  -0.324222  0  3.656953  0  0  -0.407648  0  3.897349  0  0  -0.410213  0  3.906255  0  -0.051416  0  -0.235162  -0.405712  0  3.891521  0
C  C102  1  0.68291755  0.59982028  0.83813538  1  0  0.113617  0  3.63204  0  0  0.092361  0  3.887486  0  0  0.095756  0  3.894132  0  0.440567  0  0.011376  0.090054  0  3.882655  0
C  C103  1  0.31708267  0.09981952  0.16186513  1  0  0.113723  0  3.631988  0  0  0.092409  0  3.887491  0  0  0.095812  0  3.894124  0  0.440602  0  0.01137  0.090072  0  3.882706  0
C  C104  1  0.66325109  0.71667199  0.86689019  1  0  0.653035  0  3.872057  0  0  0.610369  0  4.168204  0  0  0.641765  0  4.165877  0  1.53908  0  0.208456  0.58813  0  4.171989  0
C  C105  1  0.33674913  0.21667203  0.13311111  1  0  0.653054  0  3.871938  0  0  0.61043  0  4.168042  0  0  0.64183  0  4.165699  0  1.539148  0  0.208495  0.588197  0  4.171826  0
C  C106  1  0.65245006  0.58567675  0.71630592  1  0  -0.323473  0  3.653297  0  0  -0.407649  0  3.896576  0  0  -0.409865  0  3.904812  0  -0.021884  0  -0.234521  -0.405669  0  3.890336  0
C  C107  1  0.34754932  0.08567759  0.28369367  1  0  -0.323499  0  3.653271  0  0  -0.407683  0  3.896577  0  0  -0.409909  0  3.904811  0  -0.021885  0  -0.234517  -0.405696  0  3.890348  0
O  O108  1  0.56834776  0.28083943  0.34110823  1  0  -0.781753  0  2.084961  0  0  -0.733082  0  2.332671  0  0  -0.759301  0  2.322003  0  -1.211924  0  -0.410491  -0.707114  0  2.341239  0
O  O109  1  0.43165330  0.78083858  0.65889081  1  0  -0.781781  0  2.084984  0  0  -0.73309  0  2.332703  0  0  -0.759316  0  2.322049  0  -1.21188  0  -0.410494  -0.707119  0  2.341273  0
O  O110  1  0.42000243  0.39536897  0.31229378  1  0  -0.73024  0  2.026338  0  0  -0.679613  0  2.273139  0  0  -0.712246  0  2.258259  0  -1.205251  0  -0.404166  -0.662524  0  2.280661  0
O  O111  1  0.57999695  0.89536973  0.68770501  1  0  -0.730257  0  2.026338  0  0  -0.679627  0  2.273172  0  0  -0.712266  0  2.258299  0  -1.205261  0  -0.404183  -0.662548  0  2.280704  0
O  O112  1  0.28988178  0.40779619  0.67226594  1  0  -0.315148  0  2.305099  0  0  -0.239196  0  2.521379  0  0  -0.257125  0  2.521849  0  -1.054753  0  -0.17134  -0.226713  0  2.521099  0
O  O113  1  0.71011759  0.90779615  0.32773444  1  0  -0.315028  0  2.305128  0  0  -0.239101  0  2.521361  0  0  -0.25703  0  2.521834  0  -1.054754  0  -0.171304  -0.226618  0  2.521079  0
O  O114  1  0.38618460  0.54327667  0.83382089  1  0  -0.75852  0  2.057994  0  0  -0.721799  0  2.324264  0  0  -0.745246  0  2.3098  0  -1.223379  0  -0.415563  -0.696464  0  2.336449  0
O  O115  1  0.61381561  0.04327832  0.16618042  1  0  -0.75855  0  2.057909  0  0  -0.721842  0  2.32422  0  0  -0.745292  0  2.30976  0  -1.223356  0  -0.415561  -0.696509  0  2.3364  0
O  O116  1  0.38862928  0.40953982  0.95378214  1  0  -0.71696  0  2.032223  0  0  -0.672525  0  2.292836  0  0  -0.704654  0  2.277217  0  -1.201863  0  -0.408616  -0.656281  0  2.302265  0
O  O117  1  0.61137179  0.90953978  0.04621929  1  0  -0.716869  0  2.032412  0  0  -0.672421  0  2.293035  0  0  -0.704557  0  2.277413  0  -1.201849  0  -0.408565  -0.656186  0  2.302459  0
O  O118  1  0.68073840  0.28077434  0.73345999  1  0  -0.280834  0  2.313473  0  0  -0.2161  0  2.5377  0  0  -0.232774  0  2.538232  0  -1.088814  0  -0.169366  -0.204108  0  2.536718  0
O  O119  1  0.31926097  0.78077752  0.26654040  1  0  -0.280753  0  2.313511  0  0  -0.216148  0  2.537828  0  0  -0.232823  0  2.538358  0  -1.088817  0  -0.169381  -0.204155  0  2.536846  0
O  O120  1  0.62169843  0.23788091  0.00121943  1  0  -0.747775  0  2.084892  0  0  -0.710601  0  2.353665  0  0  -0.734415  0  2.338807  0  -1.220856  0  -0.423184  -0.684492  0  2.365931  0
O  O121  1  0.37830094  0.73788006  0.99878255  1  0  -0.74771  0  2.084919  0  0  -0.710542  0  2.35369  0  0  -0.734352  0  2.338829  0  -1.220923  0  -0.423135  -0.684428  0  2.365972  0
O  O122  1  0.58905348  0.13135040  0.85543901  1  0  -0.73869  0  2.017326  0  0  -0.694109  0  2.278956  0  0  -0.726937  0  2.262227  0  -1.212008  0  -0.404631  -0.67767  0  2.288999  0
O  O123  1  0.41094505  0.63135036  0.14456365  1  0  -0.73868  0  2.017274  0  0  -0.694089  0  2.278868  0  0  -0.726915  0  2.262148  0  -1.211986  0  -0.404603  -0.677636  0  2.288921  0
O  O124  1  0.20095018  0.49936357  0.19872162  1  0  -0.659643  0  1.921595  0  0  -0.617051  0  2.144925  0  0  -0.644759  0  2.133044  0  -1.161357  0  -0.372485  -0.602087  0  2.15217  0
O  O125  1  0.79904920  0.99936273  0.80127797  1  0  -0.659714  0  1.921543  0  0  -0.617112  0  2.144877  0  0  -0.644822  0  2.132995  0  -1.161381  0  -0.372534  -0.602152  0  2.152121  0
O  O126  1  0.20247820  0.52943767  0.02420271  1  0  -0.740461  0  2.035454  0  0  -0.678259  0  2.270166  0  0  -0.710957  0  2.262993  0  -1.203137  0  -0.372351  -0.659486  0  2.274882  0
O  O127  1  0.79752371  0.02943851  0.97579804  1  0  -0.740422  0  2.035442  0  0  -0.67823  0  2.270182  0  0  -0.710927  0  2.263004  0  -1.203129  0  -0.372354  -0.659461  0  2.274896  0
O  O128  1  0.79875070  0.56944165  0.86518980  1  0  -0.294304  0  2.315421  0  0  -0.227634  0  2.54332  0  0  -0.244489  0  2.544178  0  -1.073507  0  -0.174584  -0.215611  0  2.542216  0
O  O129  1  0.20124868  0.06943928  0.13481138  1  0  -0.294459  0  2.315393  0  0  -0.227734  0  2.543324  0  0  -0.244599  0  2.544191  0  -1.073546  0  -0.174625  -0.215703  0  2.542229  0
O  O130  1  0.74379504  0.78267704  0.88283432  1  0  -0.64319  0  1.944183  0  0  -0.603105  0  2.168428  0  0  -0.631981  0  2.159677  0  -1.155732  0  -0.362025  -0.587507  0  2.173961  0
O  O131  1  0.25620602  0.28267708  0.11716472  1  0  -0.643177  0  1.944192  0  0  -0.603113  0  2.168428  0  0  -0.631987  0  2.159672  0  -1.155768  0  -0.362018  -0.587511  0  2.173959  0
O  O132  1  0.56019603  0.74531020  0.86834580  1  0  -0.821963  0  2.15085  0  0  -0.776193  0  2.416985  0  0  -0.805774  0  2.405365  0  -1.214725  0  -0.438035  -0.750601  0  2.425608  0
O  O133  1  0.43980503  0.24531185  0.13165563  1  0  -0.821995  0  2.150774  0  0  -0.776226  0  2.416867  0  0  -0.805814  0  2.405262  0  -1.21472  0  -0.438084  -0.75063  0  2.425486  0
O  O134  1  0.80732354  0.60559035  0.25456983  1  0  -0.299087  0  2.261311  0  0  -0.235632  0  2.486838  0  0  -0.251371  0  2.486953  0  -1.059212  0  -0.180011  -0.224501  0  2.486813  0
O  O135  1  0.19267584  0.10559120  0.74542817  1  0  -0.299178  0  2.261271  0  0  -0.235671  0  2.486866  0  0  -0.251438  0  2.486954  0  -1.059105  0  -0.180019  -0.224541  0  2.486843  0
O  O136  1  0.75414537  0.38812284  0.23172337  1  0  -0.667764  0  1.918954  0  0  -0.630398  0  2.143508  0  0  -0.65258  0  2.133543  0  -1.162904  0  -0.373354  -0.608028  0  2.150228  0
O  O137  1  0.24585485  0.88812279  0.76827555  1  0  -0.667733  0  1.918937  0  0  -0.630362  0  2.143469  0  0  -0.652545  0  2.133513  0  -1.162887  0  -0.373341  -0.607989  0  2.150186  0
O  O138  1  0.57874967  0.43019266  0.15751279  1  0  -0.821662  0  2.113848  0  0  -0.774571  0  2.385237  0  0  -0.806658  0  2.370305  0  -1.21773  0  -0.425758  -0.752542  0  2.392458  0
O  O139  1  0.42125140  0.93019182  0.84248784  1  0  -0.821629  0  2.113804  0  0  -0.774532  0  2.385177  0  0  -0.806624  0  2.370257  0  -1.217749  0  -0.425744  -0.752506  0  2.392395  0
O  O140  1  0.82351283  0.16575948  0.14035282  1  0  -0.920143  0  1.83218  0  0  -0.88231  0  2.010892  0  0  -0.900214  0  1.980682  0  -1.263123  0  -0.62657  -0.862125  0  2.036024  0
O  O141  1  0.17648654  0.66575783  0.85964597  1  0  -0.920125  0  1.832196  0  0  -0.882298  0  2.010924  0  0  -0.900196  0  1.980696  0  -1.26314  0  -0.626565  -0.862113  0  2.036056  0
O  O142  1  0.74216724  0.14133171  0.35447134  1  0  -0.871192  0  1.808251  0  0  -0.832935  0  1.965908  0  0  -0.848201  0  1.934493  0  -1.243904  0  -0.618342  -0.815556  0  1.991939  0
O  O143  1  0.25783298  0.64133247  0.64553076  1  0  -0.871211  0  1.808237  0  0  -0.832952  0  1.96587  0  0  -0.848222  0  1.934452  0  -1.243927  0  -0.618331  -0.81557  0  1.991902  0
