# generated using pymatgen
data_CoH27C20(NO)4
_symmetry_space_group_name_H-M   'P 1'
_cell_length_a   7.28545875
_cell_length_b   8.63315100
_cell_length_c   18.29245031
_cell_angle_alpha   91.86345176
_cell_angle_beta   89.99980538
_cell_angle_gamma   89.99943851
_symmetry_Int_Tables_number   1
_chemical_formula_structural   CoH27C20(NO)4
_chemical_formula_sum   'Co2 H54 C40 N8 O8'
_cell_volume   1149.92202458
_cell_formula_units_Z   2
loop_
 _symmetry_equiv_pos_site_id
 _symmetry_equiv_pos_as_xyz
  1  'x, y, z'
loop_
 _atom_site_type_symbol
 _atom_site_label
 _atom_site_symmetry_multiplicity
 _atom_site_fract_x
 _atom_site_fract_y
 _atom_site_fract_z
 _atom_site_occupancy
 _atom_site_pbe_cm5_charge
 _atom_site_pbe_ddec_charge
 _atom_site_pbe_ddec_spin_density
 _atom_site_pbe_ddec_sum_bond_order
 _atom_site_pbe_magmom
Co  Co0  1  0.64382219  0.00000084  0.00000118  1  0.654366  0.794474  -2.777877  2.5717  -2.49
Co  Co1  1  0.62484807  0.00000070  0.49999814  1  0.655487  0.796205  -2.797518  2.550212  -2.508
H  H2  1  0.58834588  0.29886985  0.91405579  1  0.137641  0.116844  0.00013  1.026031  -0.001
H  H3  1  0.58836482  0.70110660  0.08594816  1  0.137636  0.116859  0.000129  1.025937  -0.001
H  H4  1  0.08268312  0.12444981  0.99939746  1  0.123068  0.121983  -0.000116  1.004717  -0.001
H  H5  1  0.08265544  0.87556287  0.00059224  1  0.123113  0.12197  -0.000115  1.004702  -0.001
H  H6  1  0.28088020  0.79484185  0.83075278  1  0.090886  0.074158  -0.000815  0.995202  0.0
H  H7  1  0.28088227  0.20515680  0.16924962  1  0.09091  0.074171  -0.000816  0.995272  0.0
H  H8  1  0.15703125  0.40058180  0.93410470  1  0.129206  0.132226  0.001387  0.991137  0.0
H  H9  1  0.15705978  0.59942057  0.06587003  1  0.129235  0.13238  0.001385  0.991069  0.0
H  H10  1  0.01551262  0.92345283  0.79960780  1  0.081153  0.076423  0.001454  1.004498  0.0
H  H11  1  0.01552142  0.07655737  0.20039727  1  0.081141  0.076404  0.001456  1.004497  0.0
H  H12  1  0.10738108  0.10044203  0.83448313  1  0.082208  0.082276  0.000148  1.044023  0.0
H  H13  1  0.10737646  0.89956256  0.16551466  1  0.082217  0.082273  0.000147  1.04391  0.0
H  H14  1  0.88731756  0.63599292  0.90773276  1  0.111669  0.100324  -0.000691  1.00123  0.001
H  H15  1  0.88738705  0.36400072  0.09227036  1  0.111629  0.10042  -0.000687  1.001218  0.001
H  H16  1  0.68794986  0.55167084  0.86774770  1  0.119544  0.107899  0.017224  0.967481  0.013
H  H17  1  0.68800842  0.44831627  0.13225292  1  0.1195  0.107815  0.017216  0.967352  0.013
H  H18  1  0.67259548  0.04559839  0.70705582  1  0.085581  0.115906  0.00022  1.031114  0.0
H  H19  1  0.67260015  0.95440164  0.29294658  1  0.085592  0.115855  0.000221  1.031051  0.0
H  H20  1  0.67043190  0.04038161  0.80378461  1  0.086586  0.121716  5.5e-05  1.02617  0.0
H  H21  1  0.67044554  0.95961847  0.19621888  1  0.086575  0.121636  5.5e-05  1.026213  0.0
H  H22  1  0.51534985  0.16376273  0.75831082  1  0.083778  0.116898  0.000219  1.025552  0.0
H  H23  1  0.51536730  0.83623509  0.24169014  1  0.083752  0.116794  0.000219  1.025503  0.0
H  H24  1  0.63321157  0.75931578  0.69349510  1  0.085019  0.122759  0.000456  1.020929  0.0
H  H25  1  0.63320522  0.24068566  0.30650463  1  0.085007  0.122749  0.000456  1.020985  0.0
H  H26  1  0.46819691  0.66154470  0.74727446  1  0.078621  0.104726  7e-05  1.024467  0.0
H  H27  1  0.46818026  0.33845120  0.25272656  1  0.078623  0.104721  7e-05  1.024447  0.0
H  H28  1  0.65273771  0.76197467  0.79091883  1  0.081627  0.115703  0.006765  1.040712  0.001
H  H29  1  0.65272809  0.23802777  0.20908089  1  0.081621  0.115669  0.006759  1.040765  0.001
H  H30  1  0.22515000  0.16956141  0.71722418  1  0.085282  0.083546  0.000295  1.015935  0.0
H  H31  1  0.22517130  0.83043752  0.28277175  1  0.085341  0.083597  0.000295  1.016124  0.0
H  H32  1  0.03952488  0.05507186  0.68515486  1  0.085538  0.085346  0.000583  1.002822  0.0
H  H33  1  0.03953634  0.94491249  0.31484448  1  0.085539  0.085373  0.000583  1.002803  0.0
H  H34  1  0.05918237  0.59284187  0.79519601  1  0.091342  0.066573  0.013814  1.058165  -0.006
H  H35  1  0.05927101  0.40721866  0.20479907  1  0.09137  0.06676  0.01379  1.058177  -0.006
H  H36  1  0.09486801  0.80185778  0.62787450  1  0.085017  0.111297  -4.2e-05  1.036377  0.0
H  H37  1  0.09487533  0.19812645  0.37213678  1  0.084919  0.111248  -4.2e-05  1.036408  0.0
H  H38  1  0.15234281  0.73197831  0.71447993  1  0.080809  0.098658  0.000822  1.069175  0.0
H  H39  1  0.15230475  0.26801000  0.28552858  1  0.080825  0.098737  0.000827  1.069169  0.0
H  H40  1  0.30429668  0.70029805  0.63868907  1  0.089246  0.127653  -0.000257  1.010942  0.0
H  H41  1  0.30428507  0.29969800  0.36130999  1  0.089245  0.127622  -0.000257  1.010968  0.0
H  H42  1  0.92911300  0.30177408  0.75079269  1  0.106872  0.119016  0.041148  0.974166  0.035
H  H43  1  0.92913199  0.69824237  0.24921003  1  0.106821  0.119018  0.041147  0.974064  0.035
H  H44  1  0.72153869  0.40378931  0.74329374  1  0.100145  0.10214  0.010348  0.978493  0.009
H  H45  1  0.72156704  0.59621586  0.25669989  1  0.100225  0.102213  0.010338  0.97854  0.009
H  H46  1  0.85958016  0.57607852  0.65147575  1  0.11319  0.09544  0.001177  0.970956  0.0
H  H47  1  0.85959466  0.42392900  0.34851879  1  0.11315  0.095315  0.001177  0.970857  0.0
H  H48  1  0.08080870  0.50109595  0.66869157  1  0.117183  0.096897  -0.000744  0.989432  0.0
H  H49  1  0.08082796  0.49890546  0.33130841  1  0.117177  0.096869  -0.000746  0.989545  0.0
H  H50  1  0.63279604  0.27600823  0.62196062  1  0.13556  0.114229  4.9e-05  1.034868  0.0
H  H51  1  0.63281091  0.72399421  0.37803311  1  0.135564  0.114267  4.9e-05  1.034882  0.0
H  H52  1  0.18958696  0.35181772  0.56350511  1  0.13158  0.141744  -0.000383  0.98926  0.0
H  H53  1  0.18959263  0.64818073  0.43650453  1  0.131534  0.141659  -0.000383  0.989297  0.0
H  H54  1  0.04290610  0.11783639  0.47543372  1  0.11989  0.114559  -0.000218  1.025591  -0.001
H  H55  1  0.04287673  0.88213685  0.52458356  1  0.119899  0.114441  -0.000219  1.02577  -0.001
C  C56  1  0.40501380  0.98467184  0.88693851  1  0.198211  0.589385  -0.002702  4.162939  -0.001
C  C57  1  0.40502953  0.01532695  0.11306426  1  0.198137  0.589127  -0.002705  4.163415  -0.001
C  C58  1  0.73157637  0.29043019  0.92973107  1  0.14099  0.085847  -0.00121  3.901964  -0.002
C  C59  1  0.73159261  0.70955888  0.07026950  1  0.141142  0.08585  -0.001211  3.901929  -0.002
C  C60  1  0.98881102  0.20231083  0.97311391  1  0.003005  -0.025539  -0.002599  3.999822  -0.003
C  C61  1  0.98881698  0.79769665  0.02687607  1  0.002888  -0.02555  -0.002599  3.999733  -0.003
C  C62  1  0.31101903  0.91644493  0.81893380  1  -0.088178  -0.159593  -0.002336  3.7667  -0.003
C  C63  1  0.31102379  0.08355573  0.18106639  1  -0.088161  -0.159519  -0.002335  3.766749  -0.003
C  C64  1  0.02843020  0.34049185  0.94147690  1  0.003844  -0.105732  0.005625  3.935762  0.001
C  C65  1  0.02844162  0.65950951  0.05850621  1  0.004003  -0.105752  0.005627  3.936383  0.001
C  C66  1  0.44448517  0.91531229  0.75083574  1  -0.000739  0.205643  0.000446  3.656718  0.0
C  C67  1  0.44448798  0.08468147  0.24916475  1  -0.00081  0.205498  0.000445  3.65669  0.0
C  C68  1  0.13410628  0.00180459  0.79667958  1  -0.174061  -0.161827  -0.000106  3.908853  -0.001
C  C69  1  0.13411255  0.99819873  0.20332198  1  -0.174131  -0.161839  -0.000105  3.908887  -0.001
C  C70  1  0.83743123  0.53775053  0.87367570  1  -0.054924  -0.102504  0.018544  3.953757  -0.022
C  C71  1  0.83748694  0.46224686  0.12632261  1  -0.054906  -0.10253  0.018543  3.953576  -0.022
C  C72  1  0.30559359  0.93643130  0.68546145  1  -0.015282  0.021354  -0.001513  3.736281  -0.002
C  C73  1  0.30559198  0.06356362  0.31453924  1  -0.015202  0.02158  -0.001513  3.736084  -0.002
C  C74  1  0.58262014  0.05004378  0.75532627  1  -0.250631  -0.430373  0.000354  3.911024  0.0
C  C75  1  0.58262800  0.94995704  0.24467736  1  -0.250581  -0.430027  0.000354  3.910851  0.0
C  C76  1  0.55567880  0.76505258  0.74506301  1  -0.248855  -0.415704  0.007842  3.921125  0.003
C  C77  1  0.55567157  0.23494724  0.25493846  1  -0.248818  -0.41563  0.00783  3.921198  0.003
C  C78  1  0.16585723  0.05265436  0.71802704  1  -0.170955  -0.190949  0.000621  3.915868  -0.001
C  C79  1  0.16586618  0.94733471  0.28197161  1  -0.171014  -0.191099  0.000621  3.916128  -0.001
C  C80  1  0.93103036  0.52930712  0.80139098  1  -0.06817  -0.04156  0.809026  3.503007  0.445
C  C81  1  0.93109223  0.47071840  0.19860526  1  -0.068081  -0.0416  0.809041  3.503293  0.445
C  C82  1  0.40349126  0.99815644  0.61817997  1  0.202109  0.560997  -0.002509  4.133991  -0.001
C  C83  1  0.40349804  0.00184575  0.38181955  1  0.202143  0.560848  -0.002509  4.134045  -0.001
C  C84  1  0.20970081  0.78311291  0.66535733  1  -0.247  -0.39977  0.000157  3.943968  0.0
C  C85  1  0.20968764  0.21687945  0.33464730  1  -0.246959  -0.399881  0.00016  3.943899  0.0
C  C86  1  0.87189153  0.41869579  0.74195268  1  -0.159108  -0.198856  0.014544  3.997344  -0.019
C  C87  1  0.87192279  0.58131860  0.25804245  1  -0.159211  -0.199166  0.014563  3.997512  -0.019
C  C88  1  0.93465903  0.47142747  0.66671062  1  -0.044321  -0.05455  0.011913  3.877122  0.008
C  C89  1  0.93468479  0.52857724  0.33328816  1  -0.044224  -0.05422  0.011926  3.877  0.008
C  C90  1  0.76367747  0.26537519  0.59408222  1  0.137392  0.085202  -0.001257  3.898908  -0.002
C  C91  1  0.76368376  0.73462513  0.40591622  1  0.137475  0.085243  -0.001256  3.89905  -0.002
C  C92  1  0.05193085  0.30518146  0.56081285  1  0.007795  -0.08763  -0.00155  3.922469  -0.002
C  C93  1  0.05193595  0.69481232  0.43919585  1  0.007871  -0.087458  -0.001549  3.922361  -0.002
C  C94  1  0.97768810  0.18798593  0.51801292  1  -0.006674  -0.044495  -0.001408  4.016007  -0.002
C  C95  1  0.97767363  0.81199436  0.48199542  1  -0.006717  -0.044473  -0.001407  4.01622  -0.002
N  N96  1  0.80313590  0.17182206  0.96530151  1  -0.365764  -0.310307  -0.028936  3.656104  -0.034
N  N97  1  0.80312908  0.82817333  0.03469792  1  -0.365797  -0.310296  -0.028935  3.656048  -0.034
N  N98  1  0.86386811  0.39503203  0.91487449  1  -0.241142  0.043824  0.039553  3.766975  0.034
N  N99  1  0.86390191  0.60496489  0.08511503  1  -0.241339  0.043709  0.039567  3.76733  0.034
N  N100  1  0.91526516  0.35230066  0.60886342  1  -0.24448  0.036094  -0.002168  3.785787  -0.003
N  N101  1  0.91527670  0.64770190  0.39113592  1  -0.244592  0.035933  -0.002167  3.785813  -0.003
N  N102  1  0.79799460  0.16341433  0.53930243  1  -0.363625  -0.30546  -0.033912  3.657186  -0.042
N  N103  1  0.79798551  0.83657316  0.46070295  1  -0.363634  -0.305433  -0.033912  3.657355  -0.042
O  O104  1  0.51896585  0.89198886  0.91865362  1  -0.346031  -0.574424  -0.054067  2.31938  -0.08
O  O105  1  0.51893821  0.10802953  0.08133823  1  -0.345922  -0.574247  -0.054067  2.319335  -0.08
O  O106  1  0.37781523  0.12159404  0.90908841  1  -0.321573  -0.563877  -0.013073  2.151769  -0.021
O  O107  1  0.37788011  0.87838915  0.09092792  1  -0.321536  -0.5638  -0.013076  2.152146  -0.021
O  O108  1  0.39446052  0.13832960  0.60283929  1  -0.318565  -0.565377  -0.013431  2.185069  -0.022
O  O109  1  0.39446814  0.86167390  0.39716299  1  -0.31866  -0.56539  -0.013435  2.185093  -0.022
O  O110  1  0.49772904  0.89732332  0.57943805  1  -0.336465  -0.552135  -0.051254  2.311713  -0.076
O  O111  1  0.49773982  0.10267913  0.42055752  1  -0.336415  -0.552017  -0.051253  2.311705  -0.076
