# generated using pymatgen
data_MnH16C12(O2F)4
_symmetry_space_group_name_H-M   'P 1'
_cell_length_a   8.41096494
_cell_length_b   8.41093856
_cell_length_c   13.48181418
_cell_angle_alpha   93.23717469
_cell_angle_beta   93.23684243
_cell_angle_gamma   115.32538589
_symmetry_Int_Tables_number   1
_chemical_formula_structural   MnH16C12(O2F)4
_chemical_formula_sum   'Mn2 H32 C24 O16 F8'
_cell_volume   857.27919000
_cell_formula_units_Z   2
loop_
 _symmetry_equiv_pos_site_id
 _symmetry_equiv_pos_as_xyz
  1  'x, y, z'
loop_
 _atom_site_type_symbol
 _atom_site_label
 _atom_site_symmetry_multiplicity
 _atom_site_fract_x
 _atom_site_fract_y
 _atom_site_fract_z
 _atom_site_occupancy
 _atom_site_hle17_ddec_charge
 _atom_site_hle17_ddec_spin_density
 _atom_site_hle17_ddec_sum_bond_order
 _atom_site_hle17_magmom
 _atom_site_hse06_10hf_ddec_charge
 _atom_site_hse06_10hf_ddec_spin_density
 _atom_site_hse06_10hf_ddec_sum_bond_order
 _atom_site_hse06_10hf_magmom
 _atom_site_hse06_ddec_charge
 _atom_site_hse06_ddec_spin_density
 _atom_site_hse06_ddec_sum_bond_order
 _atom_site_hse06_magmom
 _atom_site_pbe_cm5_charge
 _atom_site_pbe_ddec_charge
 _atom_site_pbe_ddec_spin_density
 _atom_site_pbe_ddec_sum_bond_order
 _atom_site_pbe_magmom
Mn  Mn0  1  0.02674376  0.97325548  0.74999992  1  1.208997  -4.800318  1.739564  -4.694  1.051642  -4.726717  2.225716  -4.558  1.109099  -4.765446  2.154212  -4.615  0.602067  1.007516  -4.686059  2.277827  -4.502
Mn  Mn1  1  0.97325512  0.02674224  0.24999957  1  1.208901  -4.800289  1.739784  -4.694  1.051513  -4.726677  2.22601  -4.558  1.108967  -4.765416  2.154505  -4.615  0.602008  1.007398  -4.685997  2.278122  -4.501
H  H2  1  0.79937589  0.84791670  0.59197481  1  0.37093  -9.2e-05  0.909832  0.0  0.345624  -0.00081  0.978861  -0.001  0.356793  -0.000531  0.967004  -0.001  0.298392  0.337716  -0.001063  0.987171  -0.001
H  H3  1  0.15208258  0.20062004  0.90802555  1  0.370944  -9.2e-05  0.909802  0.0  0.345608  -0.00081  0.978881  -0.001  0.356778  -0.000532  0.96702  -0.001  0.298375  0.337694  -0.001064  0.987198  -0.001
H  H4  1  0.20061440  0.15206909  0.40802473  1  0.370873  -9.2e-05  0.910063  0.0  0.345612  -0.000809  0.978979  -0.001  0.356776  -0.000531  0.967135  -0.001  0.298392  0.33771  -0.001063  0.98728  -0.001
H  H5  1  0.84793050  0.79938313  0.09197385  1  0.37086  -9.2e-05  0.910016  0.0  0.3456  -0.000809  0.978942  -0.001  0.356764  -0.000531  0.967093  -0.001  0.298365  0.337696  -0.001063  0.987247  -0.001
H  H6  1  0.02314253  0.77274635  0.90958027  1  0.381476  -0.000152  0.911504  -0.001  0.353681  -0.000763  0.984619  -0.002  0.364539  -0.000495  0.973092  -0.001  0.29778  0.346086  -0.001013  0.992478  -0.002
H  H7  1  0.22725553  0.97686090  0.59042019  1  0.381469  -0.000152  0.911522  -0.001  0.353657  -0.000762  0.984658  -0.002  0.364518  -0.000494  0.97313  -0.001  0.297795  0.346065  -0.001013  0.992515  -0.002
H  H8  1  0.97686318  0.22724493  0.09042220  1  0.381445  -0.000152  0.911634  -0.001  0.353676  -0.000762  0.984702  -0.002  0.364534  -0.000495  0.973176  -0.001  0.297803  0.346081  -0.001013  0.992562  -0.002
H  H9  1  0.77275522  0.02313960  0.40957757  1  0.381481  -0.000152  0.911572  -0.001  0.35371  -0.000762  0.984636  -0.002  0.364569  -0.000495  0.97311  -0.001  0.297812  0.346113  -0.001013  0.992504  -0.002
H  H10  1  0.68754607  0.60801595  0.74582312  1  0.08215  0.000133  0.946649  0.0  0.102069  -7.2e-05  1.008568  0.0  0.102081  2e-05  1.009337  0.0  0.101301  0.101985  -0.000168  1.008136  0.0
H  H11  1  0.39198506  0.31245440  0.75417797  1  0.082211  0.000126  0.946594  0.0  0.102124  -7.1e-05  1.008512  0.0  0.102136  1.9e-05  1.009282  0.0  0.101331  0.102037  -0.000168  1.008078  0.0
H  H12  1  0.31245102  0.39198311  0.25418378  1  0.08219  0.000131  0.946683  0.0  0.1021  -7.2e-05  1.008623  0.0  0.102114  2e-05  1.009392  0.0  0.101344  0.10202  -0.000168  1.008184  0.0
H  H13  1  0.60801296  0.68754982  0.24581577  1  0.082254  0.000127  0.946619  0.0  0.102156  -7.2e-05  1.008553  0.0  0.10217  1.9e-05  1.009321  0.0  0.101369  0.102073  -0.000168  1.008119  0.0
H  H14  1  0.59371682  0.53618552  0.61912766  1  0.072316  -0.000626  0.959661  -0.001  0.080527  -0.000878  1.03829  -0.001  0.082214  -0.000646  1.03598  -0.001  0.08396  0.079393  -0.001125  1.039916  -0.001
H  H15  1  0.46381608  0.40628338  0.88087348  1  0.072318  -0.000633  0.959657  -0.001  0.080528  -0.000878  1.038291  -0.001  0.082215  -0.000646  1.03598  -0.001  0.083956  0.079389  -0.001125  1.039919  -0.001
H  H16  1  0.40627732  0.46381218  0.38087909  1  0.072328  -0.000627  0.95964  -0.001  0.080515  -0.000879  1.038293  -0.001  0.082202  -0.000645  1.035981  -0.001  0.083944  0.079383  -0.001125  1.039917  -0.001
H  H17  1  0.53618368  0.59372218  0.11911963  1  0.072323  -0.00063  0.959653  -0.001  0.080518  -0.000878  1.038296  -0.001  0.082204  -0.000647  1.035984  -0.001  0.083928  0.079385  -0.001125  1.039917  -0.001
H  H18  1  0.56778207  0.71222450  0.68656779  1  0.069205  0.000149  0.957124  0.0  0.086012  1.1e-05  1.026138  0.0  0.087372  0.000101  1.024282  0.0  0.091579  0.085004  -9.7e-05  1.027515  0.0
H  H19  1  0.28777673  0.43221692  0.81343514  1  0.06921  0.000142  0.957161  0.0  0.086023  1.2e-05  1.026162  0.0  0.087383  0.0001  1.024307  0.0  0.0916  0.085011  -9.7e-05  1.027542  0.0
H  H20  1  0.43221152  0.28777188  0.31343889  1  0.06924  0.000149  0.957144  0.0  0.08605  1.1e-05  1.02615  0.0  0.087409  0.0001  1.024296  0.0  0.091637  0.085029  -9.7e-05  1.027538  0.0
H  H21  1  0.71222248  0.56778732  0.18655865  1  0.069246  0.000146  0.957173  0.0  0.086065  1.1e-05  1.026156  0.0  0.087423  0.0001  1.024303  0.0  0.09163  0.085035  -9.7e-05  1.027555  0.0
H  H22  1  0.00630500  0.58443056  0.71860149  1  0.076626  0.000125  0.953156  0.0  0.094487  -0.000149  1.0208  0.0  0.093354  -5.6e-05  1.023423  0.0  0.097428  0.095285  -0.000243  1.019019  0.0
H  H23  1  0.41557131  0.99370457  0.78139887  1  0.076667  0.000145  0.953226  0.0  0.094446  -0.000149  1.020945  0.0  0.093312  -5.5e-05  1.023572  0.0  0.097402  0.095242  -0.000243  1.019157  0.0
H  H24  1  0.99370825  0.41556736  0.28139849  1  0.076684  0.00013  0.953264  0.0  0.094469  -0.000149  1.020955  0.0  0.093334  -5.5e-05  1.023584  0.0  0.097427  0.095262  -0.000243  1.019176  0.0
H  H25  1  0.58442933  0.00629449  0.21860221  1  0.07668  0.000137  0.953209  0.0  0.094455  -0.000149  1.020926  0.0  0.093321  -5.5e-05  1.023553  0.0  0.097413  0.095255  -0.000243  1.019141  0.0
H  H26  1  0.91078128  0.48496631  0.82781926  1  0.077384  -0.000256  0.933605  0.0  0.093118  -0.000556  0.998285  0.0  0.094614  -0.000383  0.996411  0.0  0.092958  0.092051  -0.000741  0.999648  -0.001
H  H27  1  0.51503867  0.08923031  0.67218098  1  0.077362  -0.000249  0.933606  0.0  0.093083  -0.000556  0.998295  0.0  0.094579  -0.000383  0.99642  0.0  0.092926  0.092013  -0.000742  0.999662  -0.001
H  H28  1  0.08923446  0.51502903  0.17218071  1  0.077363  -0.000254  0.933611  0.0  0.0931  -0.000557  0.998278  0.0  0.0946  -0.000382  0.996397  0.0  0.09292  0.092032  -0.000742  0.999642  -0.001
H  H29  1  0.48496908  0.91077149  0.32782192  1  0.077371  -0.000251  0.933597  0.0  0.093086  -0.000556  0.998288  0.0  0.094586  -0.000383  0.996405  0.0  0.092924  0.092019  -0.000742  0.999656  -0.001
H  H30  1  0.14534103  0.58913467  0.82509543  1  0.06403  -0.00023  0.962016  0.0  0.078332  -0.000497  1.033237  0.0  0.079243  -0.00032  1.032033  0.0  0.086931  0.077724  -0.000694  1.034078  -0.001
H  H31  1  0.41086870  0.85466830  0.67490474  1  0.064052  -0.000222  0.961989  0.0  0.078364  -0.000497  1.03318  0.0  0.079276  -0.00032  1.031974  0.0  0.086943  0.077753  -0.000694  1.034028  -0.001
H  H32  1  0.85467112  0.41086061  0.17490443  1  0.063994  -0.000221  0.962004  0.0  0.078318  -0.000498  1.033185  0.0  0.079227  -0.00032  1.031987  0.0  0.086928  0.077712  -0.000694  1.034021  -0.001
H  H33  1  0.58914144  0.14533353  0.32509749  1  0.064  -0.000223  0.961995  0.0  0.078336  -0.000497  1.033156  0.0  0.079244  -0.00032  1.031958  0.0  0.086958  0.077732  -0.000694  1.03399  -0.001
C  C34  1  0.92368834  0.16040565  0.58011793  1  0.707642  -0.00337  3.861427  -0.004  0.650754  -0.006752  4.169288  -0.006  0.68635  -0.005022  4.158752  -0.005  0.229905  0.626276  -0.008731  4.176005  -0.008
C  C35  1  0.83959545  0.07631105  0.91988266  1  0.707584  -0.00338  3.861245  -0.004  0.650693  -0.006752  4.169105  -0.006  0.686288  -0.005023  4.158571  -0.005  0.229872  0.626212  -0.008732  4.175825  -0.008
C  C36  1  0.07630399  0.83959066  0.41988129  1  0.707757  -0.003377  3.860989  -0.004  0.650919  -0.006755  4.168792  -0.006  0.686521  -0.005024  4.158239  -0.005  0.229953  0.626445  -0.008736  4.175508  -0.008
C  C37  1  0.16040544  0.92368013  0.08011668  1  0.707819  -0.00338  3.860618  -0.004  0.65093  -0.006756  4.168566  -0.006  0.68653  -0.005026  4.158018  -0.005  0.229974  0.626446  -0.008738  4.175294  -0.008
C  C38  1  0.96153271  0.33473016  0.53873257  1  -0.213063  -0.00144  3.765555  -0.001  -0.221724  -0.00225  4.043723  -0.002  -0.226173  -0.001203  4.055845  -0.001  -0.024132  -0.219573  -0.004036  4.036901  -0.003
C  C39  1  0.66526818  0.03846808  0.96126748  1  -0.213124  -0.001387  3.76576  -0.001  -0.221828  -0.002248  4.043958  -0.002  -0.226284  -0.001205  4.056082  -0.001  -0.024186  -0.219678  -0.004035  4.037139  -0.003
C  C40  1  0.03845815  0.66527399  0.46126539  1  -0.213119  -0.001468  3.765858  -0.002  -0.221942  -0.002248  4.044134  -0.002  -0.226392  -0.001203  4.056242  -0.001  -0.024235  -0.219789  -0.004033  4.037311  -0.003
C  C41  1  0.33473229  0.96153624  0.03873451  1  -0.213169  -0.001574  3.765757  -0.002  -0.222058  -0.002241  4.044165  -0.002  -0.226513  -0.001216  4.056275  -0.001  -0.024236  -0.219912  -0.004031  4.037349  -0.003
C  C42  1  0.13526353  0.45866333  0.53230509  1  0.211646  -0.000214  3.786814  0.0  0.170418  -0.000843  4.095995  -0.001  0.180668  -0.000371  4.10282  0.0  0.096889  0.162861  -0.001554  4.092509  -0.001
C  C43  1  0.54134393  0.86473367  0.96768791  1  0.211521  -0.00028  3.786801  0.0  0.170334  -0.000842  4.095906  -0.001  0.180583  -0.000375  4.102739  0.0  0.096794  0.162778  -0.001554  4.092419  -0.001
C  C44  1  0.86473565  0.54134359  0.46769546  1  0.211497  -0.000179  3.786893  0.0  0.170352  -0.000845  4.096041  -0.001  0.180597  -0.000369  4.102889  0.0  0.09677  0.162797  -0.001557  4.092553  -0.001
C  C45  1  0.45865389  0.13525875  0.03230692  1  0.211579  -8e-05  3.78667  0.0  0.170423  -0.000847  4.095898  -0.001  0.180669  -0.000364  4.102745  0.0  0.096772  0.162873  -0.001557  4.092409  -0.001
C  C46  1  0.17258317  0.61951886  0.49373573  1  0.193813  -0.000707  3.785168  -0.001  0.157299  -0.001452  4.090938  -0.001  0.166729  -0.000861  4.098636  -0.001  0.092561  0.150446  -0.002367  4.086766  -0.002
C  C47  1  0.38047696  0.82741037  0.00626199  1  0.19378  -0.000617  3.785271  0.0  0.15733  -0.001455  4.090973  -0.001  0.166749  -0.000857  4.098683  -0.001  0.092559  0.150483  -0.002368  4.086792  -0.002
C  C48  1  0.82740939  0.38048929  0.50626761  1  0.193823  -0.000735  3.785245  -0.001  0.157227  -0.001449  4.091044  -0.001  0.166616  -0.000864  4.098775  -0.001  0.092488  0.150374  -0.002365  4.08687  -0.002
C  C49  1  0.61951119  0.17258453  0.99373259  1  0.193886  -0.000803  3.785134  -0.001  0.15728  -0.001449  4.090978  -0.001  0.166672  -0.000869  4.098707  -0.001  0.092508  0.150427  -0.002364  4.086801  -0.002
C  C50  1  0.65763819  0.65053361  0.67466046  1  -0.019082  -0.001233  3.650484  -0.002  -0.116144  -0.002877  3.923731  -0.003  -0.109505  -0.002102  3.928218  -0.002  -0.150766  -0.120667  -0.003611  3.920328  -0.003
C  C51  1  0.34946666  0.34236111  0.82534144  1  -0.019125  -0.001198  3.650454  -0.001  -0.116185  -0.002877  3.923683  -0.003  -0.109547  -0.0021  3.928171  -0.002  -0.150804  -0.12071  -0.003611  3.92029  -0.003
C  C52  1  0.34235475  0.34946407  0.32534551  1  -0.019149  -0.001231  3.650578  -0.002  -0.116179  -0.002874  3.923873  -0.003  -0.109539  -0.002104  3.928357  -0.002  -0.150849  -0.120713  -0.003611  3.920527  -0.003
C  C53  1  0.65053375  0.65764315  0.17465239  1  -0.019217  -0.001211  3.65055  -0.002  -0.11625  -0.002877  3.923823  -0.003  -0.109609  -0.002099  3.928306  -0.002  -0.150855  -0.120755  -0.003611  3.920447  -0.003
C  C54  1  0.02165480  0.59560893  0.80029641  1  -0.004538  -0.002023  3.65492  -0.003  -0.097443  -0.003461  3.917864  -0.003  -0.090623  -0.002621  3.92308  -0.003  -0.145247  -0.102161  -0.004253  3.913921  -0.004
C  C55  1  0.40439223  0.97835291  0.69970385  1  -0.004591  -0.002076  3.655082  -0.003  -0.097449  -0.003461  3.918025  -0.003  -0.090628  -0.002623  3.923239  -0.003  -0.145212  -0.102167  -0.004253  3.914092  -0.004
C  C56  1  0.97835801  0.40438507  0.19970564  1  -0.004551  -0.00205  3.655143  -0.003  -0.097419  -0.003462  3.918079  -0.003  -0.0906  -0.002625  3.923298  -0.003  -0.145172  -0.102132  -0.004254  3.914133  -0.004
C  C57  1  0.59561320  0.02164621  0.30029665  1  -0.004548  -0.002061  3.655065  -0.003  -0.097403  -0.003462  3.917985  -0.003  -0.090582  -0.002625  3.9232  -0.003  -0.145204  -0.102126  -0.004254  3.914043  -0.004
O  O58  1  0.81535684  0.01959664  0.52881197  1  -0.599838  -0.001199  1.974156  -0.002  -0.547436  -0.003244  2.188035  -0.004  -0.572355  -0.002164  2.176816  -0.003  -0.293105  -0.530136  -0.004537  2.195438  -0.005
O  O59  1  0.98040404  0.18464506  0.97118863  1  -0.599832  -0.001196  1.974147  -0.002  -0.547418  -0.003245  2.188026  -0.004  -0.572339  -0.002164  2.176809  -0.003  -0.293119  -0.530117  -0.004538  2.195431  -0.005
O  O60  1  0.18464429  0.98040368  0.47118027  1  -0.599766  -0.001201  1.974171  -0.002  -0.547365  -0.003244  2.187999  -0.004  -0.572278  -0.002165  2.176778  -0.003  -0.293017  -0.530077  -0.004539  2.195402  -0.005
O  O61  1  0.01960544  0.81536077  0.02882261  1  -0.599796  -0.001196  1.97442  -0.002  -0.547373  -0.003246  2.188296  -0.004  -0.572284  -0.002163  2.177074  -0.003  -0.293003  -0.530075  -0.004538  2.195698  -0.005
O  O62  1  0.00524001  0.17026857  0.66336945  1  -0.620978  -0.029367  2.032657  -0.018  -0.562674  -0.034992  2.292991  -0.02  -0.592578  -0.03167  2.279777  -0.017  -0.297506  -0.5407  -0.038008  2.30144  -0.022
O  O63  1  0.82973362  0.99475437  0.83663043  1  -0.620968  -0.02936  2.032566  -0.018  -0.562614  -0.034997  2.292851  -0.02  -0.592518  -0.031669  2.279639  -0.017  -0.297461  -0.540638  -0.03801  2.301302  -0.022
O  O64  1  0.99473737  0.82972620  0.33662626  1  -0.621097  -0.029366  2.032243  -0.018  -0.562784  -0.034994  2.292592  -0.02  -0.592689  -0.03167  2.279375  -0.017  -0.297603  -0.540807  -0.038007  2.301036  -0.022
O  O65  1  0.17028114  0.00525549  0.16338336  1  -0.621137  -0.029371  2.031847  -0.018  -0.562773  -0.034998  2.292174  -0.02  -0.592684  -0.031673  2.278959  -0.017  -0.297636  -0.540786  -0.038011  2.300624  -0.022
O  O66  1  0.82165336  0.77481611  0.64266416  1  -0.556567  -0.029981  2.211534  -0.019  -0.483479  -0.03844  2.474737  -0.025  -0.506762  -0.034468  2.462556  -0.021  -0.40353  -0.465867  -0.042167  2.482359  -0.028
O  O67  1  0.22518498  0.17834405  0.85733837  1  -0.556628  -0.029985  2.21151  -0.019  -0.483493  -0.038439  2.474678  -0.025  -0.506778  -0.034468  2.462503  -0.021  -0.403531  -0.465872  -0.042167  2.482293  -0.028
O  O68  1  0.17833894  0.22518288  0.35734257  1  -0.556576  -0.029977  2.211724  -0.019  -0.4835  -0.03844  2.474919  -0.025  -0.506784  -0.034467  2.462746  -0.021  -0.403523  -0.465887  -0.042168  2.482534  -0.028
O  O69  1  0.77481480  0.82166152  0.14265622  1  -0.55654  -0.029983  2.211649  -0.019  -0.483463  -0.03844  2.474832  -0.025  -0.506746  -0.034469  2.46266  -0.021  -0.403477  -0.465851  -0.042167  2.482446  -0.028
O  O70  1  0.02511282  0.76148947  0.83490997  1  -0.567554  -0.029418  2.223039  -0.017  -0.489854  -0.038334  2.488972  -0.023  -0.513228  -0.034449  2.475543  -0.019  -0.403345  -0.47225  -0.041941  2.497581  -0.026
O  O71  1  0.23851364  0.97489412  0.66508989  1  -0.567584  -0.029416  2.223188  -0.017  -0.48982  -0.038334  2.489033  -0.023  -0.513195  -0.03445  2.475602  -0.019  -0.403381  -0.472216  -0.041943  2.49764  -0.026
O  O72  1  0.97489879  0.23850451  0.16509205  1  -0.567501  -0.029421  2.223304  -0.017  -0.489777  -0.038337  2.489128  -0.023  -0.513152  -0.034452  2.475702  -0.019  -0.403392  -0.472177  -0.041945  2.497732  -0.026
O  O73  1  0.76149186  0.02510236  0.33490756  1  -0.567572  -0.029419  2.223264  -0.017  -0.489835  -0.038337  2.489076  -0.023  -0.513209  -0.034451  2.475647  -0.019  -0.403399  -0.472231  -0.041944  2.497684  -0.026
F  F74  1  0.27176907  0.42218413  0.56139521  1  -0.162662  0.000128  1.25554  0.0  -0.104303  -8e-05  1.418914  0.0  -0.113046  6.2e-05  1.409049  0.0  -0.072495  -0.098168  -0.00026  1.425862  0.0
F  F75  1  0.57781911  0.72823049  0.93859520  1  -0.162627  0.000124  1.255557  0.0  -0.104262  -8e-05  1.418903  0.0  -0.113008  6.3e-05  1.409043  0.0  -0.072458  -0.098129  -0.00026  1.425851  0.0
F  F76  1  0.72822354  0.57782137  0.43860359  1  -0.162704  0.000126  1.255406  0.0  -0.104314  -8e-05  1.418711  0.0  -0.113061  6.3e-05  1.408852  0.0  -0.072483  -0.098181  -0.00026  1.425659  0.0
F  F77  1  0.42217485  0.27176974  0.06139902  1  -0.1627  0.000129  1.255421  0.0  -0.104285  -8.1e-05  1.418728  0.0  -0.113034  6.4e-05  1.408871  0.0  -0.072459  -0.098153  -0.00026  1.425674  0.0
F  F78  1  0.34422435  0.73126839  0.48578783  1  -0.167308  -5e-05  1.222643  0.0  -0.114943  -0.000208  1.382222  0.0  -0.124122  -9.7e-05  1.373602  0.0  -0.080488  -0.108918  -0.000369  1.388681  0.0
F  F79  1  0.26873507  0.65576922  0.01420337  1  -0.16723  -4.8e-05  1.222793  0.0  -0.114913  -0.000208  1.382391  0.0  -0.124057  -9.5e-05  1.373739  0.0  -0.080441  -0.108892  -0.000369  1.388849  0.0
F  F80  1  0.65576904  0.26875297  0.51422414  1  -0.167222  -5.2e-05  1.222686  0.0  -0.114915  -0.000208  1.38237  0.0  -0.123999  -9.7e-05  1.373676  0.0  -0.080409  -0.108887  -0.000369  1.388827  0.0
F  F81  1  0.73124450  0.34422809  0.98577766  1  -0.167259  -5.7e-05  1.222695  0.0  -0.114945  -0.000208  1.382392  0.0  -0.124025  -9.6e-05  1.37369  0.0  -0.080414  -0.108922  -0.000369  1.38885  0.0
