# generated using pymatgen
data_AgH4C11S3N2(OF)3
_symmetry_space_group_name_H-M   'P 1'
_cell_length_a   9.79494605
_cell_length_b   9.83746400
_cell_length_c   9.79445899
_cell_angle_alpha   67.54163754
_cell_angle_beta   77.69416498
_cell_angle_gamma   80.12528962
_symmetry_Int_Tables_number   1
_chemical_formula_structural   AgH4C11S3N2(OF)3
_chemical_formula_sum   'Ag2 H8 C22 S6 N4 O6 F6'
_cell_volume   847.90044865
_cell_formula_units_Z   2
loop_
 _symmetry_equiv_pos_site_id
 _symmetry_equiv_pos_as_xyz
  1  'x, y, z'
loop_
 _atom_site_type_symbol
 _atom_site_label
 _atom_site_symmetry_multiplicity
 _atom_site_fract_x
 _atom_site_fract_y
 _atom_site_fract_z
 _atom_site_occupancy
 _atom_site_hle17_bader_spin_density
 _atom_site_hle17_ddec_charge
 _atom_site_hle17_ddec_spin_density
 _atom_site_hle17_ddec_sum_bond_order
 _atom_site_hle17_magmom
 _atom_site_hse06_10hf_bader_spin_density
 _atom_site_hse06_10hf_ddec_charge
 _atom_site_hse06_10hf_ddec_spin_density
 _atom_site_hse06_10hf_ddec_sum_bond_order
 _atom_site_hse06_10hf_magmom
 _atom_site_hse06_bader_spin_density
 _atom_site_hse06_ddec_charge
 _atom_site_hse06_ddec_spin_density
 _atom_site_hse06_ddec_sum_bond_order
 _atom_site_hse06_magmom
 _atom_site_pbe_bader_spin_density
 _atom_site_pbe_cm5_charge
 _atom_site_pbe_ddec_charge
 _atom_site_pbe_ddec_spin_density
 _atom_site_pbe_ddec_sum_bond_order
 _atom_site_pbe_magmom
Ag  Ag0  1  0.38006847  0.84965033  0.98843420  1  0  0.710535  0  1.467311  0  0  0.593119  0  1.917587  0  0  0.611934  0  1.871251  0  0  0.561211  0.58097  0  1.949304  0
Ag  Ag1  1  0.61993804  0.15034703  0.01156464  1  0  0.710501  0  1.46741  0  0  0.593088  0  1.917699  0  0  0.6119  0  1.871367  0  0  0.561213  0.580933  0  1.949399  0
H  H2  1  0.52038229  0.77693233  0.47261277  1  0  0.128211  0  0.949244  0  0  0.135604  0  1.012102  0  0  0.139055  0  1.008721  0  0  0.108072  0.133043  0  1.014657  0
H  H3  1  0.47961466  0.22306849  0.52738496  1  0  0.128247  0  0.949242  0  0  0.135621  0  1.012123  0  0  0.13907  0  1.00874  0  0  0.108067  0.13306  0  1.014679  0
H  H4  1  0.67713237  0.64624290  0.68416813  1  0  0.138536  0  0.963363  0  0  0.149996  0  1.020295  0  0  0.153158  0  1.018815  0  0  0.111499  0.147697  0  1.021462  0
H  H5  1  0.32286923  0.35376015  0.31582103  1  0  0.138643  0  0.963411  0  0  0.150059  0  1.020363  0  0  0.153221  0  1.018885  0  0  0.111561  0.147766  0  1.021525  0
H  H6  1  0.82256032  0.48082663  0.85024683  1  0  0.143569  0  0.936523  0  0  0.158376  0  0.98621  0  0  0.161388  0  0.98467  0  0  0.117773  0.156199  0  0.987443  0
H  H7  1  0.17743016  0.51915987  0.14976104  1  0  0.143634  0  0.93636  0  0  0.158366  0  0.986157  0  0  0.161376  0  0.984623  0  0  0.1178  0.156196  0  0.987382  0
H  H8  1  0.00777880  0.26492543  0.98359546  1  0  0.142017  0  0.941237  0  0  0.155214  0  0.991571  0  0  0.158215  0  0.989745  0  0  0.117557  0.15297  0  0.992988  0
H  H9  1  0.99221359  0.73506661  0.01640707  1  0  0.141984  0  0.941243  0  0  0.155281  0  0.991459  0  0  0.158286  0  0.989627  0  0  0.117557  0.153002  0  0.992922  0
C  C10  1  0.55286247  0.65643394  0.24845459  1  0  0.334482  0  3.761938  0  0  0.318755  0  4.012546  0  0  0.332902  0  4.030718  0  0  0.208166  0.308997  0  4.000594  0
C  C11  1  0.44712859  0.34356142  0.75154688  1  0  0.334509  0  3.761932  0  0  0.31878  0  4.012535  0  0  0.332929  0  4.030708  0  0  0.208156  0.309016  0  4.000586  0
C  C12  1  0.62505152  0.61816471  0.36840770  1  0  -0.087065  0  3.88168  0  0  -0.066318  0  4.144069  0  0  -0.071828  0  4.166299  0  0  -0.014167  -0.062713  0  4.129143  0
C  C13  1  0.37493756  0.38182735  0.63159728  1  0  -0.087063  0  3.881564  0  0  -0.066306  0  4.143939  0  0  -0.071825  0  4.166185  0  0  -0.014138  -0.062693  0  4.129009  0
C  C14  1  0.59814155  0.68292458  0.47698234  1  0  -0.070875  0  3.729381  0  0  -0.105766  0  3.997743  0  0  -0.102296  0  4.014408  0  0  -0.085135  -0.107704  0  3.986156  0
C  C15  1  0.40185266  0.31707409  0.52301446  1  0  -0.070959  0  3.729398  0  0  -0.105855  0  3.997805  0  0  -0.102376  0  4.014465  0  0  -0.085171  -0.10779  0  3.986223  0
C  C16  1  0.68102589  0.61255715  0.58954063  1  0  -0.116904  0  3.71411  0  0  -0.143414  0  3.976123  0  0  -0.148726  0  3.9969  0  0  -0.099194  -0.139865  0  3.961938  0
C  C17  1  0.31897239  0.38744480  0.41045242  1  0  -0.117044  0  3.714128  0  0  -0.143493  0  3.976113  0  0  -0.148805  0  3.996884  0  0  -0.099249  -0.139951  0  3.961942  0
C  C18  1  0.77163723  0.49404710  0.56787321  1  0  -0.002502  0  3.789958  0  0  0.005603  0  4.061529  0  0  0.007944  0  4.084879  0  0  -0.005853  0.004107  0  4.04561  0
C  C19  1  0.22835858  0.50595261  0.43212712  1  0  -0.00246  0  3.789871  0  0  0.005664  0  4.061388  0  0  0.008013  0  4.084727  0  0  -0.005859  0.004168  0  4.045482  0
C  C20  1  0.86702087  0.39737800  0.66592405  1  0  -0.01519  0  3.796061  0  0  -0.010426  0  4.074458  0  0  -0.008753  0  4.09711  0  0  -0.009313  -0.0114  0  4.059019  0
C  C21  1  0.13297817  0.60262279  0.33407343  1  0  -0.015254  0  3.796121  0  0  -0.010438  0  4.074467  0  0  -0.008766  0  4.097115  0  0  -0.009309  -0.011415  0  4.059039  0
C  C22  1  0.88152503  0.39938474  0.80417198  1  0  -0.130277  0  3.731257  0  0  -0.156468  0  3.997937  0  0  -0.16012  0  4.015983  0  0  -0.096534  -0.154105  0  3.985627  0
C  C23  1  0.11846614  0.60061064  0.19582845  1  0  -0.1304  0  3.731096  0  0  -0.15654  0  3.997828  0  0  -0.160193  0  4.015877  0  0  -0.096598  -0.154173  0  3.985522  0
C  C24  1  0.98046648  0.28727176  0.87444392  1  0  -0.072229  0  3.726859  0  0  -0.103927  0  3.985215  0  0  -0.101092  0  4.001672  0  0  -0.078409  -0.105476  0  3.973852  0
C  C25  1  0.01952602  0.71272909  0.12555742  1  0  -0.072247  0  3.726927  0  0  -0.103993  0  3.985212  0  0  -0.101158  0  4.001669  0  0  -0.078392  -0.105516  0  3.973863  0
C  C26  1  0.04243103  0.20069137  0.78874470  1  0  -0.076672  0  3.846628  0  0  -0.055577  0  4.108061  0  0  -0.060882  0  4.129574  0  0  -0.008214  -0.052092  0  4.093652  0
C  C27  1  0.95756432  0.79931051  0.21125796  1  0  -0.076568  0  3.846498  0  0  -0.055468  0  4.10799  0  0  -0.060777  0  4.129512  0  0  -0.008131  -0.051974  0  4.09356  0
C  C28  1  0.14453980  0.08053623  0.82596175  1  0  0.368057  0  3.744956  0  0  0.349213  0  4.00193  0  0  0.364203  0  4.019979  0  0  0.219213  0.338867  0  3.990029  0
C  C29  1  0.85546219  0.91946896  0.17403171  1  0  0.367964  0  3.744878  0  0  0.349081  0  4.001934  0  0  0.364071  0  4.019987  0  0  0.219081  0.338728  0  3.990028  0
C  C30  1  0.72830244  0.97874933  0.61709635  1  0  0.592503  0  3.659296  0  0  0.529158  0  4.017963  0  0  0.557141  0  3.99093  0  0  0.283066  0.509029  0  4.037654  0
C  C31  1  0.27170294  0.02125348  0.38290782  1  0  0.59228  0  3.659863  0  0  0.529149  0  4.01807  0  0  0.557127  0  3.991042  0  0  0.283106  0.509033  0  4.037728  0
S  S32  1  0.75428816  0.47102881  0.40621246  1  0  0.151682  0  2.528989  0  0  0.155415  0  2.826563  0  0  0.152861  0  2.835461  0  0  0.118079  0.156748  0  2.820894  0
S  S33  1  0.24570376  0.52896429  0.59379384  1  0  0.151682  0  2.528899  0  0  0.155394  0  2.826476  0  0  0.152841  0  2.835377  0  0  0.118085  0.156725  0  2.820813  0
S  S34  1  0.97680077  0.25775657  0.62323787  1  0  0.183249  0  2.610628  0  0  0.17707  0  2.937174  0  0  0.175858  0  2.943401  0  0  0.124668  0.177404  0  2.933384  0
S  S35  1  0.02320633  0.74224630  0.37675889  1  0  0.183506  0  2.610319  0  0  0.177088  0  2.937158  0  0  0.175878  0  2.943388  0  0  0.124668  0.17742  0  2.933371  0
S  S36  1  0.74363455  0.87941350  0.81922783  1  0  1.121669  0  5.852883  0  0  1.023964  0  6.386456  0  0  1.067791  0  6.367341  0  0  0.476423  0.993794  0  6.398717  0
S  S37  1  0.25637860  0.12059038  0.18076884  1  0  1.121779  0  5.852721  0  0  1.024211  0  6.386121  0  0  1.068043  0  6.367002  0  0  0.476557  0.994051  0  6.398368  0
N  N38  1  0.48668640  0.68900235  0.15235836  1  0  -0.417373  0  2.965288  0  0  -0.362075  0  3.266203  0  0  -0.377036  0  3.269529  0  0  -0.350534  -0.35245  0  3.26436  0
N  N39  1  0.51331139  0.31099186  0.84763860  1  0  -0.417351  0  2.965258  0  0  -0.362059  0  3.26617  0  0  -0.377019  0  3.269496  0  0  -0.350503  -0.352433  0  3.264325  0
N  N40  1  0.23089736  0.98120414  0.85885773  1  0  -0.447991  0  2.970373  0  0  -0.394436  0  3.282673  0  0  -0.410103  0  3.283775  0  0  -0.362216  -0.384317  0  3.282296  0
N  N41  1  0.76910301  0.01879988  0.14114353  1  0  -0.447916  0  2.970363  0  0  -0.394369  0  3.282711  0  0  -0.410035  0  3.283813  0  0  -0.36218  -0.384247  0  3.282324  0
O  O42  1  0.62198014  0.95339681  0.89039120  1  0  -0.659727  0  2.132787  0  0  -0.608448  0  2.427535  0  0  -0.629659  0  2.410279  0  0  -0.351235  -0.593388  0  2.438806  0
O  O43  1  0.37803147  0.04659600  0.10961382  1  0  -0.659685  0  2.132798  0  0  -0.608514  0  2.427592  0  0  -0.629729  0  2.410336  0  0  -0.351295  -0.593459  0  2.438862  0
O  O44  1  0.87929127  0.91073813  0.83131834  1  0  -0.599254  0  1.992735  0  0  -0.570574  0  2.236858  0  0  -0.590177  0  2.226792  0  0  -0.339597  -0.556624  0  2.243239  0
O  O45  1  0.12071546  0.08927573  0.16867956  1  0  -0.599382  0  1.992672  0  0  -0.570713  0  2.236694  0  0  -0.590316  0  2.226623  0  0  -0.339687  -0.556773  0  2.243086  0
O  O46  1  0.72985380  0.72616798  0.84467390  1  0  -0.606983  0  1.978418  0  0  -0.573713  0  2.217159  0  0  -0.592235  0  2.203955  0  0  -0.342979  -0.560535  0  2.225745  0
O  O47  1  0.27017612  0.27383456  0.15532120  1  0  -0.606951  0  1.978297  0  0  -0.573694  0  2.216947  0  0  -0.592215  0  2.203745  0  0  -0.342945  -0.560519  0  2.22553  0
F  F48  1  0.83958047  0.93984099  0.52577894  1  0  -0.232106  0  1.223085  0  0  -0.192491  0  1.393567  0  0  -0.201776  0  1.377475  0  0  -0.101221  -0.185721  0  1.404839  0
F  F49  1  0.16041888  0.06017086  0.47421241  1  0  -0.23187  0  1.22318  0  0  -0.192471  0  1.393663  0  0  -0.201757  0  1.377572  0  0  -0.101223  -0.185703  0  1.404928  0
F  F50  1  0.60941795  0.94897235  0.58681873  1  0  -0.22966  0  1.19467  0  0  -0.191752  0  1.367598  0  0  -0.201473  0  1.351014  0  0  -0.097288  -0.184726  0  1.379183  0
F  F51  1  0.39058400  0.05102490  0.41319609  1  0  -0.229755  0  1.194825  0  0  -0.191777  0  1.367606  0  0  -0.201496  0  1.351024  0  0  -0.097333  -0.184758  0  1.379187  0
F  F52  1  0.71981999  0.12810640  0.57951993  1  0  -0.24971  0  1.242669  0  0  -0.21609  0  1.425214  0  0  -0.226283  0  1.410345  0  0  -0.103845  -0.208692  0  1.435692  0
F  F53  1  0.28017498  0.87189879  0.42048259  1  0  -0.249815  0  1.242861  0  0  -0.216103  0  1.425239  0  0  -0.226295  0  1.410369  0  0  -0.103833  -0.208707  0  1.43571  0
