# generated using pymatgen
data_Zr6H25C52Cl5O32
_symmetry_space_group_name_H-M   'P 1'
_cell_length_a   14.79678383
_cell_length_b   14.78725060
_cell_length_c   14.78648246
_cell_angle_alpha   59.99386327
_cell_angle_beta   59.97251973
_cell_angle_gamma   60.05976770
_symmetry_Int_Tables_number   1
_chemical_formula_structural   Zr6H25C52Cl5O32
_chemical_formula_sum   'Zr6 H25 C52 Cl5 O32'
_cell_volume   2288.17853549
_cell_formula_units_Z   1
loop_
 _symmetry_equiv_pos_site_id
 _symmetry_equiv_pos_as_xyz
  1  'x, y, z'
loop_
 _atom_site_type_symbol
 _atom_site_label
 _atom_site_symmetry_multiplicity
 _atom_site_fract_x
 _atom_site_fract_y
 _atom_site_fract_z
 _atom_site_occupancy
 _atom_site_pbe_bader_charge
 _atom_site_pbe_bader_spin_density
 _atom_site_pbe_cm5_charge
 _atom_site_pbe_ddec_charge
 _atom_site_pbe_ddec_spin_density
 _atom_site_pbe_ddec_sum_bond_order
 _atom_site_pbe_magmom
Zr  Zr0  1  0.87834063  0.88276764  0.62136859  1  2.633356  0  1.62779  2.371843  0  2.755362  0
Zr  Zr1  1  0.12005871  0.11920681  0.38448642  1  2.63969  0  1.628515  2.380507  0  2.75591  0
Zr  Zr2  1  0.11607270  0.87993264  0.62468368  1  2.635092  0  1.621746  2.377116  0  2.736212  0
Zr  Zr3  1  0.88004784  0.12162336  0.38210584  1  2.637532  0  1.62923  2.373067  0  2.754811  0
Zr  Zr4  1  0.11866922  0.88302365  0.38200145  1  2.632146  0  1.626452  2.374565  0  2.758415  0
Zr  Zr5  1  0.87924678  0.12249706  0.62075453  1  2.634302  0  1.625371  2.376478  0  2.747516  0
H  H6  1  0.09181497  0.71903514  0.59561973  1  0.608061  0  0.330005  0.420706  0  0.862507  0
H  H7  1  0.09639408  0.09382290  0.22012109  1  0.621138  0  0.330648  0.421146  0  0.862067  0
H  H8  1  0.09213898  0.09407520  0.59908455  1  0.611649  0  0.331433  0.425398  0  0.853102  0
H  H9  1  0.71659685  0.09706067  0.59483338  1  0.604109  0  0.33188  0.423878  0  0.856266  0
H  H10  1  0.83182127  0.60654185  0.62011579  1  0.119683  0  0.113972  0.121178  0  0.984435  0
H  H11  1  0.14358214  0.59377368  0.35483559  1  0.131588  0  0.10927  0.127061  0  1.009029  0
H  H12  1  0.84152882  0.43483165  0.61455421  1  0.117359  0  0.113666  0.121501  0  0.991564  0
H  H13  1  0.58725016  0.84915210  0.92894883  1  0.09378  0  0.113513  0.122032  0  0.984456  0
H  H14  1  0.59312243  0.14340808  0.91508132  1  0.092877  0  0.104313  0.122845  0  1.021506  0
H  H15  1  0.41887549  0.85547956  0.09980422  1  0.1449  0  0.109419  0.116271  0  1.005412  0
H  H16  1  0.14474604  0.85956213  0.07996579  1  0.056048  0  0.113019  0.121817  0  0.986231  0
H  H17  1  0.82763999  0.11615823  0.12157839  1  0.118883  0  0.114145  0.132428  0  0.991972  0
H  H18  1  0.13481517  0.86576166  0.91219093  1  0.095621  0  0.110859  0.1175  0  1.001312  0
H  H19  1  0.58666515  0.42963873  0.63880761  1  0.098141  0  0.11179  0.119357  0  0.987944  0
H  H20  1  0.59216992  0.41490816  0.35303079  1  0.08986  0  0.113489  0.133254  0  0.993248  0
H  H21  1  0.41653017  0.59809548  0.63198753  1  0.104749  0  0.109881  0.11664  0  1.003737  0
H  H22  1  0.96642533  0.57928041  0.74558389  1  0.093646  0  0.096255  0.100552  0  1.061103  0
H  H23  1  0.95363662  0.41730292  0.75091564  1  0.046129  0  0.094028  0.091004  0  1.031001  0
H  H24  1  0.97182007  0.24087706  0.07995629  1  0.08991  0  0.09629  0.100858  0  1.059682  0
H  H25  1  0.95603934  0.24734831  0.91908571  1  0.066999  0  0.092599  0.090426  0  1.032106  0
H  H26  1  0.04439531  0.47912129  0.14987944  1  0.090517  0  0.105873  0.110804  0  1.001659  0
H  H27  1  0.04127834  0.64952930  0.98159165  1  0.090078  0  0.109412  0.116536  0  0.985924  0
H  H28  1  0.58564623  0.13676057  0.34891621  1  0.077581  0  0.112177  0.12046  0  0.985261  0
H  H29  1  0.59667617  0.84989662  0.64255185  1  0.090882  0  0.111321  0.129594  0  0.998657  0
H  H30  1  0.41652430  0.12605840  0.35943783  1  0.127919  0  0.10843  0.114976  0  1.014293  0
C  C31  1  0.99091651  0.70583251  0.49478957  1  1.564065  0  0.237451  0.636065  0  4.099626  0
C  C32  1  0.30820271  0.99985659  0.20343247  1  1.570298  0  0.235234  0.648865  0  4.097191  0
C  C33  1  0.99805188  0.31088154  0.49259353  1  1.588679  0  0.236063  0.649957  0  4.09506  0
C  C34  1  0.69831671  0.99797590  0.80841305  1  1.531469  0  0.238494  0.642373  0  4.090237  0
C  C35  1  0.99563899  0.69777266  0.80793236  1  1.543595  0  0.239597  0.650308  0  4.085575  0
C  C36  1  0.69952771  0.99875597  0.49584648  1  1.557949  0  0.237659  0.6391  0  4.097387  0
C  C37  1  0.99947488  0.30477748  0.19922125  1  1.557674  0  0.238758  0.649147  0  4.084829  0
C  C38  1  0.30647998  0.98909712  0.50630145  1  1.585192  0  0.235938  0.649936  0  4.091011  0
C  C39  1  0.30480927  0.70049644  0.49603465  1  1.57423  0  0.235426  0.650058  0  4.092742  0
C  C40  1  0.98535584  0.99742594  0.81482712  1  1.589483  0  0.236889  0.652015  0  4.09181  0
C  C41  1  0.69975204  0.31035998  0.49796693  1  1.539845  0  0.239072  0.640233  0  4.092248  0
C  C42  1  0.99474718  0.99476891  0.20369923  1  1.553016  0  0.238269  0.637794  0  4.100409  0
C  C43  1  0.99715049  0.41688966  0.48348084  1  0.061858  0  -0.013708  -0.096536  0  3.904028  0
C  C44  1  0.98853306  0.60905072  0.48879123  1  0.009599  0  -0.008915  -0.010146  0  3.958867  0
C  C45  1  0.08185237  0.46431848  0.40763642  1  0.002363  0  0.026871  0.145365  0  3.992906  0
C  C46  1  0.90149041  0.56609813  0.56120187  1  -0.044417  0  -0.079291  -0.098343  0  3.97288  0
C  C47  1  0.07703095  0.55902270  0.41155633  1  0.046318  0  -0.085687  -0.164651  0  3.951769  0
C  C48  1  0.90691228  0.47131425  0.55789387  1  -0.098307  0  -0.075371  -0.078107  0  3.970341  0
C  C49  1  0.41056991  0.00221865  0.10351338  1  -0.048168  0  -0.014532  -0.096088  0  3.902911  0
C  C50  1  0.59952935  0.99680510  0.91162547  1  0.001146  0  -0.009419  -0.01271  0  3.96506  0
C  C51  1  0.46128646  0.08379156  0.05085928  1  0.076545  0  0.02671  0.147102  0  3.98987  0
C  C52  1  0.55129320  0.91449139  0.96347339  1  0.013312  0  -0.080511  -0.096073  0  3.967888  0
C  C53  1  0.55460644  0.08035767  0.95574979  1  0.032351  0  -0.088443  -0.165977  0  3.962814  0
C  C54  1  0.45826974  0.91817034  0.05785748  1  -0.031073  0  -0.076915  -0.075355  0  3.968236  0
C  C55  1  0.97755047  0.99415477  0.92144832  1  0.045841  0  -0.014636  -0.096637  0  3.90626  0
C  C56  1  0.98771488  0.98964415  0.10903642  1  -0.032472  0  -0.008478  -0.011753  0  3.962839  0
C  C57  1  0.88880635  0.06324533  0.98342338  1  0.004201  0  0.026297  0.139079  0  4.005459  0
C  C58  1  0.07379188  0.91653043  0.05203747  1  0.079761  0  -0.081031  -0.098686  0  3.971415  0
C  C59  1  0.89503621  0.06099489  0.07567899  1  0.0428  0  -0.08394  -0.164579  0  3.956196  0
C  C60  1  0.06793953  0.91983326  0.95961421  1  -0.060997  0  -0.076439  -0.075479  0  3.969133  0
C  C61  1  0.40761369  0.60107710  0.49059692  1  0.04868  0  -0.013862  -0.097271  0  3.901918  0
C  C62  1  0.59956057  0.41220160  0.49595244  1  -0.005312  0  -0.009566  -0.012471  0  3.963337  0
C  C63  1  0.45838318  0.54829253  0.41109976  1  0.028975  0  0.026788  0.146644  0  3.993025  0
C  C64  1  0.55052544  0.46355414  0.57520697  1  0.005767  0  -0.081072  -0.098479  0  3.970332  0
C  C65  1  0.55349391  0.45514802  0.41434665  1  0.041689  0  -0.085199  -0.162977  0  3.949167  0
C  C66  1  0.45630580  0.55654839  0.57147493  1  -0.035271  0  -0.075969  -0.07163  0  3.9633  0
C  C67  1  0.00004788  0.59238053  0.90414345  1  -0.039162  0  -0.007887  -0.073248  0  3.925101  0
C  C68  1  0.98250469  0.50322301  0.90846557  1  -0.004011  0  0.00125  0.063452  0  3.940312  0
C  C69  1  0.02446666  0.58196328  0.98869608  1  -0.016157  0  -0.081635  -0.093728  0  3.991859  0
C  C70  1  0.96993686  0.50498356  0.81826272  1  0.001645  0  -0.097564  -0.138094  0  3.98146  0
C  C71  1  0.96142869  0.41453559  0.82184483  1  -0.063042  0  -0.095885  -0.077819  0  4.037237  0
C  C72  1  0.00315966  0.40089396  0.09362301  1  -0.051014  0  -0.007168  -0.072661  0  3.920847  0
C  C73  1  0.02606617  0.48645035  0.08319734  1  0.003711  0  -0.081684  -0.091278  0  3.991723  0
C  C74  1  0.98412913  0.40530074  0.00531986  1  0.000182  0  0.001213  0.063066  0  3.936436  0
C  C75  1  0.97301834  0.31448779  0.00654193  1  -0.02853  0  -0.097196  -0.135042  0  3.97674  0
C  C76  1  0.96295061  0.31860396  0.91669778  1  -0.080203  0  -0.096546  -0.079859  0  4.036373  0
C  C77  1  0.41030126  0.98394320  0.50626283  1  -0.004558  0  -0.014375  -0.095528  0  3.899951  0
C  C78  1  0.60085425  0.99396148  0.49593342  1  0.014764  0  -0.009913  -0.013056  0  3.965267  0
C  C79  1  0.46288660  0.90465940  0.58619908  1  0.055415  0  0.025581  0.144876  0  3.997287  0
C  C80  1  0.55094317  0.07209957  0.41494377  1  0.041284  0  -0.080007  -0.095761  0  3.96559  0
C  C81  1  0.55702005  0.91045992  0.58033769  1  -0.013797  0  -0.087111  -0.164796  0  3.953874  0
C  C82  1  0.45732540  0.06615853  0.42093997  1  -0.044084  0  -0.075316  -0.072766  0  3.961012  0
Cl  Cl83  1  0.19630517  0.41262204  0.30677712  1  -0.176859  0  -0.000723  -0.066216  0  1.507752  0
Cl  Cl84  1  0.41567959  0.19251130  0.09512026  1  -0.186223  0  -0.00379  -0.067716  0  1.508535  0
Cl  Cl85  1  0.76796423  0.15364572  0.95362182  1  -0.187061  0  0.005403  -0.063486  0  1.5385  0
Cl  Cl86  1  0.41024100  0.58976629  0.30633326  1  -0.192871  0  -0.003434  -0.071834  0  1.501644  0
Cl  Cl87  1  0.41834225  0.79670903  0.69581313  1  -0.187767  0  -0.006832  -0.075408  0  1.490508  0
O  O88  1  0.91632910  0.74087751  0.57523480  1  -1.187047  0  -0.348985  -0.614218  0  2.281854  0
O  O89  1  0.26575352  0.07466580  0.24616176  1  -1.177563  0  -0.36313  -0.621748  0  2.384378  0
O  O90  1  0.07700137  0.26441557  0.42188775  1  -1.184267  0  -0.362904  -0.622368  0  2.380934  0
O  O91  1  0.73560078  0.92221527  0.76825487  1  -1.171903  0  -0.353531  -0.613824  0  2.272385  0
O  O92  1  0.07134034  0.73819725  0.77076496  1  -1.173299  0  -0.3574  -0.621936  0  2.268442  0
O  O93  1  0.73626614  0.07777248  0.42025614  1  -1.175978  0  -0.349592  -0.613009  0  2.261361  0
O  O94  1  0.92119710  0.26611114  0.24096250  1  -1.185635  0  -0.36  -0.620412  0  2.295538  0
O  O95  1  0.26171625  0.91621906  0.58383974  1  -1.181018  0  -0.36309  -0.625413  0  2.363232  0
O  O96  1  0.26218224  0.74270762  0.42110935  1  -1.17814  0  -0.365049  -0.62471  0  2.380436  0
O  O97  1  0.91613657  0.07875910  0.76772706  1  -1.180887  0  -0.361664  -0.624313  0  2.357698  0
O  O98  1  0.73755504  0.27078758  0.57610188  1  -1.172649  0  -0.353567  -0.617141  0  2.271414  0
O  O99  1  0.07581936  0.92209747  0.23797632  1  -1.180032  0  -0.350492  -0.612504  0  2.275983  0
O  O100  1  0.06354109  0.92038834  0.77657945  1  -1.183053  0  -0.347526  -0.612603  0  2.270821  0
O  O101  1  0.73893233  0.26936823  0.42241069  1  -1.181187  0  -0.35208  -0.611089  0  2.282137  0
O  O102  1  0.92007394  0.07340188  0.24142856  1  -1.185822  0  -0.351576  -0.616329  0  2.298226  0
O  O103  1  0.26575991  0.73572305  0.57582803  1  -1.181081  0  -0.344781  -0.610186  0  2.263935  0
O  O104  1  0.91764762  0.74032616  0.76917026  1  -1.184467  0  -0.351454  -0.615509  0  2.285865  0
O  O105  1  0.26856924  0.06787475  0.42934044  1  -1.181135  0  -0.345662  -0.607882  0  2.279798  0
O  O106  1  0.07379146  0.26833135  0.24057162  1  -1.169768  0  -0.347383  -0.611169  0  2.264516  0
O  O107  1  0.73842771  0.92361464  0.57355538  1  -1.181841  0  -0.356311  -0.616804  0  2.3005  0
O  O108  1  0.73699598  0.07579755  0.76719923  1  -1.178466  0  -0.353073  -0.614237  0  2.299382  0
O  O109  1  0.06925887  0.74399250  0.42059105  1  -1.186597  0  -0.35164  -0.609822  0  2.297901  0
O  O110  1  0.26869370  0.92414148  0.23849588  1  -1.176888  0  -0.348419  -0.614074  0  2.26735  0
O  O111  1  0.92096436  0.27295797  0.57173754  1  -1.184235  0  -0.347459  -0.614283  0  2.259737  0
O  O112  1  0.79681266  0.07014618  0.56827182  1  -1.229756  0  -0.694578  -1.070555  0  2.363676  0
O  O113  1  0.06564243  0.06753503  0.57183029  1  -1.239631  0  -0.692536  -1.066592  0  2.35214  0
O  O114  1  0.06761961  0.06836263  0.30042068  1  -1.250845  0  -0.695843  -1.070001  0  2.369697  0
O  O115  1  0.06434105  0.79927881  0.57005233  1  -1.237259  0  -0.693542  -1.068298  0  2.36525  0
O  O116  1  0.14719079  0.95043173  0.45485829  1  -1.195963  0  -0.790674  -1.147846  0  2.128705  0
O  O117  1  0.94917035  0.95244003  0.45190526  1  -1.201179  0  -0.790303  -1.149384  0  2.123511  0
O  O118  1  0.95033812  0.15003921  0.45254779  1  -1.200774  0  -0.791579  -1.149374  0  2.131157  0
O  O119  1  0.94766414  0.95255533  0.65127882  1  -1.198208  0  -0.789884  -1.147359  0  2.12654  0
