# generated using pymatgen
data_Zn4H4C24S4Cl4O13
_symmetry_space_group_name_H-M   'P 1'
_cell_length_a   19.65387332
_cell_length_b   19.72646786
_cell_length_c   33.34238812
_cell_angle_alpha   79.08070867
_cell_angle_beta   79.28435083
_cell_angle_gamma   64.02159279
_symmetry_Int_Tables_number   1
_chemical_formula_structural   Zn4H4C24S4Cl4O13
_chemical_formula_sum   'Zn16 H16 C96 S16 Cl16 O52'
_cell_volume   11332.46600090
_cell_formula_units_Z   4
loop_
 _symmetry_equiv_pos_site_id
 _symmetry_equiv_pos_as_xyz
  1  'x, y, z'
loop_
 _atom_site_type_symbol
 _atom_site_label
 _atom_site_symmetry_multiplicity
 _atom_site_fract_x
 _atom_site_fract_y
 _atom_site_fract_z
 _atom_site_occupancy
 _atom_site_pbe_bader_charge
 _atom_site_pbe_bader_spin_density
 _atom_site_pbe_cm5_charge
 _atom_site_pbe_ddec_charge
 _atom_site_pbe_ddec_spin_density
 _atom_site_pbe_ddec_sum_bond_order
 _atom_site_pbe_magmom
Zn  Zn0  1  0.05617520  0.40049686  0.47817913  1  1.317045  0  0.671904  0.97086  0  2.343649  0
Zn  Zn1  1  0.98473434  0.48374826  0.55986664  1  1.325735  0  0.673252  0.964974  0  2.385542  0
Zn  Zn2  1  0.05873041  0.56182214  0.48331904  1  1.318738  0  0.673051  0.969486  0  2.362076  0
Zn  Zn3  1  0.90045015  0.55364680  0.47878366  1  1.318299  0  0.673017  0.969242  0  2.360287  0
Zn  Zn4  1  0.69355819  0.34960596  0.27172055  1  1.318405  0  0.672199  0.971605  0  2.342054  0
Zn  Zn5  1  0.69097219  0.18842880  0.26656180  1  1.317953  0  0.673299  0.969619  0  2.362474  0
Zn  Zn6  1  0.76790276  0.26511252  0.18961274  1  1.318737  0  0.673159  0.969993  0  2.360251  0
Zn  Zn7  1  0.84735312  0.19703630  0.27230971  1  1.317977  0  0.673223  0.964927  0  2.386236  0
Zn  Zn8  1  0.26524027  0.76613190  0.69022608  1  1.327539  0  0.67317  0.964544  0  2.38803  0
Zn  Zn9  1  0.34941959  0.69644388  0.77128240  1  1.317899  0  0.673387  0.969802  0  2.360972  0
Zn  Zn10  1  0.19367601  0.84950246  0.77192828  1  1.317872  0  0.672161  0.97143  0  2.343547  0
Zn  Zn11  1  0.19111177  0.68824235  0.76672645  1  1.318889  0  0.673013  0.969655  0  2.361892  0
Zn  Zn12  1  0.55884879  0.06166657  0.98346567  1  1.319003  0  0.67296  0.968507  0  2.36406  0
Zn  Zn13  1  0.40261430  0.05302696  0.97771508  1  1.317778  0  0.673115  0.964569  0  2.38601  0
Zn  Zn14  1  0.55637764  0.90028766  0.97838568  1  1.319522  0  0.671972  0.970949  0  2.343654  0
Zn  Zn15  1  0.48225797  0.98471457  0.06041793  1  1.317513  0  0.673266  0.970139  0  2.359804  0
H  H16  1  0.79638585  0.50199195  0.39905646  1  0.101016  0  0.110244  0.11606  0  0.992055  0
H  H17  1  0.95336985  0.24873706  0.35080161  1  0.095484  0  0.110019  0.116115  0  0.991874  0
H  H18  1  0.74765111  0.45433226  0.35070863  1  0.086665  0  0.110327  0.116436  0  0.990041  0
H  H19  1  0.00210269  0.29641315  0.39911187  1  0.096503  0  0.110268  0.116064  0  0.991516  0
H  H20  1  0.15248524  0.65261785  0.54926955  1  0.087841  0  0.110495  0.117097  0  0.990412  0
H  H21  1  0.09759123  0.59735154  0.70072536  1  0.087953  0  0.110527  0.117063  0  0.990546  0
H  H22  1  0.20083115  0.70050363  0.59771953  1  0.094611  0  0.110322  0.11625  0  0.992026  0
H  H23  1  0.04924703  0.54945779  0.65227876  1  0.094606  0  0.110105  0.115967  0  0.992727  0
H  H24  1  0.70089222  0.20038825  0.09756167  1  0.095956  0  0.110073  0.115939  0  0.991506  0
H  H25  1  0.54917352  0.04957561  0.15244439  1  0.095904  0  0.110191  0.115965  0  0.991997  0
H  H26  1  0.65220073  0.15258573  0.04926974  1  0.08606  0  0.110376  0.117093  0  0.991569  0
H  H27  1  0.59784734  0.09739681  0.20073919  1  0.086231  0  0.110463  0.117075  0  0.991586  0
H  H28  1  0.24803835  0.95382991  0.85072176  1  0.091639  0  0.110314  0.116419  0  0.990627  0
H  H29  1  0.50244288  0.79593413  0.89913594  1  0.081181  0  0.110368  0.116353  0  0.990935  0
H  H30  1  0.29675447  0.00150827  0.89906312  1  0.105351  0  0.110078  0.115669  0  0.99245  0
H  H31  1  0.45377938  0.74826238  0.85077754  1  0.090919  0  0.110097  0.116108  0  0.991562  0
C  C32  1  0.06162693  0.31636650  0.56155816  1  1.60379  0  0.216875  0.623351  0  4.209845  0
C  C33  1  0.06955338  0.56994628  0.56945896  1  1.534296  0  0.229552  0.603954  0  4.165844  0
C  C34  1  0.18360845  0.43977539  0.43881282  1  1.601658  0  0.215754  0.623667  0  4.209968  0
C  C35  1  0.93727540  0.68387188  0.43882175  1  1.584775  0  0.215755  0.621635  0  4.213451  0
C  C36  1  0.93058985  0.43015584  0.43061575  1  1.554398  0  0.229896  0.605321  0  4.165257  0
C  C37  1  0.81657803  0.56083572  0.56179645  1  1.590671  0  0.215921  0.621412  0  4.213734  0
C  C38  1  0.56620155  0.31030381  0.31125483  1  1.601013  0  0.215891  0.623646  0  4.210304  0
C  C39  1  0.68116007  0.17970517  0.18046405  1  1.548963  0  0.22929  0.603391  0  4.165602  0
C  C40  1  0.68936082  0.43306418  0.18827386  1  1.594234  0  0.215727  0.6239  0  4.209053  0
C  C41  1  0.93436062  0.18831110  0.18922234  1  1.559906  0  0.216573  0.623086  0  4.209157  0
C  C42  1  0.81878874  0.32044436  0.31955497  1  1.562813  0  0.229623  0.604254  0  4.165533  0
C  C43  1  0.81208845  0.06626717  0.31140655  1  1.581796  0  0.216318  0.622098  0  4.211606  0
C  C44  1  0.43329112  0.68929798  0.68827458  1  1.587776  0  0.215616  0.62146  0  4.212459  0
C  C45  1  0.31939347  0.82009716  0.81930699  1  1.552238  0  0.229625  0.604067  0  4.165108  0
C  C46  1  0.18866036  0.93340954  0.68846900  1  1.601675  0  0.216573  0.623272  0  4.210593  0
C  C47  1  0.06615737  0.81031209  0.81123930  1  1.600682  0  0.215708  0.623623  0  4.209625  0
C  C48  1  0.18056355  0.67992047  0.68055449  1  1.538374  0  0.229215  0.603555  0  4.166722  0
C  C49  1  0.31265096  0.56617085  0.81114206  1  1.583199  0  0.215969  0.621532  0  4.211974  0
C  C50  1  0.43773658  0.18381181  0.93859198  1  1.582068  0  0.216113  0.621104  0  4.212505  0
C  C51  1  0.43119571  0.92975541  0.93038575  1  1.558949  0  0.229424  0.604135  0  4.166396  0
C  C52  1  0.68354237  0.93981500  0.93875996  1  1.598588  0  0.21581  0.623055  0  4.211026  0
C  C53  1  0.56098162  0.81669365  0.06178436  1  1.590906  0  0.215648  0.623985  0  4.209451  0
C  C54  1  0.56895981  0.07016173  0.06955725  1  1.544951  0  0.229174  0.603429  0  4.165494  0
C  C55  1  0.31580244  0.06157388  0.06086101  1  1.564216  0  0.216571  0.623984  0  4.207937  0
C  C56  1  0.90192377  0.40183904  0.40177605  1  -0.049933  0  -0.011869  -0.030106  0  3.964934  0
C  C57  1  0.84777031  0.34893436  0.34812341  1  -0.062519  0  -0.012546  -0.031609  0  3.965354  0
C  C58  1  0.83015029  0.44669878  0.38825315  1  -0.00859  0  -0.078792  -0.090515  0  3.96363  0
C  C59  1  0.91959858  0.30404911  0.36159940  1  0.00887  0  -0.078208  -0.089118  0  3.961239  0
C  C60  1  0.80320915  0.42038507  0.36155470  1  -0.019711  0  -0.077991  -0.088942  0  3.962379  0
C  C61  1  0.94654541  0.33039504  0.38829492  1  -0.010674  0  -0.078289  -0.089742  0  3.963791  0
C  C62  1  0.09826413  0.59843727  0.59813448  1  -0.039568  0  -0.011826  -0.029295  0  3.966429  0
C  C63  1  0.15187219  0.65145507  0.65186179  1  -0.0439  0  -0.011956  -0.029626  0  3.967069  0
C  C64  1  0.14091322  0.64096944  0.58247096  1  0.003038  0  -0.078217  -0.090228  0  3.965876  0
C  C65  1  0.10919345  0.60896155  0.66752668  1  0.003306  0  -0.078302  -0.089975  0  3.96614  0
C  C66  1  0.16762064  0.66737386  0.60922521  1  -0.018981  0  -0.078268  -0.089798  0  3.96602  0
C  C67  1  0.08248888  0.58254353  0.64077630  1  -0.019351  0  -0.078262  -0.090001  0  3.966146  0
C  C68  1  0.30497020  0.45442329  0.40070148  1  0.170027  0  0.010652  0.104659  0  4.077152  0
C  C69  1  0.44476191  0.29569643  0.34927148  1  0.173633  0  0.010521  0.104985  0  4.077523  0
C  C70  1  0.25843800  0.41583486  0.41390773  1  -0.133429  0  -0.028089  -0.185519  0  3.92811  0
C  C71  1  0.49132595  0.33426709  0.33610752  1  -0.132283  0  -0.028126  -0.185671  0  3.928303  0
C  C72  1  0.37679444  0.33955455  0.37281745  1  -0.125122  0  -0.027522  -0.072566  0  4.096093  0
C  C73  1  0.37291441  0.41058306  0.37710478  1  -0.133938  0  -0.028176  -0.073395  0  4.095814  0
C  C74  1  0.72556047  0.57599206  0.62981933  1  0.168789  0  0.011328  0.106408  0  4.076704  0
C  C75  1  0.52422321  0.67408891  0.62026727  1  0.172224  0  0.010694  0.105027  0  4.07724  0
C  C76  1  0.74231992  0.58539365  0.58718562  1  -0.134604  0  -0.028187  -0.185444  0  3.927774  0
C  C77  1  0.50754695  0.66469964  0.66289606  1  -0.136387  0  -0.02794  -0.184272  0  3.929083  0
C  C78  1  0.60380379  0.64171995  0.60821021  1  -0.114129  0  -0.027778  -0.073553  0  4.097931  0
C  C79  1  0.64600271  0.60838417  0.64185881  1  -0.109087  0  -0.027935  -0.073631  0  4.098785  0
C  C80  1  0.07629591  0.22517773  0.62966445  1  0.151631  0  0.010151  0.104909  0  4.07631  0
C  C81  1  0.17387193  0.02452482  0.62036397  1  0.220664  0  0.010959  0.105138  0  4.076475  0
C  C82  1  0.08574337  0.24215864  0.58702407  1  -0.065887  0  -0.028042  -0.185111  0  3.926869  0
C  C83  1  0.16449281  0.00761345  0.66300138  1  -0.134886  0  -0.027833  -0.184203  0  3.928023  0
C  C84  1  0.14163644  0.10393662  0.60821516  1  -0.16568  0  -0.02741  -0.07277  0  4.095311  0
C  C85  1  0.10847729  0.14578390  0.64180543  1  -0.158357  0  -0.027797  -0.073747  0  4.097976  0
C  C86  1  0.84300351  0.80141514  0.39706512  1  0.113781  0  0.010673  0.104291  0  4.077641  0
C  C87  1  0.90663089  0.94854803  0.35283992  1  0.112552  0  0.010735  0.104792  0  4.077336  0
C  C88  1  0.91155148  0.75846351  0.41373477  1  -0.098862  0  -0.028124  -0.184218  0  3.92721  0
C  C89  1  0.83799735  0.99146555  0.33624260  1  -0.08839  0  -0.028614  -0.185259  0  3.930228  0
C  C90  1  0.90847703  0.87915276  0.37500198  1  -0.109929  0  -0.02795  -0.073668  0  4.09823  0
C  C91  1  0.84129601  0.87069610  0.37482230  1  -0.110367  0  -0.027593  -0.072555  0  4.097291  0
C  C92  1  0.65213416  0.15141396  0.15180192  1  0.02593  0  -0.012529  -0.029792  0  3.965346  0
C  C93  1  0.59800113  0.09846214  0.09820231  1  0.023294  0  -0.012341  -0.02988  0  3.966126  0
C  C94  1  0.66768099  0.16728127  0.10914772  1  -0.026384  0  -0.077668  -0.088498  0  3.964891  0
C  C95  1  0.58243434  0.08262787  0.14086076  1  -0.018634  0  -0.077843  -0.088813  0  3.966741  0
C  C96  1  0.64072899  0.14092132  0.08247288  1  -0.065089  0  -0.078617  -0.091758  0  3.967209  0
C  C97  1  0.60935670  0.10900892  0.16753710  1  -0.065306  0  -0.078636  -0.091328  0  3.96778  0
C  C98  1  0.67392190  0.52457372  0.12022942  1  0.171424  0  0.010862  0.105523  0  4.076297  0
C  C99  1  0.57621149  0.72512423  0.12982759  1  0.144227  0  0.010634  0.104893  0  4.07771  0
C  C100  1  0.66477194  0.50738958  0.16285177  1  -0.136995  0  -0.028338  -0.186542  0  3.928442  0
C  C101  1  0.58541155  0.74237674  0.08720317  1  -0.06533  0  -0.028565  -0.185958  0  3.92643  0
C  C102  1  0.60853723  0.64568568  0.14185651  1  -0.154089  0  -0.027455  -0.072692  0  4.097241  0
C  C103  1  0.64159503  0.60402934  0.10819006  1  -0.119478  0  -0.027585  -0.073233  0  4.095645  0
C  C104  1  0.08191379  0.12374523  0.17779409  1  0.102149  0  0.01113  0.105996  0  4.07517  0
C  C105  1  0.16829740  0.12598288  0.07233926  1  0.127506  0  0.011294  0.107118  0  4.07546  0
C  C106  1  0.00961229  0.16282723  0.16483175  1  -0.080503  0  -0.028031  -0.184834  0  3.927544  0
C  C107  1  0.24059379  0.08690929  0.08529134  1  -0.100893  0  -0.028269  -0.186007  0  3.929495  0
C  C108  1  0.11043517  0.13937307  0.10609627  1  -0.167414  0  -0.027924  -0.073795  0  4.09719  0
C  C109  1  0.13978575  0.11029021  0.14402661  1  -0.168242  0  -0.028181  -0.073172  0  4.097338  0
C  C110  1  0.34823521  0.84847588  0.84803311  1  -0.044239  0  -0.011316  -0.029552  0  3.964929  0
C  C111  1  0.40234589  0.90133460  0.90172537  1  -0.040015  0  -0.011932  -0.030148  0  3.965408  0
C  C112  1  0.30361013  0.91987831  0.86153654  1  -0.017755  0  -0.078383  -0.090213  0  3.963734  0
C  C113  1  0.44691619  0.82989469  0.88827543  1  0.002258  0  -0.078778  -0.090546  0  3.964054  0
C  C114  1  0.33052161  0.94621508  0.88825038  1  -0.011939  0  -0.078959  -0.089476  0  3.961119  0
C  C115  1  0.42001042  0.80358246  0.86155021  1  -0.015234  0  -0.078569  -0.089879  0  3.961598  0
C  C116  1  0.40694739  0.44863047  0.85287504  1  0.115171  0  0.010523  0.103714  0  4.078805  0
C  C117  1  0.34328527  0.30151112  0.89709022  1  0.111009  0  0.010855  0.10449  0  4.077347  0
C  C118  1  0.33839946  0.49154093  0.83619278  1  -0.100075  0  -0.027842  -0.18372  0  3.927336  0
C  C119  1  0.41190799  0.25854181  0.91369554  1  -0.086332  0  -0.027987  -0.183913  0  3.928549  0
C  C120  1  0.34152181  0.37085208  0.87489847  1  -0.107813  0  -0.028027  -0.073406  0  4.097917  0
C  C121  1  0.40870910  0.37929990  0.87508264  1  -0.111101  0  -0.02753  -0.072637  0  4.098268  0
C  C122  1  0.94473335  0.79569931  0.84927136  1  0.171945  0  0.010457  0.104714  0  4.077452  0
C  C123  1  0.80493026  0.95444240  0.90068431  1  0.169436  0  0.010625  0.1046  0  4.077049  0
C  C124  1  0.99129398  0.83427353  0.83609808  1  -0.131956  0  -0.028285  -0.185531  0  3.928168  0
C  C125  1  0.75839750  0.91585529  0.91388388  1  -0.130381  0  -0.028095  -0.185349  0  3.927152  0
C  C126  1  0.87288414  0.91059341  0.87709742  1  -0.133187  0  -0.028188  -0.073494  0  4.095883  0
C  C127  1  0.87676815  0.83956114  0.87281368  1  -0.124237  0  -0.027612  -0.072611  0  4.096256  0
S  S128  1  0.29786225  0.32611334  0.39745335  1  0.311444  0  0.093914  0.159513  0  2.770803  0
S  S129  1  0.45185846  0.42402199  0.35251644  1  0.313494  0  0.09411  0.159827  0  2.771195  0
S  S130  1  0.66082211  0.63373697  0.56197132  1  0.305662  0  0.094659  0.160751  0  2.772809  0
S  S131  1  0.58902597  0.61636990  0.68810251  1  0.30552  0  0.094692  0.160619  0  2.773412  0
S  S132  1  0.13377790  0.16108054  0.56192137  1  0.303091  0  0.094423  0.160448  0  2.770479  0
S  S133  1  0.11639278  0.08866934  0.68810428  1  0.304734  0  0.09439  0.160206  0  2.771499  0
S  S134  1  0.97368934  0.80288936  0.40216909  1  0.310226  0  0.094503  0.160472  0  2.772373  0
S  S135  1  0.77598560  0.94695862  0.34771175  1  0.308164  0  0.094956  0.160977  0  2.773095  0
S  S136  1  0.61666375  0.58831466  0.18808319  1  0.306446  0  0.094334  0.16054  0  2.77246  0
S  S137  1  0.63349470  0.66143691  0.06196197  1  0.303829  0  0.094118  0.15996  0  2.770953  0
S  S138  1  0.01257320  0.18299758  0.11146717  1  0.358673  0  0.094512  0.160063  0  2.771347  0
S  S139  1  0.23764316  0.06669035  0.13864992  1  0.352163  0  0.094522  0.160163  0  2.773063  0
S  S140  1  0.27631412  0.44708387  0.84770581  1  0.309442  0  0.094543  0.160568  0  2.772544  0
S  S141  1  0.47397048  0.30301845  0.90221043  1  0.309686  0  0.094573  0.160423  0  2.772065  0
S  S142  1  0.95182935  0.92402622  0.85250543  1  0.313539  0  0.094224  0.159933  0  2.771104  0
S  S143  1  0.79783370  0.82612040  0.89744527  1  0.311085  0  0.093947  0.159482  0  2.770334  0
Cl  Cl144  1  0.28668938  0.54307354  0.41038458  1  -0.158035  0  0.010223  -0.026689  0  1.490117  0
Cl  Cl145  1  0.46305929  0.20705079  0.33956959  1  -0.15787  0  0.01044  -0.026697  0  1.489555  0
Cl  Cl146  1  0.78928438  0.53181779  0.66504794  1  -0.161199  0  0.010269  -0.027066  0  1.494188  0
Cl  Cl147  1  0.46054211  0.71819555  0.58501203  1  -0.164856  0  0.010706  -0.026367  0  1.49414  0
Cl  Cl148  1  0.03228864  0.28845623  0.66482086  1  -0.159937  0  0.010504  -0.026872  0  1.494225  0
Cl  Cl149  1  0.21779358  0.96125520  0.58520247  1  -0.161704  0  0.010179  -0.027105  0  1.494407  0
Cl  Cl150  1  0.76806341  0.77761999  0.40141243  1  -0.152695  0  0.01061  -0.02633  0  1.489523  0
Cl  Cl151  1  0.98155225  0.97238020  0.34845670  1  -0.152356  0  0.010463  -0.026622  0  1.49376  0
Cl  Cl152  1  0.71765580  0.46146203  0.08498232  1  -0.160684  0  0.010082  -0.026992  0  1.489911  0
Cl  Cl153  1  0.53244055  0.78825086  0.16507195  1  -0.161583  0  0.009961  -0.027079  0  1.490247  0
Cl  Cl154  1  0.10293908  0.09381592  0.22726163  1  -0.150507  0  0.010567  -0.026954  0  1.493998  0
Cl  Cl155  1  0.14732053  0.15598652  0.02285809  1  -0.151369  0  0.010484  -0.02721  0  1.493902  0
Cl  Cl156  1  0.48191203  0.47238713  0.84851638  1  -0.154639  0  0.010656  -0.026158  0  1.489988  0
Cl  Cl157  1  0.26834221  0.27769965  0.90149631  1  -0.153832  0  0.010271  -0.026756  0  1.493606  0
Cl  Cl158  1  0.96304837  0.70704522  0.83957598  1  -0.15797  0  0.010479  -0.026651  0  1.48963  0
Cl  Cl159  1  0.78664390  0.04308507  0.91038010  1  -0.158284  0  0.010215  -0.02664  0  1.490351  0
O  O160  1  0.00046635  0.49944719  0.49952799  1  -1.237115  0  -0.570074  -1.029422  0  2.519697  0
O  O161  1  0.07850930  0.31463363  0.52261679  1  -1.174208  0  -0.319267  -0.544823  0  2.31743  0
O  O162  1  0.03165139  0.53106296  0.58579375  1  -1.151626  0  -0.313684  -0.543775  0  2.343049  0
O  O163  1  0.15491449  0.50553509  0.45048489  1  -1.169802  0  -0.314276  -0.540315  0  2.371488  0
O  O164  1  0.02650258  0.37517066  0.58022159  1  -1.171315  0  -0.314628  -0.53832  0  2.373831  0
O  O165  1  0.15429736  0.39135525  0.44639295  1  -1.176417  0  -0.319033  -0.544016  0  2.319321  0
O  O166  1  0.08509728  0.58665556  0.53097993  1  -1.174391  0  -0.31345  -0.54587  0  2.33935  0
O  O167  1  0.00407972  0.65829769  0.44992826  1  -1.16717  0  -0.319057  -0.542912  0  2.322937  0
O  O168  1  0.88667944  0.49535832  0.44193206  1  -1.170846  0  -0.314343  -0.545796  0  2.341639  0
O  O169  1  0.89179374  0.65161655  0.44729498  1  -1.162867  0  -0.313679  -0.539535  0  2.369402  0
O  O170  1  0.99649345  0.38690838  0.44164157  1  -1.16899  0  -0.313756  -0.546691  0  2.336822  0
O  O171  1  0.87582979  0.52600551  0.58042882  1  -1.159084  0  -0.313454  -0.537103  0  2.373385  0
O  O172  1  0.81442000  0.57709888  0.52281630  1  -1.172602  0  -0.318672  -0.542701  0  2.321615  0
O  O173  1  0.74897076  0.25099638  0.25000537  1  -1.230092  0  -0.570095  -1.029811  0  2.520184  0
O  O174  1  0.59550698  0.35873370  0.30365655  1  -1.176942  0  -0.3193  -0.544719  0  2.318687  0
O  O175  1  0.66510103  0.16331479  0.21893354  1  -1.173668  0  -0.313143  -0.544523  0  2.341746  0
O  O176  1  0.72505989  0.37421583  0.16969154  1  -1.16468  0  -0.313803  -0.539867  0  2.370696  0
O  O177  1  0.59498374  0.24449604  0.29963728  1  -1.167657  0  -0.314157  -0.539979  0  2.370769  0
O  O178  1  0.67214397  0.43499226  0.22719882  1  -1.173187  0  -0.319324  -0.544547  0  2.319267  0
O  O179  1  0.71972420  0.21795656  0.16420385  1  -1.158206  0  -0.314108  -0.546046  0  2.339279  0
O  O180  1  0.87700796  0.22309206  0.16863329  1  -1.163957  0  -0.319198  -0.543705  0  2.318634  0
O  O181  1  0.86245297  0.25484451  0.30866336  1  -1.174679  0  -0.313797  -0.543329  0  2.346208  0
O  O182  1  0.93264273  0.17387313  0.22816706  1  -1.133103  0  -0.313679  -0.538127  0  2.372137  0
O  O183  1  0.75304675  0.36361120  0.30834056  1  -1.172613  0  -0.313586  -0.546691  0  2.335704  0
O  O184  1  0.74554709  0.09179565  0.29999834  1  -1.167057  0  -0.318618  -0.543042  0  2.321555  0
O  O185  1  0.85730237  0.09884128  0.30347029  1  -1.157418  0  -0.314133  -0.538051  0  2.37222  0
O  O186  1  0.24938830  0.75058593  0.75056158  1  -1.239049  0  -0.570295  -1.030017  0  2.521035  0
O  O187  1  0.37407134  0.72407850  0.66961359  1  -1.158394  0  -0.313425  -0.537218  0  2.374312  0
O  O188  1  0.36324686  0.75484384  0.80802847  1  -1.171154  0  -0.314233  -0.545153  0  2.340646  0
O  O189  1  0.17198250  0.93516548  0.72741339  1  -1.173952  0  -0.319115  -0.544796  0  2.317902  0
O  O190  1  0.43541552  0.67308133  0.72725329  1  -1.172224  0  -0.318478  -0.543114  0  2.321786  0
O  O191  1  0.22356367  0.87462125  0.66979378  1  -1.172361  0  -0.314404  -0.538057  0  2.375952  0
O  O192  1  0.25341340  0.86324518  0.80837344  1  -1.169754  0  -0.313671  -0.546186  0  2.337014  0
O  O193  1  0.09546562  0.85874119  0.80365550  1  -1.176341  0  -0.319353  -0.544606  0  2.31921  0
O  O194  1  0.16502420  0.66319947  0.71903549  1  -1.174786  0  -0.313223  -0.545742  0  2.339177  0
O  O195  1  0.09492308  0.74452437  0.79958865  1  -1.167648  0  -0.31398  -0.540246  0  2.36958  0
O  O196  1  0.21843076  0.71883680  0.66422404  1  -1.150905  0  -0.313347  -0.543242  0  2.344467  0
O  O197  1  0.35809599  0.59848818  0.80274850  1  -1.162198  0  -0.313459  -0.539349  0  2.369406  0
O  O198  1  0.24586522  0.59171453  0.80002068  1  -1.166275  0  -0.319594  -0.543144  0  2.322721  0
O  O199  1  0.50097854  0.99896935  0.00002458  1  -1.229825  0  -0.569914  -1.029144  0  2.520611  0
O  O200  1  0.50431902  0.15823441  0.94998071  1  -1.165361  0  -0.318911  -0.542861  0  2.320793  0
O  O201  1  0.38752464  0.99534262  0.94127918  1  -1.172886  0  -0.313744  -0.543176  0  2.345905  0
O  O202  1  0.65427794  0.89136066  0.94637537  1  -1.176334  0  -0.318769  -0.543515  0  2.320104  0
O  O203  1  0.39245642  0.15132039  0.94659805  1  -1.158236  0  -0.313529  -0.537142  0  2.373137  0
O  O204  1  0.65478032  0.00563828  0.95035970  1  -1.170306  0  -0.314206  -0.539652  0  2.3716  0
O  O205  1  0.49687548  0.88650493  0.94168228  1  -1.172248  0  -0.313296  -0.546758  0  2.336079  0
O  O206  1  0.57828280  0.81477791  0.02285586  1  -1.172671  0  -0.318825  -0.544469  0  2.319547  0
O  O207  1  0.53029421  0.03201750  0.08582900  1  -1.158427  0  -0.314209  -0.546165  0  2.339011  0
O  O208  1  0.52526606  0.87556658  0.08034778  1  -1.160626  0  -0.314177  -0.540536  0  2.369799  0
O  O209  1  0.58506388  0.08647970  0.03108809  1  -1.174144  0  -0.312992  -0.544073  0  2.341143  0
O  O210  1  0.31744168  0.07605282  0.02192210  1  -1.132103  0  -0.31377  -0.538377  0  2.371808  0
O  O211  1  0.37320015  0.02683945  0.08141373  1  -1.166214  0  -0.319299  -0.544134  0  2.319525  0
