# generated using pymatgen
data_CdH28C20(N5O3)2
_symmetry_space_group_name_H-M   'P 1'
_cell_length_a   8.13192810
_cell_length_b   9.03875404
_cell_length_c   17.65721632
_cell_angle_alpha   89.99981079
_cell_angle_beta   89.99984449
_cell_angle_gamma   110.85489306
_symmetry_Int_Tables_number   1
_chemical_formula_structural   CdH28C20(N5O3)2
_chemical_formula_sum   'Cd2 H56 C40 N20 O12'
_cell_volume   1212.82093773
_cell_formula_units_Z   2
loop_
 _symmetry_equiv_pos_site_id
 _symmetry_equiv_pos_as_xyz
  1  'x, y, z'
loop_
 _atom_site_type_symbol
 _atom_site_label
 _atom_site_symmetry_multiplicity
 _atom_site_fract_x
 _atom_site_fract_y
 _atom_site_fract_z
 _atom_site_occupancy
 _atom_site_hle17_bader_spin_density
 _atom_site_hle17_ddec_charge
 _atom_site_hle17_ddec_spin_density
 _atom_site_hle17_ddec_sum_bond_order
 _atom_site_hle17_magmom
 _atom_site_hse06_10hf_bader_spin_density
 _atom_site_hse06_10hf_ddec_charge
 _atom_site_hse06_10hf_ddec_spin_density
 _atom_site_hse06_10hf_ddec_sum_bond_order
 _atom_site_hse06_10hf_magmom
 _atom_site_hse06_bader_spin_density
 _atom_site_hse06_ddec_charge
 _atom_site_hse06_ddec_spin_density
 _atom_site_hse06_ddec_sum_bond_order
 _atom_site_hse06_magmom
 _atom_site_pbe_bader_spin_density
 _atom_site_pbe_cm5_charge
 _atom_site_pbe_ddec_charge
 _atom_site_pbe_ddec_spin_density
 _atom_site_pbe_ddec_sum_bond_order
 _atom_site_pbe_magmom
Cd  Cd0  1  0.99999930  0.50000056  0.49999962  1  0  1.054805  0  1.755536  0  0  0.84897  0  2.200868  0  0  0.900708  0  2.15812  0  0  0.785714  0.812255  0  2.23022  0
Cd  Cd1  1  0.99999826  0.99999655  0.00000250  1  0  1.054876  0  1.755502  0  0  0.84904  0  2.200823  0  0  0.900777  0  2.158076  0  0  0.785725  0.812323  0  2.230163  0
H  H2  1  0.68399958  0.59478633  0.60150838  1  0  0.100167  0  0.963349  0  0  0.102075  0  1.039569  0  0  0.104717  0  1.036247  0  0  0.132081  0.100225  0  1.041903  0
H  H3  1  0.31599573  0.90521349  0.10151108  1  0  0.10014  0  0.963389  0  0  0.102067  0  1.039579  0  0  0.104711  0  1.036252  0  0  0.132064  0.100217  0  1.041915  0
H  H4  1  0.31599841  0.40522320  0.39849036  1  0  0.100094  0  0.963416  0  0  0.10202  0  1.039611  0  0  0.104661  0  1.03629  0  0  0.132053  0.100173  0  1.041944  0
H  H5  1  0.68400166  0.09477591  0.89848936  1  0  0.100123  0  0.963384  0  0  0.102046  0  1.03958  0  0  0.10469  0  1.036257  0  0  0.132075  0.100199  0  1.041912  0
H  H6  1  0.17394288  0.60109027  0.68328886  1  0  0.108425  0  0.983002  0  0  0.116073  0  1.04684  0  0  0.118928  0  1.045031  0  0  0.111439  0.113941  0  1.048313  0
H  H7  1  0.82605088  0.89890995  0.18329489  1  0  0.108445  0  0.982819  0  0  0.116042  0  1.046729  0  0  0.118893  0  1.044926  0  0  0.111405  0.113903  0  1.048206  0
H  H8  1  0.82605510  0.39891926  0.31670819  1  0  0.108391  0  0.98304  0  0  0.116079  0  1.046832  0  0  0.118898  0  1.045065  0  0  0.111413  0.113945  0  1.048311  0
H  H9  1  0.17394781  0.10108892  0.81671008  1  0  0.108373  0  0.983079  0  0  0.116037  0  1.046889  0  0  0.11889  0  1.045083  0  0  0.111433  0.113904  0  1.048357  0
H  H10  1  0.01151335  0.72612655  0.79414041  1  0  0.115221  0  0.986347  0  0  0.121802  0  1.052289  0  0  0.124061  0  1.052198  0  0  0.120001  0.120138  0  1.052569  0
H  H11  1  0.98848689  0.77387616  0.29414702  1  0  0.115203  0  0.986336  0  0  0.121803  0  1.052273  0  0  0.124058  0  1.052193  0  0  0.120009  0.120134  0  1.052554  0
H  H12  1  0.98848428  0.27387588  0.20585833  1  0  0.115245  0  0.986322  0  0  0.121861  0  1.05223  0  0  0.124119  0  1.05214  0  0  0.12005  0.12019  0  1.05252  0
H  H13  1  0.01152088  0.22612390  0.70585908  1  0  0.115226  0  0.986376  0  0  0.121816  0  1.052305  0  0  0.124074  0  1.052213  0  0  0.120016  0.120149  0  1.052592  0
H  H14  1  0.30819937  0.85218621  0.92972548  1  0  0.097003  0  0.975689  0  0  0.10194  0  1.046738  0  0  0.104859  0  1.042909  0  0  0.12851  0.099703  0  1.04956  0
H  H15  1  0.69179769  0.64781047  0.42972191  1  0  0.096931  0  0.975732  0  0  0.101878  0  1.046772  0  0  0.104796  0  1.042944  0  0  0.128462  0.099631  0  1.049613  0
H  H16  1  0.69179791  0.14780912  0.07027666  1  0  0.09695  0  0.975743  0  0  0.101897  0  1.046781  0  0  0.104815  0  1.042953  0  0  0.128475  0.099654  0  1.049617  0
H  H17  1  0.30820592  0.35218840  0.57027626  1  0  0.096996  0  0.975681  0  0  0.101888  0  1.04679  0  0  0.104807  0  1.042962  0  0  0.128465  0.099645  0  1.049622  0
H  H18  1  0.76269746  0.61079454  0.95359553  1  0  0.113609  0  0.966134  0  0  0.121631  0  1.029335  0  0  0.124637  0  1.026836  0  0  0.116781  0.119418  0  1.031294  0
H  H19  1  0.23729831  0.88920547  0.45359665  1  0  0.11359  0  0.966193  0  0  0.121655  0  1.029335  0  0  0.12466  0  1.026836  0  0  0.116792  0.119436  0  1.031302  0
H  H20  1  0.23729877  0.38920434  0.04640208  1  0  0.113603  0  0.966116  0  0  0.12165  0  1.029279  0  0  0.124655  0  1.02678  0  0  0.1168  0.119432  0  1.031249  0
H  H21  1  0.76270360  0.11079222  0.54640379  1  0  0.113602  0  0.966212  0  0  0.121681  0  1.029329  0  0  0.124685  0  1.026831  0  0  0.116785  0.11946  0  1.031298  0
H  H22  1  0.91306564  0.40109866  0.89691907  1  0  0.111345  0  0.980187  0  0  0.11795  0  1.048022  0  0  0.120295  0  1.047438  0  0  0.117676  0.116202  0  1.048506  0
H  H23  1  0.08692847  0.09890402  0.39692370  1  0  0.111381  0  0.980101  0  0  0.118033  0  1.047877  0  0  0.120379  0  1.047291  0  0  0.117706  0.116278  0  1.048359  0
H  H24  1  0.08692889  0.59889903  0.10307854  1  0  0.111368  0  0.980162  0  0  0.118007  0  1.047959  0  0  0.120352  0  1.047375  0  0  0.117689  0.116256  0  1.048442  0
H  H25  1  0.91307560  0.90109604  0.60307674  1  0  0.111406  0  0.980115  0  0  0.118054  0  1.04789  0  0  0.1204  0  1.047307  0  0  0.117703  0.116303  0  1.048371  0
H  H26  1  0.21273546  0.43909248  0.84500529  1  0  0.068481  0  0.938068  0  0  0.085178  0  1.00021  0  0  0.085478  0  1.001335  0  0  0.104756  0.084759  0  0.999722  0
H  H27  1  0.78726408  0.06091070  0.34500627  1  0  0.068505  0  0.938184  0  0  0.08521  0  1.000306  0  0  0.085509  0  1.001432  0  0  0.104815  0.084791  0  0.999813  0
H  H28  1  0.78726229  0.56090402  0.15499515  1  0  0.068467  0  0.938087  0  0  0.085176  0  1.000237  0  0  0.085476  0  1.00136  0  0  0.104758  0.084754  0  0.999744  0
H  H29  1  0.21273970  0.93909173  0.65499473  1  0  0.068459  0  0.93817  0  0  0.08517  0  1.000293  0  0  0.085471  0  1.001413  0  0  0.104788  0.084748  0  0.999801  0
H  H30  1  0.34595180  0.51321645  0.92654291  1  0  0.085116  0  0.931112  0  0  0.095885  0  1.001666  0  0  0.096987  0  1.000412  0  0  0.108782  0.095033  0  1.00251  0
H  H31  1  0.65404253  0.98678263  0.42654278  1  0  0.085071  0  0.931189  0  0  0.095848  0  1.00176  0  0  0.096949  0  1.000509  0  0  0.108764  0.094994  0  1.002603  0
H  H32  1  0.65404765  0.48678124  0.07345810  1  0  0.085089  0  0.931115  0  0  0.095868  0  1.001698  0  0  0.096967  0  1.000449  0  0  0.108776  0.095012  0  1.002545  0
H  H33  1  0.34595768  0.01321388  0.57345766  1  0  0.085103  0  0.931181  0  0  0.095873  0  1.001746  0  0  0.096951  0  1.000521  0  0  0.108783  0.095018  0  1.00259  0
H  H34  1  0.49865585  0.76814700  0.86522149  1  0  0.074353  0  0.944236  0  0  0.090346  0  1.00976  0  0  0.091169  0  1.009899  0  0  0.092734  0.089634  0  1.009808  0
H  H35  1  0.50134646  0.73185266  0.36521915  1  0  0.074411  0  0.94424  0  0  0.090353  0  1.009796  0  0  0.091175  0  1.009941  0  0  0.092748  0.089641  0  1.009852  0
H  H36  1  0.50134009  0.23185424  0.13477951  1  0  0.074391  0  0.944251  0  0  0.090345  0  1.009807  0  0  0.091169  0  1.00995  0  0  0.092714  0.08963  0  1.009864  0
H  H37  1  0.49865990  0.26814384  0.63477846  1  0  0.07438  0  0.944253  0  0  0.090379  0  1.00976  0  0  0.091204  0  1.009896  0  0  0.092741  0.089666  0  1.009813  0
H  H38  1  0.35468000  0.71608142  0.78623296  1  0  0.062759  0  0.941668  0  0  0.082314  0  1.002465  0  0  0.08274  0  1.003382  0  0  0.090663  0.081963  0  1.001888  0
H  H39  1  0.64532389  0.78392728  0.28623035  1  0  0.062757  0  0.941693  0  0  0.082313  0  1.00247  0  0  0.082739  0  1.003386  0  0  0.090656  0.081963  0  1.001893  0
H  H40  1  0.64531377  0.28391745  0.21376861  1  0  0.062762  0  0.941687  0  0  0.082346  0  1.00244  0  0  0.082776  0  1.003353  0  0  0.090676  0.081996  0  1.001862  0
H  H41  1  0.35468575  0.21607751  0.71376669  1  0  0.062797  0  0.94174  0  0  0.082325  0  1.002548  0  0  0.082744  0  1.003468  0  0  0.090681  0.081974  0  1.001972  0
H  H42  1  0.60890003  0.54848019  0.83226001  1  0  0.078236  0  0.946534  0  0  0.095072  0  1.010266  0  0  0.095787  0  1.011059  0  0  0.093328  0.094387  0  1.009998  0
H  H43  1  0.39110201  0.95152453  0.33226197  1  0  0.078259  0  0.946532  0  0  0.095095  0  1.010275  0  0  0.095807  0  1.011067  0  0  0.093326  0.094409  0  1.010008  0
H  H44  1  0.39110053  0.45152342  0.16773816  1  0  0.07822  0  0.946539  0  0  0.095051  0  1.010294  0  0  0.095766  0  1.011086  0  0  0.093309  0.094367  0  1.010025  0
H  H45  1  0.60889990  0.04847316  0.66773790  1  0  0.078201  0  0.946552  0  0  0.095051  0  1.010287  0  0  0.095765  0  1.011082  0  0  0.093299  0.094363  0  1.010022  0
H  H46  1  0.47113052  0.50443965  0.75102933  1  0  0.071919  0  0.932832  0  0  0.092268  0  0.99036  0  0  0.092764  0  0.991164  0  0  0.092123  0.091766  0  0.990044  0
H  H47  1  0.52886786  0.99556702  0.25102934  1  0  0.071903  0  0.932786  0  0  0.092249  0  0.990327  0  0  0.092743  0  0.991133  0  0  0.092103  0.09175  0  0.990004  0
H  H48  1  0.52886806  0.49556514  0.24896941  1  0  0.071913  0  0.932784  0  0  0.092265  0  0.990313  0  0  0.092757  0  0.991123  0  0  0.092129  0.091766  0  0.989995  0
H  H49  1  0.47113253  0.00443303  0.74896997  1  0  0.071883  0  0.932796  0  0  0.092241  0  0.990336  0  0  0.092736  0  0.991141  0  0  0.092103  0.09174  0  0.990012  0
H  H50  1  0.62013700  0.77521318  0.70074531  1  0  0.081265  0  0.94688  0  0  0.089422  0  1.022666  0  0  0.09131  0  1.020433  0  0  0.109952  0.08777  0  1.02472  0
H  H51  1  0.37986339  0.72479160  0.20074710  1  0  0.081306  0  0.946834  0  0  0.089466  0  1.022639  0  0  0.091356  0  1.020403  0  0  0.109982  0.087817  0  1.024688  0
H  H52  1  0.37985818  0.22478924  0.29925343  1  0  0.081312  0  0.946842  0  0  0.08943  0  1.022662  0  0  0.091317  0  1.020428  0  0  0.109964  0.087781  0  1.024714  0
H  H53  1  0.62014022  0.27520727  0.79925277  1  0  0.081343  0  0.94683  0  0  0.089461  0  1.022632  0  0  0.091352  0  1.020391  0  0  0.109988  0.087812  0  1.024684  0
H  H54  1  0.75717527  0.82809378  0.78270091  1  0  0.078434  0  0.934834  0  0  0.093533  0  0.99738  0  0  0.093738  0  0.998836  0  0  0.10866  0.093237  0  0.996672  0
H  H55  1  0.24282971  0.67191141  0.28270466  1  0  0.078352  0  0.934947  0  0  0.09353  0  0.997398  0  0  0.093721  0  0.998884  0  0  0.108659  0.093234  0  0.996699  0
H  H56  1  0.24281932  0.17191339  0.21729726  1  0  0.078371  0  0.934933  0  0  0.093535  0  0.997353  0  0  0.093726  0  0.998837  0  0  0.108691  0.09324  0  0.996649  0
H  H57  1  0.75717911  0.32808509  0.71729578  1  0  0.078357  0  0.934915  0  0  0.09352  0  0.99734  0  0  0.093711  0  0.998824  0  0  0.108689  0.093224  0  0.996642  0
C  C58  1  0.79730586  0.61142979  0.63743015  1  0  0.149967  0  3.66611  0  0  0.089902  0  3.938537  0  0  0.103269  0  3.951014  0  0  0.133359  0.081456  0  3.929832  0
C  C59  1  0.20268957  0.88857087  0.13743188  1  0  0.150103  0  3.66607  0  0  0.090015  0  3.938492  0  0  0.103385  0  3.95097  0  0  0.133378  0.081561  0  3.929798  0
C  C60  1  0.20269412  0.38857855  0.36256915  1  0  0.150218  0  3.666111  0  0  0.090138  0  3.938529  0  0  0.103508  0  3.951006  0  0  0.133457  0.081685  0  3.929831  0
C  C61  1  0.79730923  0.11142209  0.86256912  1  0  0.15025  0  3.666157  0  0  0.090169  0  3.938565  0  0  0.103539  0  3.951042  0  0  0.133459  0.081714  0  3.929865  0
C  C62  1  0.04782204  0.61686568  0.68340276  1  0  -0.021501  0  3.777055  0  0  -0.056734  0  4.050424  0  0  -0.055018  0  4.069193  0  0  -0.015881  -0.057768  0  4.037819  0
C  C63  1  0.95217863  0.88313336  0.18340866  1  0  -0.021328  0  3.776772  0  0  -0.056493  0  4.050128  0  0  -0.054774  0  4.0689  0  0  -0.015812  -0.057515  0  4.03751  0
C  C64  1  0.95217993  0.38314149  0.31659429  1  0  -0.021358  0  3.777161  0  0  -0.056599  0  4.050498  0  0  -0.054855  0  4.06929  0  0  -0.015792  -0.057631  0  4.037884  0
C  C65  1  0.04782726  0.11686196  0.81659575  1  0  -0.021288  0  3.77703  0  0  -0.056501  0  4.050345  0  0  -0.054778  0  4.069113  0  0  -0.015806  -0.057527  0  4.037727  0
C  C66  1  0.97041471  0.67920047  0.73803475  1  0  -0.077033  0  3.693026  0  0  -0.1171  0  3.955303  0  0  -0.114944  0  3.973556  0  0  -0.00433  -0.118541  0  3.943778  0
C  C67  1  0.02958285  0.82080395  0.23803624  1  0  -0.077065  0  3.693177  0  0  -0.117196  0  3.955472  0  0  -0.11504  0  3.973722  0  0  -0.004401  -0.11864  0  3.94395  0
C  C68  1  0.02958281  0.32080787  0.26196569  1  0  -0.077141  0  3.693294  0  0  -0.117268  0  3.955589  0  0  -0.115112  0  3.973835  0  0  -0.004463  -0.118705  0  3.944055  0
C  C69  1  0.97042245  0.17919610  0.76196363  1  0  -0.077189  0  3.69321  0  0  -0.117306  0  3.955532  0  0  -0.115149  0  3.973783  0  0  -0.004466  -0.118749  0  3.944013  0
C  C70  1  0.18075971  0.75787417  0.93009093  1  0  0.149892  0  3.675474  0  0  0.088086  0  3.94529  0  0  0.101305  0  3.958663  0  0  0.12908  0.079509  0  3.935997  0
C  C71  1  0.81923611  0.74212251  0.43008931  1  0  0.149952  0  3.675504  0  0  0.088143  0  3.94532  0  0  0.10136  0  3.958698  0  0  0.129147  0.079569  0  3.936031  0
C  C72  1  0.81923711  0.24211997  0.06991008  1  0  0.15003  0  3.675622  0  0  0.088191  0  3.945472  0  0  0.101411  0  3.958849  0  0  0.129189  0.07961  0  3.936179  0
C  C73  1  0.18076673  0.25787755  0.56990943  1  0  0.149894  0  3.675484  0  0  0.088109  0  3.945342  0  0  0.101325  0  3.958719  0  0  0.129144  0.079533  0  3.936051  0
C  C74  1  0.89851682  0.62941745  0.94020713  1  0  -0.005415  0  3.74893  0  0  -0.04126  0  4.020202  0  0  -0.038944  0  4.038893  0  0  -0.011372  -0.042736  0  4.007498  0
C  C75  1  0.10147832  0.87058386  0.44020902  1  0  -0.005345  0  3.748967  0  0  -0.041219  0  4.020222  0  0  -0.038902  0  4.038913  0  0  -0.01138  -0.042697  0  4.00752  0
C  C76  1  0.10147941  0.37058143  0.05979048  1  0  -0.005292  0  3.748825  0  0  -0.041141  0  4.02007  0  0  -0.038824  0  4.03876  0  0  -0.011344  -0.042617  0  4.007371  0
C  C77  1  0.89852499  0.12941738  0.55979142  1  0  -0.005428  0  3.748919  0  0  -0.041302  0  4.020152  0  0  -0.038989  0  4.038847  0  0  -0.011418  -0.04277  0  4.007441  0
C  C78  1  0.97122078  0.52501883  0.91179046  1  0  -0.059394  0  3.682959  0  0  -0.101306  0  3.948166  0  0  -0.09928  0  3.966841  0  0  -0.002209  -0.102438  0  3.935554  0
C  C79  1  0.02877493  0.97498039  0.41179397  1  0  -0.059589  0  3.683082  0  0  -0.101535  0  3.948273  0  0  -0.099508  0  3.966941  0  0  -0.00232  -0.102659  0  3.935642  0
C  C80  1  0.02877528  0.47497649  0.08820771  1  0  -0.059634  0  3.683083  0  0  -0.101587  0  3.948308  0  0  -0.099565  0  3.966994  0  0  -0.002375  -0.102714  0  3.935685  0
C  C81  1  0.97123084  0.02502085  0.58820817  1  0  -0.059609  0  3.682877  0  0  -0.101553  0  3.948095  0  0  -0.099533  0  3.966783  0  0  -0.002273  -0.102685  0  3.93547  0
C  C82  1  0.28275483  0.54653656  0.87769717  1  0  0.008604  0  3.603424  0  0  -0.054025  0  3.859927  0  0  -0.049901  0  3.871518  0  0  -0.052927  -0.056598  0  3.851851  0
C  C83  1  0.71724507  0.95346653  0.37769645  1  0  0.008596  0  3.603639  0  0  -0.054044  0  3.860091  0  0  -0.049923  0  3.871688  0  0  -0.052988  -0.056615  0  3.852009  0
C  C84  1  0.71724509  0.45346231  0.12230440  1  0  0.008677  0  3.603433  0  0  -0.054028  0  3.860003  0  0  -0.049899  0  3.871594  0  0  -0.052967  -0.056592  0  3.851907  0
C  C85  1  0.28275947  0.04653471  0.62230512  1  0  0.00861  0  3.603704  0  0  -0.054023  0  3.860158  0  0  -0.049885  0  3.871749  0  0  -0.052986  -0.056591  0  3.852069  0
C  C86  1  0.42076085  0.66846601  0.82919046  1  0  -0.122116  0  3.681594  0  0  -0.161722  0  3.941427  0  0  -0.163128  0  3.95534  0  0  -0.161687  -0.160471  0  3.93153  0
C  C87  1  0.57924122  0.83153874  0.32918899  1  0  -0.122227  0  3.681655  0  0  -0.161767  0  3.941443  0  0  -0.16317  0  3.955345  0  0  -0.161697  -0.16052  0  3.931556  0
C  C88  1  0.57923538  0.33153287  0.17080884  1  0  -0.122271  0  3.681637  0  0  -0.16184  0  3.941471  0  0  -0.163248  0  3.955379  0  0  -0.161693  -0.16059  0  3.931578  0
C  C89  1  0.42076181  0.16846487  0.67081032  1  0  -0.122237  0  3.681665  0  0  -0.161824  0  3.941505  0  0  -0.163224  0  3.955408  0  0  -0.161717  -0.160573  0  3.931614  0
C  C90  1  0.54507783  0.59982474  0.79013672  1  0  -0.122365  0  3.671949  0  0  -0.163518  0  3.929412  0  0  -0.165065  0  3.943208  0  0  -0.16297  -0.16219  0  3.919853  0
C  C91  1  0.45492262  0.90018156  0.29013699  1  0  -0.122341  0  3.671869  0  0  -0.163517  0  3.929368  0  0  -0.165061  0  3.943159  0  0  -0.162933  -0.162185  0  3.919806  0
C  C92  1  0.45492074  0.40018006  0.20986202  1  0  -0.122256  0  3.671776  0  0  -0.16344  0  3.929244  0  0  -0.164988  0  3.943037  0  0  -0.162929  -0.162112  0  3.919686  0
C  C93  1  0.54507975  0.09981731  0.70986288  1  0  -0.12225  0  3.671723  0  0  -0.163477  0  3.92925  0  0  -0.165025  0  3.943037  0  0  -0.162917  -0.162144  0  3.919685  0
C  C94  1  0.68352335  0.72974027  0.74529877  1  0  -0.002088  0  3.617821  0  0  -0.064026  0  3.877402  0  0  -0.059734  0  3.888038  0  0  -0.054634  -0.06667  0  3.870186  0
C  C95  1  0.31647784  0.77026408  0.24530226  1  0  -0.001945  0  3.617748  0  0  -0.063968  0  3.877395  0  0  -0.059671  0  3.88801  0  0  -0.054695  -0.066624  0  3.870192  0
C  C96  1  0.31647200  0.27026570  0.25469997  1  0  -0.002058  0  3.617889  0  0  -0.063954  0  3.877424  0  0  -0.05965  0  3.888031  0  0  -0.054688  -0.066606  0  3.870217  0
C  C97  1  0.68352805  0.22973123  0.75469875  1  0  -0.002003  0  3.617828  0  0  -0.063884  0  3.877382  0  0  -0.059578  0  3.887984  0  0  -0.054673  -0.066538  0  3.870178  0
N  N98  1  0.93874624  0.57574874  0.62086293  1  0  -0.385171  0  3.24908  0  0  -0.312332  0  3.534881  0  0  -0.332535  0  3.552362  0  0  -0.360362  -0.298412  0  3.522222  0
N  N99  1  0.06124965  0.92424970  0.12086591  1  0  -0.385333  0  3.24901  0  0  -0.312508  0  3.534852  0  0  -0.332712  0  3.552329  0  0  -0.360398  -0.298594  0  3.522195  0
N  N100  1  0.06125374  0.42425960  0.37913524  1  0  -0.385326  0  3.249097  0  0  -0.312498  0  3.534944  0  0  -0.332702  0  3.552414  0  0  -0.360434  -0.298575  0  3.522282  0
N  N101  1  0.93874623  0.07574206  0.87913736  1  0  -0.385351  0  3.249031  0  0  -0.312517  0  3.534852  0  0  -0.332723  0  3.552332  0  0  -0.360441  -0.298596  0  3.522188  0
N  N102  1  0.81210987  0.67501261  0.70802559  1  0  -0.060232  0  3.570565  0  0  0.03609  0  3.785769  0  0  0.021311  0  3.812085  0  0  -0.2445  0.045615  0  3.768045  0
N  N103  1  0.18788828  0.82498974  0.20802858  1  0  -0.060414  0  3.570452  0  0  0.035972  0  3.785647  0  0  0.02119  0  3.811959  0  0  -0.244429  0.045504  0  3.767922  0
N  N104  1  0.18788841  0.32499455  0.29197372  1  0  -0.060385  0  3.570654  0  0  0.035942  0  3.785851  0  0  0.02116  0  3.812163  0  0  -0.244475  0.04547  0  3.768127  0
N  N105  1  0.81211175  0.17500321  0.79197412  1  0  -0.06046  0  3.570623  0  0  0.035877  0  3.785817  0  0  0.021091  0  3.81213  0  0  -0.244503  0.045407  0  3.768095  0
N  N106  1  0.03072633  0.77442461  0.95113113  1  0  -0.3967  0  3.276504  0  0  -0.318147  0  3.561188  0  0  -0.339591  0  3.579958  0  0  -0.364623  -0.303311  0  3.547839  0
N  N107  1  0.96927023  0.72557423  0.45112935  1  0  -0.396669  0  3.276385  0  0  -0.318105  0  3.561042  0  0  -0.339551  0  3.579815  0  0  -0.364601  -0.303273  0  3.547701  0
N  N108  1  0.96927066  0.22557308  0.04886931  1  0  -0.39674  0  3.276431  0  0  -0.318184  0  3.561124  0  0  -0.339629  0  3.579895  0  0  -0.364643  -0.303349  0  3.54778  0
N  N109  1  0.03073262  0.27442583  0.54886996  1  0  -0.396634  0  3.276454  0  0  -0.318067  0  3.561109  0  0  -0.339512  0  3.579884  0  0  -0.364589  -0.30324  0  3.547768  0
N  N110  1  0.14968868  0.60811604  0.90540202  1  0  -0.070428  0  3.576909  0  0  0.027827  0  3.790497  0  0  0.012674  0  3.818074  0  0  -0.244666  0.037701  0  3.771827  0
N  N111  1  0.85030662  0.89188205  0.40540294  1  0  -0.0703  0  3.57683  0  0  0.027936  0  3.790448  0  0  0.012784  0  3.818025  0  0  -0.244629  0.037812  0  3.771768  0
N  N112  1  0.85030690  0.39187809  0.09459842  1  0  -0.070364  0  3.576834  0  0  0.027926  0  3.79044  0  0  0.012771  0  3.818018  0  0  -0.244588  0.037806  0  3.771758  0
N  N113  1  0.14969576  0.10811682  0.59459807  1  0  -0.070262  0  3.576676  0  0  0.027972  0  3.790293  0  0  0.012823  0  3.817861  0  0  -0.244629  0.03785  0  3.771613  0
N  N114  1  0.57320997  0.30057439  0.44720578  1  0  0.687443  0  4.164699  0  0  0.719948  0  4.457325  0  0  0.747764  0  4.463074  0  0  0.095577  0.701264  0  4.452987  0
N  N115  1  0.42678547  0.19942308  0.94720436  1  0  0.687402  0  4.164511  0  0  0.720033  0  4.45706  0  0  0.747853  0  4.462785  0  0  0.095474  0.70135  0  4.452724  0
N  N116  1  0.42679352  0.69943041  0.55279296  1  0  0.687129  0  4.1644  0  0  0.719524  0  4.457194  0  0  0.747333  0  4.462957  0  0  0.0954  0.700846  0  4.452851  0
N  N117  1  0.57321304  0.80057224  0.05279664  1  0  0.687331  0  4.164325  0  0  0.720027  0  4.456796  0  0  0.747835  0  4.462545  0  0  0.095436  0.701339  0  4.452464  0
O  O118  1  0.44562697  0.17121542  0.44610727  1  0  -0.451541  0  1.736212  0  0  -0.447102  0  1.954925  0  0  -0.459513  0  1.948999  0  0  -0.186179  -0.438475  0  1.958897  0
O  O119  1  0.55436895  0.32878324  0.94610604  1  0  -0.451503  0  1.736093  0  0  -0.447128  0  1.954759  0  0  -0.459557  0  1.948853  0  0  -0.186155  -0.438498  0  1.958731  0
O  O120  1  0.55438419  0.82878701  0.55388581  1  0  -0.451286  0  1.735845  0  0  -0.446889  0  1.954687  0  0  -0.459286  0  1.948752  0  0  -0.186028  -0.438259  0  1.958653  0
O  O121  1  0.44561961  0.67121800  0.05389213  1  0  -0.451364  0  1.735886  0  0  -0.447064  0  1.954614  0  0  -0.459474  0  1.948693  0  0  -0.186066  -0.438435  0  1.958585  0
O  O122  1  0.60071392  0.39696996  0.39226667  1  0  -0.490078  0  1.762168  0  0  -0.475029  0  1.973864  0  0  -0.489421  0  1.967528  0  0  -0.198859  -0.464979  0  1.977999  0
O  O123  1  0.39927960  0.10302803  0.89226715  1  0  -0.489985  0  1.76214  0  0  -0.474945  0  1.973749  0  0  -0.489358  0  1.967439  0  0  -0.198756  -0.464903  0  1.977884  0
O  O124  1  0.39929098  0.60303838  0.60773377  1  0  -0.490079  0  1.762281  0  0  -0.474884  0  1.9739  0  0  -0.489283  0  1.967573  0  0  -0.198805  -0.464835  0  1.978027  0
O  O125  1  0.60072489  0.89696374  0.10773725  1  0  -0.490129  0  1.762211  0  0  -0.475067  0  1.973783  0  0  -0.489461  0  1.967451  0  0  -0.198817  -0.465015  0  1.977912  0
O  O126  1  0.67568089  0.33669026  0.50510043  1  0  -0.505544  0  1.765628  0  0  -0.479546  0  1.996995  0  0  -0.497071  0  1.988174  0  0  -0.213142  -0.467265  0  2.00289  0
O  O127  1  0.32431544  0.16330907  0.00509956  1  0  -0.505655  0  1.765619  0  0  -0.47967  0  1.996899  0  0  -0.497192  0  1.988075  0  0  -0.213171  -0.467387  0  2.002796  0
O  O128  1  0.32431616  0.66331690  0.49490058  1  0  -0.505492  0  1.765578  0  0  -0.479462  0  1.996962  0  0  -0.496985  0  1.988142  0  0  -0.21317  -0.467183  0  2.002861  0
O  O129  1  0.67568261  0.83668507  0.99490145  1  0  -0.505594  0  1.765555  0  0  -0.479638  0  1.996834  0  0  -0.49716  0  1.988015  0  0  -0.21316  -0.467358  0  2.002733  0
