# generated using pymatgen
data_Zn4H29C37S3N7O22
_symmetry_space_group_name_H-M   'P 1'
_cell_length_a   13.08404072
_cell_length_b   19.13944898
_cell_length_c   19.25963727
_cell_angle_alpha   84.87969839
_cell_angle_beta   84.81771009
_cell_angle_gamma   83.78718079
_symmetry_Int_Tables_number   1
_chemical_formula_structural   Zn4H29C37S3N7O22
_chemical_formula_sum   'Zn4 H29 C37 S3 N7 O22'
_cell_volume   4759.68991587
_cell_formula_units_Z   1
loop_
 _symmetry_equiv_pos_site_id
 _symmetry_equiv_pos_as_xyz
  1  'x, y, z'
loop_
 _atom_site_type_symbol
 _atom_site_label
 _atom_site_symmetry_multiplicity
 _atom_site_fract_x
 _atom_site_fract_y
 _atom_site_fract_z
 _atom_site_occupancy
 _atom_site_pbe_bader_charge
 _atom_site_pbe_bader_spin_density
 _atom_site_pbe_cm5_charge
 _atom_site_pbe_ddec_charge
 _atom_site_pbe_ddec_spin_density
 _atom_site_pbe_ddec_sum_bond_order
 _atom_site_pbe_magmom
Zn  Zn0  1  0.57588346  0.55391484  0.42910675  1  1.328234  0  0.688487  0.994973  0  2.327453  0
Zn  Zn1  1  0.56224424  0.43740404  0.56187013  1  1.3191  0  0.681426  0.975247  0  2.380674  0
Zn  Zn2  1  0.38677805  0.45906501  0.45544029  1  1.309539  0  0.668165  0.961625  0  2.353102  0
Zn  Zn3  1  0.41372695  0.57735791  0.56268283  1  1.314628  0  0.674178  0.970117  0  2.352983  0
H  H4  1  0.07449041  0.47899652  0.47999606  1  0.063302  0  0.108552  0.097366  0  1.012575  0
H  H5  1  0.37149429  0.42733035  0.10856296  1  0.114742  0  0.108277  0.111749  0  0.992166  0
H  H6  1  0.52558755  0.77609114  0.57548804  1  0.108877  0  0.114502  0.120536  0  0.975542  0
H  H7  1  0.37187648  0.55841951  0.79074937  1  0.111562  0  0.114119  0.11958  0  0.976754  0
H  H8  1  0.07446027  0.60862940  0.56223147  1  0.067863  0  0.101034  0.119477  0  1.024011  0
H  H9  1  0.58789051  0.22614846  0.58768134  1  0.104  0  0.109275  0.12214  0  1.005024  0
H  H10  1  0.60281646  0.56263024  0.22131231  1  0.12625  0  0.111977  0.126082  0  0.999952  0
H  H11  1  0.49236972  0.91465536  0.34688267  1  0.119133  0  0.110425  0.117542  0  1.012621  0
H  H12  1  0.70778576  0.46441602  0.88060345  1  0.119582  0  0.116862  0.132211  0  0.991986  0
H  H13  1  0.39640042  0.24034937  0.41636183  1  0.055419  0  0.104609  0.114318  0  0.997118  0
H  H14  1  0.35405139  0.43149853  0.23949150  1  0.089939  0  0.107995  0.117248  0  0.992041  0
H  H15  1  0.92151162  0.65403563  0.61284223  1  0.640081  0  0.343339  0.391504  0  0.857321  0
H  H16  1  0.52869046  0.90727193  0.56670976  1  0.093248  0  0.107777  0.105152  0  1.030164  0
H  H17  1  0.99655975  0.40128139  0.48845613  1  0.444983  0  0.32768  0.266932  0  0.930662  0
H  H18  1  0.93123856  0.31405972  0.43583548  1  0.072397  0  0.115746  0.120837  0  0.972764  0
H  H19  1  0.81513861  0.36870101  0.42183494  1  0.086868  0  0.113903  0.126436  0  0.973057  0
H  H20  1  0.83264622  0.32429320  0.50608521  1  0.098949  0  0.109566  0.122521  0  0.97336  0
H  H21  1  0.65701977  0.12350616  0.63004170  1  0.442493  0  0.323114  0.25917  0  0.929656  0
H  H22  1  0.39253310  0.54993725  0.91988088  1  0.09876  0  0.112446  0.1171  0  0.993919  0
H  H23  1  0.69009681  0.98984048  0.56821487  1  0.105601  0  0.106018  0.11308  0  0.997318  0
H  H24  1  0.58783088  0.99028002  0.63501178  1  0.025729  0  0.098703  0.100392  0  0.998666  0
H  H25  1  0.71223103  0.01001306  0.65442015  1  0.05837  0  0.107275  0.110979  0  0.977702  0
H  H26  1  0.66638083  0.60059971  0.11552334  1  0.422972  0  0.307435  0.24712  0  0.933906  0
H  H27  1  0.78576672  0.49357485  0.10185433  1  0.007495  0  0.088064  0.087809  0  0.994866  0
H  H28  1  0.79283955  0.55928848  0.02970745  1  0.044755  0  0.101324  0.111783  0  0.978595  0
H  H29  1  0.72406040  0.48495946  0.02388280  1  0.106212  0  0.097446  0.099092  0  1.057115  0
H  H30  1  0.49303978  0.84216340  0.23696803  1  0.636133  0  0.352432  0.400479  0  0.840988  0
H  H31  1  0.84677382  0.51553991  0.75480052  1  0.630243  0  0.350494  0.405635  0  0.838699  0
H  H32  1  0.42671313  0.10850886  0.41229267  1  0.107548  0  0.106548  0.109055  0  1.014395  0
C  C33  1  0.47813475  0.31805230  0.50733108  1  1.562465  0  0.226461  0.603886  0  4.16541  0
C  C34  1  0.45551699  0.53175324  0.88278708  1  0.064856  0  -0.076516  -0.137655  0  3.944036  0
C  C35  1  0.52316599  0.87939031  0.52058705  1  0.049884  0  -0.079773  -0.139649  0  3.956906  0
C  C36  1  0.51388167  0.91841575  0.45564337  1  0.358673  0  0.091038  0.185122  0  4.050036  0
C  C37  1  0.55022827  0.50392110  0.90782796  1  0.308725  0  0.096199  0.185318  0  4.04816  0
C  C38  1  0.50359935  0.88327836  0.39605363  1  0.037389  0  -0.075769  -0.150716  0  3.932426  0
C  C39  1  0.63354742  0.48294806  0.86066669  1  0.051453  0  -0.076107  -0.159651  0  3.939103  0
C  C40  1  0.47261821  0.50236168  0.31471153  1  1.586876  0  0.228247  0.603013  0  4.162031  0
C  C41  1  0.50475203  0.81010233  0.40093647  1  -0.170203  0  -0.00553  -0.08769  0  3.918343  0
C  C42  1  0.62024993  0.48496115  0.78964290  1  -0.203281  0  -0.008735  -0.093583  0  3.941898  0
C  C43  1  0.56996874  0.12522485  0.54935175  1  0.382609  0  0.119057  0.185341  0  4.040896  0
C  C44  1  0.57003693  0.52670218  0.12342761  1  0.413169  0  0.104041  0.172425  0  3.982452  0
C  C45  1  0.55286385  0.19949247  0.54945165  1  -0.037471  0  -0.095197  -0.213091  0  3.964139  0
C  C46  1  0.55288391  0.53255839  0.19574681  1  -0.02679  0  -0.085572  -0.190257  0  3.943539  0
C  C47  1  0.52290457  0.09292952  0.49774342  1  0.430673  0  0.082828  0.076379  0  4.009522  0
C  C48  1  0.50068996  0.48812351  0.09192201  1  0.370653  0  0.091132  0.090943  0  3.999607  0
C  C49  1  0.49180827  0.23999112  0.50282486  1  -0.018896  0  -0.017688  -0.01124  0  4.006404  0
C  C50  1  0.47769224  0.49835246  0.23736274  1  -0.05767  0  -0.012962  -0.007457  0  3.984438  0
C  C51  1  0.44479240  0.20776567  0.45230040  1  0.01015  0  -0.100221  -0.123636  0  4.018224  0
C  C52  1  0.41237695  0.45837244  0.20666422  1  0.021663  0  -0.091237  -0.1091  0  4.003878  0
C  C53  1  0.51140994  0.69266620  0.47708921  1  1.594551  0  0.232158  0.609922  0  4.179275  0
C  C54  1  0.50288089  0.50911183  0.68915130  1  1.598016  0  0.228001  0.60672  0  4.181555  0
C  C55  1  0.46154054  0.13566612  0.45010791  1  -0.035129  0  -0.087149  -0.131041  0  3.999489  0
C  C56  1  0.52141174  0.80695958  0.52527562  1  -0.042372  0  -0.072227  -0.069125  0  3.965687  0
C  C57  1  0.42319186  0.45523105  0.13492480  1  -0.101683  0  -0.082669  -0.134956  0  3.99437  0
C  C58  1  0.21134520  0.54343687  0.52648646  1  1.49681  0  0.212385  0.647831  0  4.182541  0
C  C59  1  0.75674675  0.47889126  0.48792921  1  1.65992  0  0.23492  0.583116  0  4.212945  0
C  C60  1  0.87256080  0.47442508  0.49239060  1  0.500953  0  0.139422  0.143737  0  3.952935  0
C  C61  1  0.92411136  0.52959640  0.50986057  1  -0.144552  0  -0.055528  -0.26012  0  4.007781  0
C  C62  1  0.44433723  0.53618263  0.81142685  1  -0.048656  0  -0.074283  -0.076726  0  3.961136  0
C  C63  1  0.09957864  0.56243215  0.53384454  1  0.071367  0  -0.117509  -0.269673  0  3.93256  0
C  C64  1  0.03446880  0.52284140  0.50781588  1  -0.031726  0  -0.079264  -0.012799  0  4.058935  0
C  C65  1  0.51309318  0.77088892  0.46601721  1  0.01105  0  0.000667  -0.023924  0  3.913809  0
C  C66  1  0.52466646  0.51094233  0.76394032  1  -0.000246  0  -0.003209  -0.025472  0  3.921968  0
C  C67  1  0.87188506  0.35124521  0.45999256  1  0.228733  0  -0.123703  -0.219801  0  3.941469  0
C  C68  1  0.65651514  0.01636952  0.61447062  1  0.293893  0  -0.130347  -0.216564  0  4.006135  0
C  C69  1  0.74327490  0.52233388  0.05926013  1  0.248848  0  -0.145983  -0.225151  0  3.993444  0
S  S70  1  0.85443209  0.60894524  0.53367729  1  2.977894  0  0.533763  1.183104  0  5.948407  0
S  S71  1  0.48821420  0.76652109  0.32447169  1  3.022442  0  0.540113  1.164727  0  5.954849  0
S  S72  1  0.72855182  0.45570135  0.73183622  1  3.002045  0  0.53827  1.15565  0  5.971344  0
N  N73  1  0.50827670  0.99257553  0.44663365  1  -0.541215  0  -0.170922  -0.175394  0  3.249968  0
N  N74  1  0.92125116  0.41081147  0.47878343  1  -1.19227  0  -0.408707  -0.210176  0  3.59893  0
N  N75  1  0.63195772  0.09123639  0.59772051  1  -1.220439  0  -0.423758  -0.247504  0  3.611786  0
N  N76  1  0.64829543  0.56236561  0.08642345  1  -1.11028  0  -0.445863  -0.298608  0  3.497305  0
N  N77  1  0.56982898  0.49825000  0.97897938  1  -0.498863  0  -0.142075  -0.115316  0  3.282395  0
N  N78  1  0.53635500  0.01993405  0.49910200  1  -0.497386  0  -0.154749  -0.118218  0  3.363822  0
N  N79  1  0.49160510  0.48605507  0.02069048  1  -0.474634  0  -0.152335  -0.135619  0  3.34227  0
O  O80  1  0.48489660  0.50724272  0.50143034  1  -1.235376  0  -0.569765  -1.030543  0  2.515727  0
O  O81  1  0.53568157  0.45212180  0.66130422  1  -1.163576  0  -0.30823  -0.54098  0  2.369414  0
O  O82  1  0.40136622  0.47279896  0.35228113  1  -1.161477  0  -0.313031  -0.541579  0  2.311695  0
O  O83  1  0.41289141  0.35453862  0.46998990  1  -1.158824  0  -0.311909  -0.542159  0  2.313839  0
O  O84  1  0.45039810  0.56240938  0.66122092  1  -1.162482  0  -0.305365  -0.5311  0  2.300652  0
O  O85  1  0.45736829  0.67098571  0.53142178  1  -1.168944  0  -0.308171  -0.536727  0  2.329684  0
O  O86  1  0.24677422  0.49097461  0.49107904  1  -1.18527  0  -0.332679  -0.573549  0  2.330222  0
O  O87  1  0.71071933  0.44259603  0.53675147  1  -1.148531  0  -0.294291  -0.512031  0  2.37699  0
O  O88  1  0.72126201  0.51248506  0.43425996  1  -1.154222  0  -0.303831  -0.528  0  2.322099  0
O  O89  1  0.26511291  0.58114657  0.55802832  1  -1.172404  0  -0.328199  -0.558754  0  2.296716  0
O  O90  1  0.89765274  0.66828500  0.49475931  1  -1.293414  0  -0.328347  -0.550382  0  2.078252  0
O  O91  1  0.74561163  0.60280801  0.53794293  1  -1.256662  0  -0.296575  -0.507479  0  2.194138  0
O  O92  1  0.88441737  0.61210154  0.61423960  1  -1.178614  0  -0.380219  -0.557223  0  2.115712  0
O  O93  1  0.53453453  0.34179498  0.54885109  1  -1.176268  0  -0.319454  -0.552831  0  2.364461  0
O  O94  1  0.58674590  0.74287745  0.29003936  1  -1.282865  0  -0.325406  -0.546643  0  2.085207  0
O  O95  1  0.40818850  0.72077783  0.34141030  1  -1.262297  0  -0.305856  -0.505406  0  2.098733  0
O  O96  1  0.43911701  0.83210969  0.27401027  1  -1.186487  0  -0.368062  -0.54033  0  2.118746  0
O  O97  1  0.73496277  0.38056806  0.73061182  1  -1.241482  0  -0.313259  -0.506665  0  2.080932  0
O  O98  1  0.73188455  0.50291127  0.66946496  1  -1.274811  0  -0.303624  -0.529666  0  2.235684  0
O  O99  1  0.82474009  0.47015030  0.77483481  1  -1.174596  0  -0.3687  -0.54606  0  2.117039  0
O  O100  1  0.54233713  0.53434737  0.33672843  1  -1.18094  0  -0.310873  -0.542842  0  2.369131  0
O  O101  1  0.56531571  0.65580866  0.43280815  1  -1.157467  0  -0.296465  -0.521659  0  2.377067  0
