# generated using pymatgen
data_ErH4C12(O4F3)2
_symmetry_space_group_name_H-M   'P 1'
_cell_length_a   8.70205161
_cell_length_b   8.71587799
_cell_length_c   11.51158197
_cell_angle_alpha   104.75351426
_cell_angle_beta   112.24170652
_cell_angle_gamma   99.36391100
_symmetry_Int_Tables_number   1
_chemical_formula_structural   ErH4C12(O4F3)2
_chemical_formula_sum   'Er2 H8 C24 O16 F12'
_cell_volume   748.04204752
_cell_formula_units_Z   2
loop_
 _symmetry_equiv_pos_site_id
 _symmetry_equiv_pos_as_xyz
  1  'x, y, z'
loop_
 _atom_site_type_symbol
 _atom_site_label
 _atom_site_symmetry_multiplicity
 _atom_site_fract_x
 _atom_site_fract_y
 _atom_site_fract_z
 _atom_site_occupancy
 _atom_site_hle17_bader_spin_density
 _atom_site_hle17_ddec_charge
 _atom_site_hle17_ddec_spin_density
 _atom_site_hle17_ddec_sum_bond_order
 _atom_site_hle17_magmom
 _atom_site_hse06_10hf_bader_spin_density
 _atom_site_hse06_10hf_ddec_charge
 _atom_site_hse06_10hf_ddec_spin_density
 _atom_site_hse06_10hf_ddec_sum_bond_order
 _atom_site_hse06_10hf_magmom
 _atom_site_hse06_bader_spin_density
 _atom_site_hse06_ddec_charge
 _atom_site_hse06_ddec_spin_density
 _atom_site_hse06_ddec_sum_bond_order
 _atom_site_hse06_magmom
 _atom_site_pbe_bader_spin_density
 _atom_site_pbe_cm5_charge
 _atom_site_pbe_ddec_charge
 _atom_site_pbe_ddec_spin_density
 _atom_site_pbe_ddec_sum_bond_order
 _atom_site_pbe_magmom
Er  Er0  1  0.64671787  0.34013857  0.98677603  1  0  2.269134  0  1.547747  0  0  2.123032  0  2.01832  0  0  2.260428  0  1.812861  0  0  1.492835  2.087332  0  2.046463  0
Er  Er1  1  0.35328517  0.65986493  0.01322133  1  0  2.269137  0  1.547736  0  0  2.123057  0  2.018274  0  0  2.260433  0  1.812851  0  0  1.492863  2.087357  0  2.046423  0
H  H2  1  0.46251165  0.98388533  0.81259907  1  0  0.464248  0  0.788689  0  0  0.43823  0  0.850369  0  0  0.448127  0  0.835934  0  0  0.32732  0.43137  0  0.860566  0
H  H3  1  0.17116580  0.64941155  0.18751070  1  0  0.463244  0  0.789383  0  0  0.43663  0  0.852582  0  0  0.446537  0  0.838115  0  0  0.326389  0.429808  0  0.862725  0
H  H4  1  0.53748935  0.01611574  0.18739634  1  0  0.464257  0  0.788677  0  0  0.438227  0  0.850371  0  0  0.448124  0  0.835936  0  0  0.327301  0.431367  0  0.86057  0
H  H5  1  0.82884340  0.35059174  0.81249009  1  0  0.463323  0  0.789418  0  0  0.436711  0  0.852507  0  0  0.446621  0  0.838035  0  0  0.326405  0.429888  0  0.862651  0
H  H6  1  0.59153843  0.97467008  0.94549672  1  0  0.441205  0  0.835162  0  0  0.413222  0  0.905472  0  0  0.423408  0  0.890719  0  0  0.310834  0.406195  0  0.915825  0
H  H7  1  0.02873421  0.64569717  0.05478619  1  0  0.443055  0  0.837396  0  0  0.414794  0  0.904655  0  0  0.425013  0  0.889824  0  0  0.311187  0.407738  0  0.915066  0
H  H8  1  0.40846335  0.02534096  0.05450100  1  0  0.441177  0  0.83531  0  0  0.41319  0  0.90554  0  0  0.423374  0  0.890794  0  0  0.310861  0.406162  0  0.915894  0
H  H9  1  0.97127043  0.35431107  0.94521871  1  0  0.443095  0  0.837421  0  0  0.414815  0  0.904663  0  0  0.425032  0  0.889834  0  0  0.311169  0.407756  0  0.915078  0
C  C10  1  0.61874049  0.63236077  0.25089359  1  0  0.757114  0  3.840072  0  0  0.707142  0  4.136991  0  0  0.743643  0  4.131234  0  0  0.23463  0.682192  0  4.146595  0
C  C11  1  0.38125150  0.36763157  0.74910352  1  0  0.757046  0  3.839906  0  0  0.707098  0  4.136813  0  0  0.743597  0  4.13106  0  0  0.234608  0.68215  0  4.146412  0
C  C12  1  0.74843278  0.63675917  0.38473402  1  0  -0.179448  0  3.706541  0  0  -0.181626  0  3.966573  0  0  -0.184062  0  3.97725  0  0  -0.012029  -0.179594  0  3.958649  0
C  C13  1  0.25155799  0.36322939  0.61526369  1  0  -0.179495  0  3.706823  0  0  -0.181732  0  3.96702  0  0  -0.184169  0  3.977695  0  0  -0.011989  -0.179703  0  3.959102  0
C  C14  1  0.70555627  0.53345722  0.44901130  1  0  0.202859  0  3.781931  0  0  0.164537  0  4.08846  0  0  0.172833  0  4.095728  0  0  0.095325  0.158495  0  4.083767  0
C  C15  1  0.08399250  0.25574753  0.55074890  1  0  0.198877  0  3.786455  0  0  0.161326  0  4.090583  0  0  0.169649  0  4.097786  0  0  0.093666  0.155299  0  4.085853  0
C  C16  1  0.29442993  0.46653618  0.55099396  1  0  0.203109  0  3.782002  0  0  0.164585  0  4.088751  0  0  0.17288  0  4.096017  0  0  0.095241  0.15854  0  4.084056  0
C  C17  1  0.91600689  0.74424464  0.44925026  1  0  0.198741  0  3.786271  0  0  0.161103  0  4.090464  0  0  0.169425  0  4.097664  0  0  0.093657  0.155079  0  4.085734  0
C  C18  1  0.82322317  0.53887027  0.57335889  1  0  0.216676  0  3.770212  0  0  0.176276  0  4.080036  0  0  0.187148  0  4.088671  0  0  0.098346  0.168702  0  4.074353  0
C  C19  1  0.96502860  0.24907288  0.42641966  1  0  0.213367  0  3.771186  0  0  0.176718  0  4.077709  0  0  0.18762  0  4.086253  0  0  0.098609  0.169268  0  4.071919  0
C  C20  1  0.17677118  0.46113674  0.42664979  1  0  0.216175  0  3.770828  0  0  0.175973  0  4.080553  0  0  0.186844  0  4.08919  0  0  0.098246  0.168402  0  4.074867  0
C  C21  1  0.03497328  0.75091560  0.57357595  1  0  0.213665  0  3.771382  0  0  0.177033  0  4.077825  0  0  0.187938  0  4.086369  0  0  0.098769  0.169582  0  4.072038  0
C  C22  1  0.99164439  0.64976974  0.64088854  1  0  -0.232758  0  3.752264  0  0  -0.236427  0  4.021008  0  0  -0.245366  0  4.039291  0  0  -0.031016  -0.230131  0  4.008266  0
C  C23  1  0.00835624  0.35022252  0.35910752  1  0  -0.232286  0  3.752108  0  0  -0.23608  0  4.020876  0  0  -0.245036  0  4.039207  0  0  -0.030949  -0.229787  0  4.008134  0
C  C24  1  0.11486082  0.66348395  0.77789901  1  0  0.666924  0  3.934634  0  0  0.621781  0  4.233363  0  0  0.653385  0  4.236862  0  0  0.186198  0.599254  0  4.237575  0
C  C25  1  0.88514635  0.33651707  0.22209552  1  0  0.666702  0  3.93483  0  0  0.62158  0  4.233592  0  0  0.653187  0  4.237094  0  0  0.186117  0.599051  0  4.237801  0
C  C26  1  0.86940112  0.88831819  0.88089715  1  0  0.207746  0  3.806032  0  0  0.173543  0  4.105862  0  0  0.183489  0  4.11239  0  0  0.093025  0.166672  0  4.10129  0
C  C27  1  0.00788585  0.98859902  0.11930752  1  0  0.208843  0  3.806965  0  0  0.174824  0  4.106485  0  0  0.184769  0  4.113012  0  0  0.093942  0.167982  0  4.101912  0
C  C28  1  0.13059942  0.11168896  0.11910462  1  0  0.207585  0  3.806163  0  0  0.173479  0  4.105963  0  0  0.183428  0  4.112492  0  0  0.093004  0.166611  0  4.101392  0
C  C29  1  0.99211963  0.01140804  0.88069476  1  0  0.208669  0  3.806727  0  0  0.174727  0  4.106271  0  0  0.184673  0  4.112803  0  0  0.093952  0.167893  0  4.10169  0
C  C30  1  0.87552823  0.87510975  0.00017314  1  0  -0.228764  0  3.784558  0  0  -0.232243  0  4.046616  0  0  -0.236781  0  4.057878  0  0  -0.027148  -0.229021  0  4.0381  0
C  C31  1  0.12447393  0.12490233  0.99983099  1  0  -0.22856  0  3.784268  0  0  -0.23218  0  4.046505  0  0  -0.236735  0  4.057778  0  0  -0.027097  -0.228959  0  4.037984  0
C  C32  1  0.74205645  0.74158497  0.00025946  1  0  0.779445  0  3.811037  0  0  0.72991  0  4.103483  0  0  0.767584  0  4.091822  0  0  0.248573  0.704917  0  4.113314  0
C  C33  1  0.25794655  0.25842590  0.99974291  1  0  0.779455  0  3.811068  0  0  0.729861  0  4.10367  0  0  0.767572  0  4.091944  0  0  0.248502  0.704868  0  4.113502  0
O  O34  1  0.06904030  0.57116604  0.83632198  1  0  -0.689313  0  1.984423  0  0  -0.649689  0  2.230396  0  0  -0.682609  0  2.22105  0  0  -0.384412  -0.633226  0  2.235948  0
O  O35  1  0.73414677  0.23260503  0.16362059  1  0  -0.690999  0  1.98598  0  0  -0.649878  0  2.230845  0  0  -0.68271  0  2.22136  0  0  -0.383927  -0.633563  0  2.236653  0
O  O36  1  0.93097711  0.42883969  0.16367731  1  0  -0.68922  0  1.984282  0  0  -0.64961  0  2.230254  0  0  -0.682542  0  2.220931  0  0  -0.384358  -0.633147  0  2.2358  0
O  O37  1  0.26585628  0.76739855  0.83637419  1  0  -0.69108  0  1.985789  0  0  -0.649973  0  2.230675  0  0  -0.682806  0  2.221186  0  0  -0.383997  -0.63366  0  2.236485  0
O  O38  1  0.61032158  0.53390254  0.14451253  1  0  -0.805746  0  2.174353  0  0  -0.751207  0  2.43451  0  0  -0.798977  0  2.425018  0  0  -0.39876  -0.731343  0  2.43966  0
O  O39  1  0.38968233  0.46608830  0.85548676  1  0  -0.805697  0  2.174506  0  0  -0.751121  0  2.434589  0  0  -0.798888  0  2.425097  0  0  -0.398724  -0.731259  0  2.439738  0
O  O40  1  0.77121418  0.60211877  0.98782604  1  0  -0.70773  0  2.04765  0  0  -0.657387  0  2.295143  0  0  -0.694648  0  2.279502  0  0  -0.358685  -0.639102  0  2.302671  0
O  O41  1  0.61484060  0.78302791  0.01277515  1  0  -0.708427  0  2.048049  0  0  -0.658213  0  2.295793  0  0  -0.695478  0  2.280178  0  0  -0.359476  -0.639968  0  2.303305  0
O  O42  1  0.22879457  0.39789080  0.01217508  1  0  -0.70773  0  2.047973  0  0  -0.657354  0  2.295494  0  0  -0.694625  0  2.279832  0  0  -0.358676  -0.63907  0  2.303024  0
O  O43  1  0.38515794  0.21696924  0.98722569  1  0  -0.708456  0  2.047932  0  0  -0.658167  0  2.295657  0  0  -0.695449  0  2.280022  0  0  -0.359435  -0.639924  0  2.303169  0
O  O44  1  0.52263965  0.72649109  0.24871630  1  0  -0.643065  0  1.891502  0  0  -0.600934  0  2.115671  0  0  -0.634932  0  2.101996  0  0  -0.351794  -0.584022  0  2.12264  0
O  O45  1  0.47735646  0.27349866  0.75128143  1  0  -0.643092  0  1.891343  0  0  -0.600937  0  2.115472  0  0  -0.634932  0  2.101789  0  0  -0.35181  -0.58402  0  2.122433  0
O  O46  1  0.57614596  0.04310467  0.88804711  1  0  -0.883453  0  1.842406  0  0  -0.837978  0  2.044814  0  0  -0.867178  0  2.007598  0  0  -0.616366  -0.82513  0  2.065678  0
O  O47  1  0.15483636  0.68760414  0.11209430  1  0  -0.884403  0  1.844839  0  0  -0.839077  0  2.045807  0  0  -0.868284  0  2.008726  0  0  -0.616877  -0.826317  0  2.066547  0
O  O48  1  0.42385213  0.95690274  0.11194794  1  0  -0.883452  0  1.842501  0  0  -0.83794  0  2.044819  0  0  -0.867139  0  2.007603  0  0  -0.616366  -0.825092  0  2.065682  0
O  O49  1  0.84516995  0.31240168  0.88790708  1  0  -0.884541  0  1.844925  0  0  -0.839202  0  2.045727  0  0  -0.868418  0  2.008646  0  0  -0.616876  -0.826443  0  2.066472  0
F  F50  1  0.54661005  0.42395620  0.38950412  1  0  -0.143581  0  1.26703  0  0  -0.103914  0  1.445356  0  0  -0.111249  0  1.433541  0  0  -0.080178  -0.09853  0  1.453406  0
F  F51  1  0.03396858  0.15610025  0.61003640  1  0  -0.143262  0  1.271018  0  0  -0.102739  0  1.448338  0  0  -0.110089  0  1.436515  0  0  -0.079571  -0.097344  0  1.456349  0
F  F52  1  0.45338187  0.57604322  0.61050662  1  0  -0.143732  0  1.266915  0  0  -0.104023  0  1.445312  0  0  -0.111356  0  1.433495  0  0  -0.080249  -0.098637  0  1.453362  0
F  F53  1  0.96601815  0.84388394  0.38994360  1  0  -0.143326  0  1.27088  0  0  -0.102796  0  1.448231  0  0  -0.110143  0  1.436407  0  0  -0.079645  -0.097402  0  1.456242  0
F  F54  1  0.76681035  0.43194348  0.62525027  1  0  -0.153029  0  1.249075  0  0  -0.099446  0  1.4095  0  0  -0.106676  0  1.397636  0  0  -0.074256  -0.094033  0  1.417528  0
F  F55  1  0.80621441  0.14053331  0.37427387  1  0  -0.14307  0  1.241214  0  0  -0.099348  0  1.410469  0  0  -0.106567  0  1.398566  0  0  -0.074312  -0.093895  0  1.418507  0
F  F56  1  0.23317692  0.56807573  0.37477201  1  0  -0.152967  0  1.249697  0  0  -0.099313  0  1.409978  0  0  -0.106541  0  1.398116  0  0  -0.074146  -0.093901  0  1.418004  0
F  F57  1  0.19378303  0.85943780  0.62571683  1  0  -0.14312  0  1.241421  0  0  -0.099416  0  1.410678  0  0  -0.106636  0  1.398777  0  0  -0.074405  -0.093963  0  1.418717  0
F  F58  1  0.74107446  0.78216540  0.76320301  1  0  -0.147483  0  1.271973  0  0  -0.105642  0  1.449915  0  0  -0.113719  0  1.438675  0  0  -0.080763  -0.099707  0  1.457419  0
F  F59  1  0.01985814  0.97811739  0.23712688  1  0  -0.148077  0  1.273968  0  0  -0.106098  0  1.451492  0  0  -0.114166  0  1.44025  0  0  -0.081268  -0.100178  0  1.458959  0
F  F60  1  0.25892855  0.21783774  0.23680470  1  0  -0.147459  0  1.271999  0  0  -0.105641  0  1.449918  0  0  -0.113714  0  1.438675  0  0  -0.08074  -0.099705  0  1.457422  0
F  F61  1  0.98014695  0.02188472  0.76287338  1  0  -0.148049  0  1.273913  0  0  -0.106072  0  1.45142  0  0  -0.11414  0  1.440175  0  0  -0.081274  -0.100155  0  1.458883  0
