# generated using pymatgen
data_NaH21C24(N3O4)2
_symmetry_space_group_name_H-M   'P 1'
_cell_length_a   7.24648764
_cell_length_b   11.80010359
_cell_length_c   15.07560000
_cell_angle_alpha   95.42686484
_cell_angle_beta   102.96534436
_cell_angle_gamma   102.64771371
_symmetry_Int_Tables_number   1
_chemical_formula_structural   NaH21C24(N3O4)2
_chemical_formula_sum   'Na2 H42 C48 N12 O16'
_cell_volume   1211.67805458
_cell_formula_units_Z   2
loop_
 _symmetry_equiv_pos_site_id
 _symmetry_equiv_pos_as_xyz
  1  'x, y, z'
loop_
 _atom_site_type_symbol
 _atom_site_label
 _atom_site_symmetry_multiplicity
 _atom_site_fract_x
 _atom_site_fract_y
 _atom_site_fract_z
 _atom_site_occupancy
 _atom_site_hle17_bader_spin_density
 _atom_site_hle17_ddec_charge
 _atom_site_hle17_ddec_spin_density
 _atom_site_hle17_ddec_sum_bond_order
 _atom_site_hle17_magmom
 _atom_site_hse06_10hf_bader_spin_density
 _atom_site_hse06_10hf_ddec_charge
 _atom_site_hse06_10hf_ddec_spin_density
 _atom_site_hse06_10hf_ddec_sum_bond_order
 _atom_site_hse06_10hf_magmom
 _atom_site_hse06_bader_spin_density
 _atom_site_hse06_ddec_charge
 _atom_site_hse06_ddec_spin_density
 _atom_site_hse06_ddec_sum_bond_order
 _atom_site_hse06_magmom
 _atom_site_pbe_bader_charge
 _atom_site_pbe_bader_spin_density
 _atom_site_pbe_cm5_charge
 _atom_site_pbe_ddec_charge
 _atom_site_pbe_ddec_spin_density
 _atom_site_pbe_ddec_sum_bond_order
 _atom_site_pbe_magmom
Na  Na0  1  0.24281806  0.46610436  0.02950745  1  0  0.886046  0  0.384281  0  0  0.827047  0  0.553688  0  0  0.838807  0  0.529432  0  0.884105  0  0.653808  0.818549  0  0.570834  0
Na  Na1  1  0.75718354  0.53389402  0.97048995  1  0  0.886048  0  0.384269  0  0  0.82706  0  0.553652  0  0  0.838796  0  0.529416  0  0.884117  0  0.653813  0.818562  0  0.570799  0
H  H2  1  0.16618868  0.69371790  0.99150691  1  0  0.423829  0  0.865832  0  0  0.389325  0  0.937182  0  0  0.399326  0  0.922262  0  0.610017  0  0.297738  0.382203  0  0.94781  0
H  H3  1  0.83382148  0.30628751  0.00850122  1  0  0.423787  0  0.865854  0  0  0.389304  0  0.937194  0  0  0.3993  0  0.922282  0  0.609997  0  0.297745  0.382182  0  0.94782  0
H  H4  1  0.13321694  0.68814132  0.08928610  1  0  0.397004  0  0.910642  0  0  0.354498  0  0.995157  0  0  0.365119  0  0.979339  0  0.625117  0  0.287825  0.346925  0  1.006421  0
H  H5  1  0.86677721  0.31185618  0.91071905  1  0  0.39697  0  0.910681  0  0  0.354463  0  0.995189  0  0  0.365085  0  0.979375  0  0.62497  0  0.287791  0.346891  0  1.006451  0
H  H6  1  0.19589508  0.22376872  0.98485884  1  0  0.416547  0  0.889284  0  0  0.38726  0  0.951558  0  0  0.397623  0  0.93606  0  0.6294  0  0.291355  0.379925  0  0.962529  0
H  H7  1  0.80409871  0.77622791  0.01514688  1  0  0.416444  0  0.889434  0  0  0.387166  0  0.951679  0  0  0.397524  0  0.93619  0  0.629366  0  0.291333  0.379832  0  0.962647  0
H  H8  1  0.97141975  0.55225623  0.22732581  1  0  0.317563  0  0.918487  0  0  0.29288  0  0.987296  0  0  0.303613  0  0.977673  0  0.523992  0  0.313214  0.285081  0  0.994399  0
H  H9  1  0.02857865  0.44774127  0.77267250  1  0  0.317732  0  0.918279  0  0  0.29289  0  0.98728  0  0  0.303614  0  0.977671  0  0.523985  0  0.313264  0.285123  0  0.994339  0
H  H10  1  0.42496176  0.25607721  0.02740511  1  0  0.422939  0  0.865233  0  0  0.396975  0  0.920153  0  0  0.40602  0  0.906817  0  0.635094  0  0.299449  0.390615  0  0.929517  0
H  H11  1  0.57503314  0.74392557  0.97260052  1  0  0.422952  0  0.865197  0  0  0.397012  0  0.920078  0  0  0.406055  0  0.906745  0  0.635018  0  0.299472  0.390652  0  0.929441  0
H  H12  1  0.43375035  0.59626087  0.42066855  1  0  0.091859  0  0.971163  0  0  0.098366  0  1.039363  0  0  0.102311  0  1.035807  0  0.077309  0  0.098357  0.095479  0  1.042013  0
H  H13  1  0.56625269  0.40374103  0.57932926  1  0  0.091882  0  0.971091  0  0  0.098385  0  1.039293  0  0  0.102337  0  1.03573  0  0.077296  0  0.098388  0.095497  0  1.041943  0
H  H14  1  0.69826108  0.64765203  0.56684402  1  0  0.093569  0  0.973994  0  0  0.101481  0  1.040938  0  0  0.104891  0  1.039693  0  0.099598  0  0.096896  0.099048  0  1.041975  0
H  H15  1  0.30174561  0.35236217  0.43315311  1  0  0.093683  0  0.973842  0  0  0.101517  0  1.040849  0  0  0.104929  0  1.039601  0  0.099528  0  0.09691  0.099088  0  1.041877  0
H  H16  1  0.03935156  0.65642326  0.56410457  1  0  0.087207  0  0.972711  0  0  0.093445  0  1.042673  0  0  0.096525  0  1.041053  0  0.097751  0  0.098232  0.091272  0  1.043777  0
H  H17  1  0.96065583  0.34358918  0.43589251  1  0  0.087114  0  0.972769  0  0  0.093332  0  1.042761  0  0  0.096419  0  1.041116  0  0.097727  0  0.098194  0.091159  0  1.043864  0
H  H18  1  0.12961832  0.61387537  0.41579508  1  0  0.108047  0  0.957682  0  0  0.1186  0  1.018078  0  0  0.122425  0  1.015864  0  0.088163  0  0.103219  0.11581  0  1.019875  0
H  H19  1  0.87038538  0.38612125  0.58420308  1  0  0.10805  0  0.957765  0  0  0.118596  0  1.018159  0  0  0.122421  0  1.015955  0  0.088189  0  0.103223  0.115807  0  1.019953  0
H  H20  1  0.54027759  0.93963391  0.05916045  1  0  0.316633  0  0.92304  0  0  0.295823  0  0.984874  0  0  0.305419  0  0.977064  0  0.539725  0  0.306642  0.289089  0  0.990353  0
H  H21  1  0.45970912  0.06036272  0.94082725  1  0  0.316603  0  0.923263  0  0  0.295788  0  0.985082  0  0  0.305381  0  0.97728  0  0.539147  0  0.306634  0.289058  0  0.990553  0
H  H22  1  0.11725186  0.41822766  0.26918215  1  0  0.356392  0  0.928843  0  0  0.321513  0  1.015678  0  0  0.33241  0  1.005296  0  0.648742  0  0.31139  0.313979  0  1.022688  0
H  H23  1  0.88274826  0.58176369  0.73081059  1  0  0.35624  0  0.928911  0  0  0.321491  0  1.015552  0  0  0.332383  0  1.005184  0  0.648721  0  0.31139  0.313958  0  1.022557  0
H  H24  1  0.08569989  0.17209112  0.37148152  1  0  0.097149  0  0.973418  0  0  0.104926  0  1.041357  0  0  0.107668  0  1.039985  0  0.129903  0  0.102236  0.102934  0  1.042399  0
H  H25  1  0.91429592  0.82789320  0.62850692  1  0  0.097087  0  0.973636  0  0  0.104864  0  1.04158  0  0  0.107603  0  1.040208  0  0.129628  0  0.10226  0.102873  0  1.042617  0
H  H26  1  0.06110895  0.98530879  0.43755099  1  0  0.088342  0  0.956743  0  0  0.10169  0  1.012231  0  0  0.104553  0  1.01163  0  0.092714  0  0.098687  0.099664  0  1.012767  0
H  H27  1  0.93887306  0.01467641  0.56244266  1  0  0.088243  0  0.956961  0  0  0.10162  0  1.012404  0  0  0.104492  0  1.011785  0  0.092814  0  0.09865  0.099594  0  1.01294  0
H  H28  1  0.83261169  0.80142927  0.35015258  1  0  0.081587  0  0.990289  0  0  0.091136  0  1.053618  0  0  0.092542  0  1.054598  0  0.06998  0  0.094944  0.09011  0  1.052956  0
H  H29  1  0.16735758  0.19855593  0.64983638  1  0  0.081601  0  0.990336  0  0  0.091155  0  1.053656  0  0  0.092563  0  1.054631  0  0.070029  0  0.094988  0.090131  0  1.052995  0
H  H30  1  0.62719855  0.79692988  0.19198117  1  0  0.111119  0  0.939583  0  0  0.121988  0  0.997424  0  0  0.125036  0  0.996564  0  0.086741  0  0.106553  0.119782  0  0.998196  0
H  H31  1  0.37278708  0.20306412  0.80800424  1  0  0.111204  0  0.939465  0  0  0.12203  0  0.997346  0  0  0.12508  0  0.996488  0  0.086873  0  0.106606  0.119822  0  0.99812  0
H  H32  1  0.17340216  0.11848848  0.08485737  1  0  0.332115  0  0.8847  0  0  0.310851  0  0.950002  0  0  0.3195  0  0.942421  0  0.520302  0  0.3205  0.304717  0  0.955423  0
H  H33  1  0.82660700  0.88152484  0.91515721  1  0  0.332133  0  0.884676  0  0  0.310868  0  0.949973  0  0  0.31952  0  0.942383  0  0.520055  0  0.320558  0.304733  0  0.955393  0
H  H34  1  0.27176175  0.68282130  0.28452236  1  0  0.350053  0  0.937695  0  0  0.316645  0  1.023388  0  0  0.327409  0  1.013342  0  0.613762  0  0.307623  0.30917  0  1.030213  0
H  H35  1  0.72823243  0.31717972  0.71547775  1  0  0.350084  0  0.937641  0  0  0.316714  0  1.023268  0  0  0.327477  0  1.013221  0  0.613738  0  0.30767  0.309238  0  1.030093  0
H  H36  1  0.49045341  0.96253593  0.39779392  1  0  0.101809  0  0.947773  0  0  0.111293  0  1.009052  0  0  0.114992  0  1.006194  0  0.105531  0  0.104953  0.108643  0  1.011095  0
H  H37  1  0.50955430  0.03747388  0.60221692  1  0  0.101875  0  0.94772  0  0  0.111295  0  1.009067  0  0  0.114991  0  1.006209  0  0.105136  0  0.104952  0.10865  0  1.011095  0
H  H38  1  0.66434463  0.16937532  0.46933829  1  0  0.089909  0  0.953144  0  0  0.102385  0  1.009903  0  0  0.105513  0  1.008976  0  0.085495  0  0.098111  0.100166  0  1.010664  0
H  H39  1  0.33566410  0.83063009  0.53067234  1  0  0.089956  0  0.953186  0  0  0.102446  0  1.009901  0  0  0.105573  0  1.008974  0  0.085787  0  0.098155  0.100222  0  1.01067  0
H  H40  1  0.62953782  0.33410539  0.38083289  1  0  0.084443  0  0.953766  0  0  0.097561  0  1.011366  0  0  0.099313  0  1.0116  0  0.028689  0  0.098848  0.096295  0  1.011248  0
H  H41  1  0.37048083  0.66590002  0.61917815  1  0  0.0844  0  0.953827  0  0  0.097578  0  1.01138  0  0  0.099324  0  1.011612  0  0.028668  0  0.098861  0.096312  0  1.01126  0
H  H42  1  0.42031812  0.29621769  0.21949874  1  0  0.118287  0  0.953668  0  0  0.124909  0  1.01867  0  0  0.127677  0  1.018246  0  0.092609  0  0.107177  0.122879  0  1.019154  0
H  H43  1  0.57969842  0.70378948  0.78051618  1  0  0.118215  0  0.953645  0  0  0.124772  0  1.018729  0  0  0.127539  0  1.018307  0  0.092392  0  0.107137  0.122781  0  1.019169  0
C  C44  1  0.66393938  0.53514342  0.18375409  1  0  0.529791  0  3.840262  0  0  0.486673  0  4.128834  0  0  0.515662  0  4.126663  0  1.366178  0  0.247915  0.467231  0  4.129677  0
C  C45  1  0.33606010  0.46485672  0.81624520  1  0  0.529811  0  3.840225  0  0  0.486612  0  4.128859  0  0  0.515594  0  4.126689  0  1.365817  0  0.247823  0.467171  0  4.1297  0
C  C46  1  0.52165744  0.54689667  0.24081051  1  0  0.013253  0  3.799865  0  0  0.002146  0  4.068971  0  0  0.001897  0  4.084796  0  0.550913  0  0.101823  0.002237  0  4.058434  0
C  C47  1  0.47833707  0.45310171  0.75919011  1  0  0.013202  0  3.799806  0  0  0.002096  0  4.068956  0  0  0.001843  0  4.084784  0  0.550816  0  0.101803  0.002189  0  4.058414  0
C  C48  1  0.63311589  0.57790217  0.33642229  1  0  -0.073946  0  3.815636  0  0  -0.059355  0  4.05106  0  0  -0.064227  0  4.074379  0  -0.026779  0  -0.023671  -0.056243  0  4.035404  0
C  C49  1  0.36688676  0.42209533  0.66357715  1  0  -0.073966  0  3.815707  0  0  -0.05938  0  4.051162  0  0  -0.064254  0  4.074489  0  -0.026845  0  -0.023686  -0.056268  0  4.035499  0
C  C50  1  0.58462546  0.60089996  0.41967855  1  0  -0.062267  0  3.744445  0  0  -0.086423  0  3.997302  0  0  -0.084073  0  4.014626  0  0.006075  0  -0.085582  -0.087716  0  3.985534  0
C  C51  1  0.41537156  0.39910106  0.58032054  1  0  -0.062231  0  3.744564  0  0  -0.086388  0  3.997404  0  0  -0.084044  0  4.014726  0  0.00615  0  -0.085607  -0.08768  0  3.985635  0
C  C52  1  0.73338965  0.62918000  0.50127439  1  0  -0.111496  0  3.786692  0  0  -0.126657  0  4.041994  0  0  -0.131992  0  4.064337  0  -0.074044  0  -0.106828  -0.123248  0  4.026909  0
C  C53  1  0.26661309  0.37082805  0.49872252  1  0  -0.111673  0  3.786604  0  0  -0.126757  0  4.041915  0  0  -0.132093  0  4.064261  0  -0.074319  0  -0.106855  -0.123348  0  4.026831  0
C  C54  1  0.92698746  0.63420656  0.49938574  1  0  -0.043594  0  3.772127  0  0  -0.059204  0  4.025434  0  0  -0.057718  0  4.045781  0  -0.01371  0  -0.087871  -0.059886  0  4.011452  0
C  C55  1  0.07301492  0.36580061  0.50061173  1  0  -0.043496  0  3.771997  0  0  -0.059089  0  4.025277  0  0  -0.057603  0  4.04564  0  -0.013496  0  -0.087868  -0.059776  0  4.011306  0
C  C56  1  0.97872992  0.61069127  0.41653807  1  0  -0.16982  0  3.736947  0  0  -0.188819  0  3.990687  0  0  -0.194423  0  4.0096  0  -0.059868  0  -0.099963  -0.185171  0  3.977985  0
C  C57  1  0.02126673  0.38930887  0.58345892  1  0  -0.169699  0  3.736779  0  0  -0.188691  0  3.990514  0  0  -0.194303  0  4.009433  0  -0.059721  0  -0.099877  -0.185043  0  3.977811  0
C  C58  1  0.83046527  0.58269239  0.33576117  1  0  0.213577  0  3.802346  0  0  0.201713  0  4.052907  0  0  0.210373  0  4.073195  0  0.285548  0  0.097272  0.195965  0  4.039132  0
C  C59  1  0.16953349  0.41730599  0.66423991  1  0  0.213422  0  3.802278  0  0  0.201531  0  4.052809  0  0  0.210185  0  4.073096  0  0.285567  0  0.097215  0.195785  0  4.039035  0
C  C60  1  0.69528834  0.11888298  0.09929863  1  0  0.533473  0  3.785807  0  0  0.479368  0  4.087132  0  0  0.510209  0  4.083231  0  1.347082  0  0.248959  0.458809  0  4.088897  0
C  C61  1  0.30471042  0.88111541  0.90069648  1  0  0.533435  0  3.785991  0  0  0.479426  0  4.08718  0  0  0.510267  0  4.083274  0  1.346871  0  0.249016  0.458866  0  4.088942  0
C  C62  1  0.84549359  0.17884768  0.18572763  1  0  0.01938  0  3.780803  0  0  0.005629  0  4.057758  0  0  0.00511  0  4.073467  0  0.607193  0  0.108059  0.005965  0  4.047238  0
C  C63  1  0.15451538  0.82114455  0.81426546  1  0  0.019414  0  3.780658  0  0  0.005673  0  4.057572  0  0  0.005153  0  4.07328  0  0.606906  0  0.108041  0.006008  0  4.047049  0
C  C64  1  0.86928621  0.08990269  0.24511702  1  0  -0.067659  0  3.805065  0  0  -0.053083  0  4.039146  0  0  -0.058395  0  4.064149  0  -0.01228  0  -0.021231  -0.049754  0  4.022404  0
C  C65  1  0.13071951  0.91008164  0.75486917  1  0  -0.067714  0  3.805032  0  0  -0.053207  0  4.039171  0  0  -0.05852  0  4.064175  0  -0.011804  0  -0.021375  -0.049876  0  4.02243  0
C  C66  1  0.98516180  0.09131726  0.33280528  1  0  -0.055564  0  3.727021  0  0  -0.081961  0  3.980179  0  0  -0.079898  0  3.999433  0  -0.010499  0  -0.080037  -0.082998  0  3.966964  0
C  C67  1  0.01484925  0.90866970  0.66718434  1  0  -0.055627  0  3.727142  0  0  -0.082012  0  3.9803  0  0  -0.079947  0  3.999554  0  -0.01021  0  -0.080129  -0.08305  0  3.967085  0
C  C68  1  0.97019665  0.98607758  0.36952210  1  0  -0.100537  0  3.778339  0  0  -0.113861  0  4.032391  0  0  -0.119236  0  4.054023  0  -0.033544  0  -0.101029  -0.110458  0  4.017718  0
C  C69  1  0.02979250  0.01391465  0.63046753  1  0  -0.100219  0  3.778379  0  0  -0.113544  0  4.032345  0  0  -0.118921  0  4.053986  0  -0.033724  0  -0.100839  -0.110139  0  4.017668  0
C  C70  1  0.84236991  0.88182181  0.31963924  1  0  -0.030867  0  3.746448  0  0  -0.051405  0  4.006824  0  0  -0.048794  0  4.026511  0  -0.075971  0  -0.087798  -0.052806  0  3.993206  0
C  C71  1  0.15761641  0.11817042  0.68034943  1  0  -0.030966  0  3.746399  0  0  -0.051527  0  4.006806  0  0  -0.048911  0  4.026495  0  -0.077158  0  -0.087867  -0.052929  0  3.993187  0
C  C72  1  0.72666351  0.87841454  0.23077100  1  0  -0.15882  0  3.72049  0  0  -0.183993  0  3.985676  0  0  -0.18988  0  4.00585  0  -0.044098  0  -0.099191  -0.180156  0  3.971959  0
C  C73  1  0.27332778  0.12157945  0.76921501  1  0  -0.158749  0  3.72022  0  0  -0.183921  0  3.985463  0  0  -0.189796  0  4.005599  0  -0.043101  0  -0.099176  -0.180093  0  3.971769  0
C  C74  1  0.74231876  0.98308414  0.19504730  1  0  0.204816  0  3.805608  0  0  0.194157  0  4.055897  0  0  0.201201  0  4.078607  0  0.339666  0  0.093224  0.189519  0  4.040442  0
C  C75  1  0.25767671  0.01690283  0.80493533  1  0  0.204652  0  3.805875  0  0  0.194052  0  4.056067  0  0  0.201098  0  4.078783  0  0.340533  0  0.093225  0.189414  0  4.040607  0
C  C76  1  0.14093555  0.94799922  0.12071368  1  0  0.531059  0  3.813039  0  0  0.477867  0  4.115851  0  0  0.507503  0  4.112879  0  1.400251  0  0.245962  0.458017  0  4.117125  0
C  C77  1  0.85906403  0.05201147  0.87929569  1  0  0.530883  0  3.813346  0  0  0.478003  0  4.115746  0  0  0.507646  0  4.112768  0  1.398289  0  0.246079  0.458153  0  4.117016  0
C  C78  1  0.23792876  0.90895877  0.20769104  1  0  0.029045  0  3.767554  0  0  0.016407  0  4.033133  0  0  0.01764  0  4.048667  0  0.558961  0  0.113523  0.015616  0  4.022694  0
C  C79  1  0.76207148  0.09104665  0.79231669  1  0  0.029159  0  3.767617  0  0  0.01633  0  4.033308  0  0  0.017564  0  4.048841  0  0.558804  0  0.113537  0.015539  0  4.022867  0
C  C80  1  0.35735447  0.01422041  0.26992352  1  0  -0.074021  0  3.811269  0  0  -0.057633  0  4.043565  0  0  -0.063197  0  4.068507  0  -0.013838  0  -0.020244  -0.05407  0  4.026724  0
C  C81  1  0.64265035  0.98578237  0.73008451  1  0  -0.073905  0  3.810917  0  0  -0.057503  0  4.043265  0  0  -0.063075  0  4.068222  0  -0.013068  0  -0.020208  -0.053938  0  4.02642  0
C  C82  1  0.47469036  0.03524219  0.35986149  1  0  -0.05213  0  3.725453  0  0  -0.077844  0  3.97692  0  0  -0.075792  0  3.995309  0  0.029389  0  -0.077046  -0.078905  0  3.964253  0
C  C83  1  0.52531130  0.96476322  0.64014440  1  0  -0.052239  0  3.725448  0  0  -0.077885  0  3.976907  0  0  -0.07583  0  3.995297  0  0.029526  0  -0.077065  -0.078938  0  3.964227  0
C  C84  1  0.57166748  0.15135665  0.39926038  1  0  -0.104468  0  3.779582  0  0  -0.118206  0  4.035553  0  0  -0.123575  0  4.05838  0  -0.116367  0  -0.100637  -0.114739  0  4.020013  0
C  C85  1  0.42835120  0.84865228  0.60074826  1  0  -0.104387  0  3.779867  0  0  -0.118122  0  4.035803  0  0  -0.12349  0  4.058629  0  -0.116617  0  -0.100606  -0.114654  0  4.020258  0
C  C86  1  0.55256129  0.24410957  0.34930538  1  0  -0.036574  0  3.750404  0  0  -0.055655  0  4.010804  0  0  -0.053969  0  4.030818  0  0.033249  0  -0.087072  -0.05647  0  3.997007  0
C  C87  1  0.44745137  0.75589848  0.65070719  1  0  -0.036665  0  3.750489  0  0  -0.05584  0  4.01095  0  0  -0.054142  0  4.030947  0  0.033356  0  -0.087195  -0.056657  0  3.99716  0
C  C88  1  0.43616476  0.22453663  0.25869242  1  0  -0.160161  0  3.713536  0  0  -0.184033  0  3.977639  0  0  -0.18916  0  3.99726  0  -0.026148  0  -0.097053  -0.180672  0  3.964393  0
C  C89  1  0.56384757  0.77547406  0.74132363  1  0  -0.160021  0  3.713885  0  0  -0.183797  0  3.977995  0  0  -0.18892  0  3.997611  0  -0.025898  0  -0.096951  -0.180467  0  3.964726  0
C  C90  1  0.33945460  0.10937986  0.22062898  1  0  0.218047  0  3.79603  0  0  0.204338  0  4.047916  0  0  0.211734  0  4.069877  0  0.333965  0  0.096962  0.199409  0  4.032966  0
C  C91  1  0.66054778  0.89062731  0.77938308  1  0  0.217852  0  3.796496  0  0  0.204114  0  4.048379  0  0  0.211507  0  4.070346  0  0.333451  0  0.096876  0.199183  0  4.033435  0
N  N92  1  0.84327040  0.55769663  0.24504264  1  0  -0.44174  0  3.312298  0  0  -0.388454  0  3.554286  0  0  -0.409539  0  3.558217  0  -1.258442  0  -0.393842  -0.373948  0  3.55148  0
N  N93  1  0.15672412  0.44230176  0.75495598  1  0  -0.441799  0  3.312188  0  0  -0.388289  0  3.554211  0  0  -0.409348  0  3.55812  0  -1.258215  0  -0.393802  -0.373809  0  3.551367  0
N  N94  1  0.33693280  0.52786847  0.19982262  1  0  -0.122947  0  3.064297  0  0  -0.110419  0  3.354263  0  0  -0.105576  0  3.360509  0  -0.555269  0  -0.264694  -0.113889  0  3.350264  0
N  N95  1  0.66306564  0.47213255  0.80017596  1  0  -0.122808  0  3.064205  0  0  -0.110287  0  3.354185  0  0  -0.105431  0  3.360411  0  -0.554887  0  -0.264604  -0.113759  0  3.350189  0
N  N96  1  0.64222338  0.00362693  0.10917219  1  0  -0.433425  0  3.302061  0  0  -0.378809  0  3.546081  0  0  -0.399761  0  3.551569  0  -1.29297  0  -0.391933  -0.364569  0  3.541902  0
N  N97  1  0.35777782  0.99636706  0.89081622  1  0  -0.433269  0  3.302506  0  0  -0.378694  0  3.546496  0  0  -0.399652  0  3.552006  0  -1.29312  0  -0.391874  -0.364456  0  3.542316  0
N  N98  1  0.92592714  0.29012536  0.19272616  1  0  -0.062713  0  2.903219  0  0  -0.054053  0  3.184485  0  0  -0.048634  0  3.192743  0  -0.508483  0  -0.187952  -0.058169  0  3.179287  0
N  N99  1  0.07407548  0.70986863  0.80726903  1  0  -0.062605  0  2.902969  0  0  -0.053942  0  3.184246  0  0  -0.048531  0  3.192521  0  -0.508526  0  -0.187852  -0.058056  0  3.17905  0
N  N100  1  0.21216241  0.06721505  0.13323069  1  0  -0.443857  0  3.322251  0  0  -0.389654  0  3.567975  0  0  -0.410693  0  3.573924  0  -1.265559  0  -0.394473  -0.375282  0  3.563557  0
N  N101  1  0.78784106  0.93279476  0.86678169  1  0  -0.443633  0  3.322279  0  0  -0.389487  0  3.567863  0  0  -0.41053  0  3.573817  0  -1.265088  0  -0.394431  -0.375122  0  3.563456  0
N  N102  1  0.20843748  0.79722421  0.21159780  1  0  -0.084627  0  2.981146  0  0  -0.059298  0  3.259714  0  0  -0.056911  0  3.268026  0  -0.527196  0  -0.187149  -0.061219  0  3.254178  0
N  N103  1  0.79156062  0.20277944  0.78840824  1  0  -0.084659  0  2.981137  0  0  -0.059303  0  3.259756  0  0  -0.056917  0  3.268073  0  -0.527426  0  -0.187163  -0.061223  0  3.254218  0
O  O104  1  0.11087622  0.63882457  0.02934357  1  0  -0.890787  0  1.803352  0  0  -0.841069  0  1.982653  0  0  -0.856915  0  1.948674  0  -1.25907  0  -0.664086  -0.829851  0  2.006583  0
O  O105  1  0.88912080  0.36117645  0.97066016  1  0  -0.890703  0  1.803384  0  0  -0.840951  0  1.982661  0  0  -0.856807  0  1.948675  0  -1.258955  0  -0.664071  -0.829736  0  2.006588  0
O  O106  1  0.30433108  0.27802417  0.03181669  1  0  -0.871406  0  1.784344  0  0  -0.827342  0  1.945065  0  0  -0.844457  0  1.915285  0  -1.271432  0  -0.648908  -0.81515  0  1.965815  0
O  O107  1  0.69566238  0.72197509  0.96818985  1  0  -0.871322  0  1.784467  0  0  -0.827244  0  1.945144  0  0  -0.844366  0  1.9154  0  -1.271333  0  -0.648887  -0.815053  0  1.965898  0
O  O108  1  0.62869860  0.51185041  0.09876971  1  0  -0.602638  0  1.965689  0  0  -0.558243  0  2.194978  0  0  -0.577604  0  2.18458  0  -1.140913  0  -0.361381  -0.544964  0  2.201808  0
O  O109  1  0.37130267  0.48815061  0.90123117  1  0  -0.602687  0  1.965692  0  0  -0.558277  0  2.195024  0  0  -0.577643  0  2.184635  0  -1.140908  0  -0.36139  -0.544997  0  2.20185  0
O  O110  1  0.22146882  0.54521676  0.25698753  1  0  -0.528936  0  2.026372  0  0  -0.45983  0  2.260607  0  0  -0.483152  0  2.257376  0  -0.750238  0  -0.2421  -0.443365  0  2.262597  0
O  O111  1  0.77852424  0.45477811  0.74300869  1  0  -0.529015  0  2.026449  0  0  -0.459925  0  2.260645  0  0  -0.483246  0  2.257417  0  -0.750489  0  -0.242165  -0.44347  0  2.262636  0
O  O112  1  0.62774028  0.16375657  0.03065106  1  0  -0.574791  0  2.004656  0  0  -0.516369  0  2.218505  0  0  -0.538392  0  2.20933  0  -1.177349  0  -0.283634  -0.501198  0  2.224441  0
O  O113  1  0.37225035  0.83624270  0.96934787  1  0  -0.574817  0  2.004723  0  0  -0.516474  0  2.218576  0  0  -0.538501  0  2.209403  0  -1.177213  0  -0.283674  -0.501314  0  2.224544  0
O  O114  1  0.05693427  0.33374077  0.27548814  1  0  -0.377899  0  2.100285  0  0  -0.317558  0  2.3376  0  0  -0.340818  0  2.335975  0  -0.746615  0  -0.230935  -0.30106  0  2.338095  0
O  O115  1  0.94307539  0.66624971  0.72450424  1  0  -0.377856  0  2.100197  0  0  -0.317626  0  2.337467  0  0  -0.340877  0  2.335842  0  -0.746683  0  -0.231009  -0.301129  0  2.337961  0
O  O116  1  0.02110754  0.88718050  0.05141867  1  0  -0.552159  0  2.017741  0  0  -0.504728  0  2.247794  0  0  -0.525447  0  2.239326  0  -1.171068  0  -0.28689  -0.490462  0  2.2533  0
O  O117  1  0.97888565  0.11282843  0.94859320  1  0  -0.552251  0  2.017882  0  0  -0.504929  0  2.247831  0  0  -0.525651  0  2.239357  0  -1.169083  0  -0.287023  -0.490661  0  2.253339  0
O  O118  1  0.30155986  0.77242789  0.29396792  1  0  -0.375063  0  2.068802  0  0  -0.324974  0  2.300885  0  0  -0.347814  0  2.29921  0  -0.711466  0  -0.238266  -0.308718  0  2.301302  0
O  O119  1  0.69844104  0.22757225  0.70603418  1  0  -0.375133  0  2.0687  0  0  -0.325052  0  2.30073  0  0  -0.347893  0  2.299053  0  -0.711377  0  -0.23832  -0.308798  0  2.301156  0
