# generated using pymatgen
data_NiH22C28(N4O3)2
_symmetry_space_group_name_H-M   'P 1'
_cell_length_a   7.43535462
_cell_length_b   10.44875184
_cell_length_c   10.57147318
_cell_angle_alpha   78.65469578
_cell_angle_beta   72.18360089
_cell_angle_gamma   60.05465102
_symmetry_Int_Tables_number   1
_chemical_formula_structural   NiH22C28(N4O3)2
_chemical_formula_sum   'Ni1 H22 C28 N8 O6'
_cell_volume   676.56392628
_cell_formula_units_Z   1
loop_
 _symmetry_equiv_pos_site_id
 _symmetry_equiv_pos_as_xyz
  1  'x, y, z'
loop_
 _atom_site_type_symbol
 _atom_site_label
 _atom_site_symmetry_multiplicity
 _atom_site_fract_x
 _atom_site_fract_y
 _atom_site_fract_z
 _atom_site_occupancy
 _atom_site_pbe_cm5_charge
 _atom_site_pbe_ddec_charge
 _atom_site_pbe_ddec_spin_density
 _atom_site_pbe_ddec_sum_bond_order
 _atom_site_pbe_magmom
Ni  Ni0  1  0.99999990  0.49999850  0.00000026  1  0.603783  0.740053  0.005888  2.381244  0.006
H  H1  1  0.28676151  0.00731828  0.98754927  1  0.103322  0.106049  2.8e-05  1.009333  0.0
H  H2  1  0.71324658  0.99267222  0.01245432  1  0.103308  0.106037  2.8e-05  1.009314  0.0
H  H3  1  0.39800309  0.76535717  0.90701294  1  0.108345  0.114736  -1.6e-05  1.011008  0.0
H  H4  1  0.60200492  0.23463692  0.09298358  1  0.108351  0.114755  -1.6e-05  1.01098  0.0
H  H5  1  0.99952017  0.21689362  0.09607658  1  0.124731  0.103739  -0.000814  1.012065  -0.001
H  H6  1  0.00048293  0.78310376  0.90392420  1  0.124727  0.103728  -0.000814  1.012037  -0.001
H  H7  1  0.89406572  0.56716170  0.28617664  1  0.124943  0.103817  -0.000862  1.002205  -0.001
H  H8  1  0.10592691  0.43284009  0.71381883  1  0.124897  0.103723  -0.000862  1.00217  -0.001
H  H9  1  0.89943396  0.09070600  0.31347356  1  0.113347  0.121167  -0.00037  0.976542  0.0
H  H10  1  0.10055278  0.90929793  0.68652935  1  0.113298  0.121144  -0.00037  0.976499  0.0
H  H11  1  0.71274212  0.88243884  0.52326940  1  0.101285  0.106408  9.2e-05  1.010921  0.0
H  H12  1  0.28726065  0.11756172  0.47673103  1  0.101284  0.106412  9.2e-05  1.010924  0.0
H  H13  1  0.78038713  0.21725606  0.52463701  1  0.109594  0.103819  -2.5e-05  1.020046  0.0
H  H14  1  0.21958897  0.78275730  0.47536377  1  0.109579  0.103803  -2.5e-05  1.020012  0.0
H  H15  1  0.60062133  0.12595890  0.60539736  1  0.09418  0.089976  1.8e-05  1.056283  0.0
H  H16  1  0.39938753  0.87403773  0.39460721  1  0.094214  0.090016  1.8e-05  1.056271  0.0
H  H17  1  0.65760630  0.35626143  0.70680859  1  0.325  0.291171  1.7e-05  0.978835  0.0
H  H18  1  0.34239580  0.64373849  0.29318636  1  0.324986  0.291058  1.8e-05  0.978933  0.0
H  H19  1  0.66468566  0.52049860  0.91062139  1  0.283447  0.344469  -0.000702  1.01449  -0.001
H  H20  1  0.33531534  0.47950532  0.08937799  1  0.283493  0.344497  -0.000702  1.01445  -0.001
H  H21  1  0.60697451  0.57229239  0.05726487  1  0.286812  0.365379  6.8e-05  0.978931  0.0
H  H22  1  0.39302794  0.42771666  0.94273360  1  0.286836  0.365443  6.8e-05  0.978829  0.0
C  C23  1  0.44629219  0.84320348  0.84155724  1  -0.086077  -0.113292  -1.7e-05  3.954501  0.0
C  C24  1  0.55371720  0.15679032  0.15844191  1  -0.086058  -0.113295  -1.7e-05  3.954355  0.0
C  C25  1  0.74391218  0.49087757  0.53679207  1  0.224542  0.27294  -0.000324  4.064333  0.0
C  C26  1  0.25608804  0.50912554  0.46320471  1  0.224527  0.272928  -0.000324  4.064239  0.0
C  C27  1  0.63454132  0.66399269  0.66308781  1  0.213316  0.252109  -1.3e-05  4.094002  0.0
C  C28  1  0.36546633  0.33600451  0.33690932  1  0.213381  0.252221  -1.3e-05  4.094016  0.0
C  C29  1  0.89514697  0.19668943  0.31197829  1  -0.077633  -0.114584  -0.002  3.985794  -0.002
C  C30  1  0.10484630  0.80331293  0.68802363  1  -0.077587  -0.114508  -0.002  3.985726  -0.002
C  C31  1  0.44393092  0.08054478  0.80289776  1  -0.015747  -0.024634  0.005598  3.966488  0.005
C  C32  1  0.55607274  0.91945145  0.19710401  1  -0.015742  -0.02477  0.005598  3.96641  0.005
C  C33  1  0.37495839  0.22773817  0.85194912  1  0.212088  0.576747  0.002118  4.208987  0.0
C  C34  1  0.62504379  0.77225817  0.14805290  1  0.211997  0.576745  0.002117  4.209073  0.0
C  C35  1  0.89128880  0.46254976  0.29567980  1  0.058963  0.068618  -0.000498  3.873343  0.0
C  C36  1  0.10870934  0.53745456  0.70431720  1  0.059012  0.068811  -0.000498  3.873175  0.0
C  C37  1  0.62340455  0.90964017  0.62567691  1  -0.088403  -0.112197  0.000206  3.983009  0.0
C  C38  1  0.37659798  0.09035837  0.37432287  1  -0.088396  -0.112216  0.000206  3.983135  0.0
C  C39  1  0.56892192  0.80652267  0.71063168  1  -0.008687  0.017284  0.001003  4.0222  0.001
C  C40  1  0.43108320  0.19347339  0.28937080  1  -0.00871  0.017227  0.001003  4.022209  0.001
C  C41  1  0.82841490  0.26739268  0.42870228  1  -0.066626  -0.071087  0.000894  3.937037  0.001
C  C42  1  0.17157812  0.73261297  0.57129738  1  -0.066592  -0.071084  0.000894  3.93701  0.001
C  C43  1  0.95275406  0.26454951  0.19085924  1  0.057477  0.103992  -0.000248  3.882099  0.0
C  C44  1  0.04724752  0.73544793  0.80914276  1  0.057469  0.103951  -0.000247  3.882108  0.0
C  C45  1  0.56280414  0.04459154  0.67216208  1  -0.093471  -0.111541  0.001792  4.009309  0.001
C  C46  1  0.43719147  0.95540632  0.32784188  1  -0.093459  -0.111452  0.001792  4.009112  0.001
C  C47  1  0.82247670  0.40468668  0.42112199  1  -0.001273  -0.021428  -0.002073  4.018332  -0.002
C  C48  1  0.17752405  0.59531521  0.57887674  1  -0.001264  -0.021495  -0.002074  4.018277  -0.002
C  C49  1  0.38308069  0.97925577  0.88643503  1  -0.085309  -0.094271  0.000581  3.972971  0.0
C  C50  1  0.61692297  0.02074046  0.11356674  1  -0.085361  -0.094265  0.000581  3.972947  0.0
N  N51  1  0.71486117  0.62881110  0.53287985  1  -0.333766  -0.432169  7.8e-05  3.1995  0.0
N  N52  1  0.28513669  0.37119114  0.46711746  1  -0.333792  -0.432236  7.8e-05  3.199461  0.0
N  N53  1  0.95312710  0.39483909  0.18324202  1  -0.315569  -0.194819  -0.033913  3.565043  -0.033
N  N54  1  0.04687522  0.60515749  0.81675616  1  -0.315593  -0.194846  -0.033911  3.565019  -0.033
N  N55  1  0.61513029  0.55417291  0.74642094  1  -0.209087  -0.218073  -0.000265  3.189934  0.0
N  N56  1  0.38487672  0.44582534  0.25357713  1  -0.209142  -0.218138  -0.000264  3.189798  0.0
N  N57  1  0.68494160  0.44545775  0.66502448  1  -0.261109  -0.149429  -4.1e-05  3.62299  0.0
N  N58  1  0.31506488  0.55454171  0.33497163  1  -0.26108  -0.149263  -4.1e-05  3.622875  0.0
O  O59  1  0.18104714  0.29091988  0.91973112  1  -0.299805  -0.533214  0.061532  2.350569  0.066
O  O60  1  0.81895777  0.70907584  0.08027713  1  -0.299758  -0.533195  0.061531  2.350493  0.066
O  O61  1  0.71136741  0.49298541  0.99506672  1  -0.574626  -0.740705  -0.035158  2.208732  -0.036
O  O62  1  0.28862759  0.50701886  0.00493559  1  -0.574682  -0.740744  -0.035155  2.208744  -0.036
O  O63  1  0.50659640  0.27900202  0.82407091  1  -0.326102  -0.58105  0.000367  2.188905  0.001
O  O64  1  0.49340835  0.72099553  0.17592481  1  -0.326027  -0.580971  0.000367  2.189049  0.001
