# generated using pymatgen
data_CuH14C15(N3O)2
_symmetry_space_group_name_H-M   'P 1'
_cell_length_a   8.55780750
_cell_length_b   8.51590264
_cell_length_c   11.70150986
_cell_angle_alpha   77.20735874
_cell_angle_beta   75.34448637
_cell_angle_gamma   74.72340043
_symmetry_Int_Tables_number   1
_chemical_formula_structural   CuH14C15(N3O)2
_chemical_formula_sum   'Cu2 H28 C30 N12 O4'
_cell_volume   784.85956731
_cell_formula_units_Z   2
loop_
 _symmetry_equiv_pos_site_id
 _symmetry_equiv_pos_as_xyz
  1  'x, y, z'
loop_
 _atom_site_type_symbol
 _atom_site_label
 _atom_site_symmetry_multiplicity
 _atom_site_fract_x
 _atom_site_fract_y
 _atom_site_fract_z
 _atom_site_occupancy
 _atom_site_hle17_ddec_charge
 _atom_site_hle17_ddec_spin_density
 _atom_site_hle17_ddec_sum_bond_order
 _atom_site_hle17_magmom
 _atom_site_hse06_10hf_ddec_charge
 _atom_site_hse06_10hf_ddec_spin_density
 _atom_site_hse06_10hf_ddec_sum_bond_order
 _atom_site_hse06_10hf_magmom
 _atom_site_hse06_ddec_charge
 _atom_site_hse06_ddec_spin_density
 _atom_site_hse06_ddec_sum_bond_order
 _atom_site_hse06_magmom
 _atom_site_pbe_cm5_charge
 _atom_site_pbe_ddec_charge
 _atom_site_pbe_ddec_spin_density
 _atom_site_pbe_ddec_sum_bond_order
 _atom_site_pbe_magmom
Cu  Cu0  1  0.00000406  0.00000641  0.99999454  1  0.739172  0.734974  1.969032  0.51  0.688579  0.80184  2.359836  0.613  0.767693  0.877835  2.304609  0.694  0.78851  0.642234  0.746703  2.396388  0.56
Cu  Cu1  1  0.99999641  0.99999542  0.49999655  1  0.836253  -0.721955  1.781899  -0.495  0.79784  -0.801245  2.187623  -0.61  0.898818  -0.882449  2.107524  -0.698  0.737839  0.735865  -0.745276  2.243474  -0.556
H  H2  1  0.66179949  0.94677419  0.07070598  1  0.08815  0.001227  0.934854  0.002  0.093529  0.000953  1.001193  0.001  0.0954  0.000685  0.998899  0.001  0.119779  0.091883  0.001171  1.003215  0.002
H  H3  1  0.33820755  0.05323471  0.92928954  1  0.088131  0.001226  0.934845  0.002  0.093552  0.000953  1.001146  0.001  0.095424  0.000685  0.99885  0.001  0.119781  0.091904  0.001172  1.003169  0.002
H  H4  1  0.37583600  0.10771609  0.14796992  1  0.123249  0.000614  0.970796  0.001  0.131912  0.000487  1.03022  0.001  0.135485  0.000352  1.028997  0.0  0.106971  0.129334  0.000592  1.031235  0.001
H  H5  1  0.62418445  0.89227818  0.85204271  1  0.123406  0.000614  0.970909  0.001  0.132056  0.000487  1.030291  0.001  0.135628  0.000352  1.029075  0.0  0.10697  0.129477  0.000592  1.031307  0.001
H  H6  1  0.59255123  0.52322342  0.11298468  1  0.108959  0.000591  0.935182  0.001  0.122833  0.00056  0.987332  0.001  0.125378  0.000394  0.987202  0.0  0.112076  0.120937  0.000701  0.987698  0.001
H  H7  1  0.40744541  0.47678874  0.88701750  1  0.109007  0.000591  0.935002  0.001  0.12282  0.000561  0.987218  0.001  0.125366  0.000394  0.987087  0.0  0.112056  0.120925  0.000702  0.98758  0.001
H  H8  1  0.86830980  0.34587697  0.04182226  1  0.093634  0.001319  0.917908  0.002  0.10169  0.001027  0.978705  0.001  0.103462  0.000736  0.976448  0.001  0.12501  0.100117  0.001263  0.980666  0.002
H  H9  1  0.13168119  0.65414059  0.95816894  1  0.093608  0.001318  0.917938  0.002  0.101632  0.001027  0.978769  0.001  0.103403  0.000736  0.976515  0.001  0.125024  0.100057  0.001263  0.980733  0.002
H  H10  1  0.20098764  0.39242478  0.15101620  1  0.09532  -9.7e-05  0.922479  0.0  0.11231  -1.6e-05  0.981305  0.0  0.114038  -2.8e-05  0.979977  0.0  0.099739  0.111033  -9e-06  0.982292  0.0
H  H11  1  0.79901080  0.60759200  0.84900099  1  0.095323  -9.7e-05  0.922361  0.0  0.112252  -1.6e-05  0.981268  0.0  0.113978  -2.8e-05  0.979949  0.0  0.099696  0.110975  -9e-06  0.982253  0.0
H  H12  1  0.28741457  0.55875087  0.15532275  1  0.075026  -0.00014  0.944664  0.0  0.090513  -4.4e-05  1.007501  0.0  0.091431  -5e-05  1.008265  0.0  0.089325  0.089853  -3.7e-05  1.00697  0.0
H  H13  1  0.71259043  0.44126196  0.84467930  1  0.075099  -0.00014  0.944696  0.0  0.090553  -4.4e-05  1.007533  0.0  0.091473  -5e-05  1.008293  0.0  0.089341  0.089891  -3.7e-05  1.007006  0.0
H  H14  1  0.10638320  0.45819540  0.34616480  1  0.076644  -6.8e-05  0.956713  0.0  0.092244  -3.5e-05  1.020531  0.0  0.092725  -3.6e-05  1.021447  0.0  0.094098  0.091717  -2.9e-05  1.020082  0.0
H  H15  1  0.89361448  0.54181481  0.65384865  1  0.076692  -6.8e-05  0.956611  0.0  0.092278  -3.5e-05  1.020475  0.0  0.092765  -3.6e-05  1.021395  0.0  0.094128  0.091751  -2.9e-05  1.020023  0.0
H  H16  1  0.24550857  0.26601238  0.35864456  1  0.072643  -2e-06  0.963461  0.0  0.088809  1.7e-05  1.031621  0.0  0.089697  3.4e-05  1.031565  0.0  0.088391  0.087941  -7e-06  1.032044  0.0
H  H17  1  0.75448002  0.73399424  0.64136117  1  0.0726  -2e-06  0.963471  0.0  0.088818  1.7e-05  1.031609  0.0  0.089708  3.4e-05  1.031561  0.0  0.088383  0.08795  -7e-06  1.032032  0.0
H  H18  1  0.24769905  0.48517061  0.47893174  1  0.0883  0.000377  0.965829  0.0  0.100527  0.000218  1.036542  0.0  0.10136  0.000178  1.036973  0.0  0.098331  0.099845  0.000256  1.036358  0.0
H  H19  1  0.75229655  0.51477371  0.52111247  1  0.088357  0.000378  0.965953  0.0  0.100689  0.000218  1.036489  0.0  0.101516  0.000178  1.036925  0.0  0.098432  0.100006  0.000256  1.036305  0.0
H  H20  1  0.34723060  0.59206856  0.34397410  1  0.077599  3e-05  0.923331  0.0  0.09617  1e-05  0.978846  0.0  0.097472  9e-06  0.978944  0.0  0.090083  0.095177  1.1e-05  0.978906  0.0
H  H21  1  0.65272998  0.40794929  0.65607802  1  0.077639  3e-05  0.92316  0.0  0.096187  1e-05  0.978734  0.0  0.097466  9e-06  0.978856  0.0  0.090058  0.095188  1.1e-05  0.978801  0.0
H  H22  1  0.37808594  0.17935116  0.54726968  1  0.111305  -0.000423  0.9723  0.0  0.117401  -0.000383  1.038324  0.0  0.119955  -0.000283  1.038541  0.0  0.10716  0.115464  -0.000456  1.038419  -0.001
H  H23  1  0.62191083  0.82062188  0.45270646  1  0.111273  -0.000422  0.972393  0.0  0.117322  -0.000383  1.0385  0.0  0.119871  -0.000283  1.038714  0.0  0.107117  0.115385  -0.000456  1.038594  -0.001
H  H24  1  0.64721023  0.00467764  0.59042411  1  0.082535  -0.000836  0.960439  -0.002  0.08952  -0.000672  1.027614  -0.001  0.091724  -0.00049  1.025429  -0.001  0.11561  0.087695  -0.000809  1.029487  -0.001
H  H25  1  0.35279289  0.99529103  0.40953829  1  0.082554  -0.000836  0.960143  -0.002  0.089571  -0.000672  1.027212  -0.001  0.091748  -0.00049  1.025095  -0.001  0.11562  0.087761  -0.000809  1.029043  -0.001
H  H26  1  0.90993677  0.32503757  0.34725554  1  0.090618  -0.000906  0.945692  -0.002  0.098118  -0.000723  1.010002  -0.001  0.100148  -0.000524  1.007824  -0.001  0.123397  0.096365  -0.000873  1.011883  -0.002
H  H27  1  0.09005770  0.67495687  0.65275041  1  0.0906  -0.000906  0.945653  -0.002  0.098106  -0.000722  1.010002  -0.001  0.10014  -0.000523  1.007817  -0.001  0.123366  0.096353  -0.000872  1.011884  -0.002
H  H28  1  0.65367214  0.51747065  0.30137141  1  0.109503  -0.00048  0.955648  0.0  0.11561  -0.000443  1.023378  0.0  0.119036  -0.000324  1.021554  0.0  0.108621  0.113031  -0.000532  1.02499  -0.001
H  H29  1  0.34633228  0.48254126  0.69863948  1  0.109571  -0.00048  0.955562  0.0  0.115666  -0.000443  1.023294  0.0  0.119095  -0.000324  1.02147  0.0  0.108647  0.113087  -0.000532  1.024903  -0.001
C  C30  1  0.92260729  0.96673066  0.76179767  1  0.602091  0.004134  3.943044  0.007  0.563998  -0.000484  4.239823  0.002  0.601941  -0.000306  4.230027  0.001  0.209568  0.538358  -0.000889  4.245388  0.002
C  C31  1  0.07739244  0.03326491  0.23819587  1  0.602161  0.004135  3.943223  0.007  0.564079  -0.000484  4.239964  0.002  0.602026  -0.000306  4.230158  0.001  0.209557  0.538437  -0.000889  4.245534  0.002
C  C32  1  0.00467194  0.10558852  0.74678095  1  0.120058  -0.003409  3.828055  -0.003  0.107005  -0.000511  4.099716  0.0  0.109689  -0.00129  4.118721  -0.001  0.188645  0.105369  5.2e-05  4.087011  0.001
C  C33  1  0.99531181  0.89442208  0.25320645  1  0.119705  -0.003408  3.827726  -0.003  0.106674  -0.000511  4.099376  0.0  0.109354  -0.00129  4.118377  -0.001  0.188611  0.105041  5.2e-05  4.086673  0.001
C  C34  1  0.63980935  0.07447086  0.08321190  1  0.126772  -0.007757  3.704104  -0.008  0.098177  -0.000754  3.959127  -0.002  0.107297  -0.001966  3.979088  -0.003  0.042392  0.092511  0.00014  3.94591  -0.001
C  C35  1  0.36020237  0.92553110  0.91678995  1  0.126732  -0.007756  3.704194  -0.008  0.098069  -0.000753  3.959231  -0.002  0.107195  -0.001966  3.979195  -0.003  0.042296  0.092402  0.000141  3.946016  -0.001
C  C36  1  0.48284085  0.16356769  0.12662420  1  -0.172667  0.011197  3.681451  0.011  -0.18592  0.004134  3.919031  0.005  -0.195068  0.003842  3.940015  0.004  -0.08617  -0.179953  0.004404  3.904826  0.005
C  C37  1  0.51717066  0.83643751  0.87339420  1  -0.1728  0.011199  3.681655  0.011  -0.185981  0.004134  3.919203  0.005  -0.195136  0.003844  3.94019  0.004  -0.086083  -0.180012  0.004404  3.904996  0.005
C  C38  1  0.46083183  0.32826884  0.13999907  1  0.165183  -0.009913  3.705379  -0.009  0.180875  -0.002928  3.941097  -0.003  0.186912  -0.003224  3.962795  -0.003  0.01675  0.176973  -0.002736  3.926211  -0.003
C  C39  1  0.53917284  0.67173274  0.86000687  1  0.165237  -0.009922  3.705396  -0.01  0.180889  -0.002929  3.941115  -0.003  0.186934  -0.003226  3.96281  -0.003  0.016772  0.176984  -0.002737  3.926232  -0.003
C  C40  1  0.60186871  0.39500507  0.10728684  1  -0.172149  0.011182  3.723816  0.012  -0.189795  0.004101  3.972162  0.005  -0.198766  0.003817  3.994466  0.004  -0.083522  -0.183907  0.004374  3.957105  0.005
C  C41  1  0.39812488  0.60501480  0.89272307  1  -0.172228  0.011185  3.723954  0.012  -0.189811  0.0041  3.972291  0.005  -0.198786  0.003817  3.994593  0.004  -0.083542  -0.183919  0.004373  3.957226  0.005
C  C42  1  0.75588964  0.29818837  0.06611565  1  0.13  -0.008021  3.700111  -0.008  0.098813  -0.000806  3.96392  -0.002  0.108385  -0.002034  3.982903  -0.003  0.048207  0.092755  0.00012  3.951438  -0.001
C  C43  1  0.24410988  0.70182477  0.93387463  1  0.130089  -0.008024  3.699976  -0.008  0.098937  -0.000806  3.963757  -0.002  0.108515  -0.002035  3.982737  -0.003  0.048264  0.09288  0.00012  3.951279  -0.001
C  C44  1  0.29212400  0.42634714  0.18725044  1  -0.167119  0.000521  3.692273  0.001  -0.21069  2.2e-05  3.946053  0.0  -0.212611  -1.2e-05  3.958101  0.0  -0.160901  -0.209081  6.1e-05  3.937455  0.0
C  C45  1  0.70787969  0.57365467  0.81276250  1  -0.167204  0.000522  3.692115  0.001  -0.210715  2.2e-05  3.946025  0.0  -0.212618  -1.3e-05  3.95805  0.0  -0.160838  -0.209108  6.1e-05  3.937432  0.0
C  C46  1  0.23808778  0.39802956  0.32456873  1  -0.0884  -0.000194  3.628559  0.0  -0.127133  -4.4e-05  3.884362  0.0  -0.128101  -3.9e-05  3.898154  0.0  -0.162132  -0.126195  -6.8e-05  3.874856  0.0
C  C47  1  0.76190730  0.60197656  0.67544260  1  -0.088237  -0.000193  3.628305  0.0  -0.127051  -4.4e-05  3.884188  0.0  -0.128049  -3.9e-05  3.898014  0.0  -0.162094  -0.126115  -6.8e-05  3.874685  0.0
C  C48  1  0.32980116  0.46905910  0.39149355  1  -0.164958  -0.000393  3.682455  -0.001  -0.205611  4.4e-05  3.927707  0.0  -0.208087  5.2e-05  3.940457  0.0  -0.162143  -0.203715  3.5e-05  3.918836  0.0
C  C49  1  0.67019325  0.53093342  0.60852646  1  -0.16514  -0.000396  3.682628  -0.001  -0.205825  4.4e-05  3.927899  0.0  -0.208274  5.1e-05  3.940652  0.0  -0.162272  -0.203917  3.5e-05  3.919002  0.0
C  C50  1  0.49160828  0.36146247  0.41607504  1  0.166724  0.008341  3.696201  0.008  0.184069  0.002633  3.927519  0.003  0.191005  0.002885  3.948276  0.003  0.016634  0.179487  0.002391  3.91342  0.002
C  C51  1  0.50839788  0.63853252  0.58392242  1  0.166702  0.008342  3.696116  0.008  0.184099  0.002633  3.927393  0.003  0.191032  0.002885  3.948142  0.003  0.016651  0.179512  0.002391  3.913301  0.002
C  C52  1  0.49363706  0.21484270  0.49952250  1  -0.171594  -0.009679  3.701035  -0.01  -0.186516  -0.003653  3.943464  -0.004  -0.19528  -0.003418  3.964278  -0.004  -0.084899  -0.180923  -0.003758  3.929608  -0.004
C  C53  1  0.50636933  0.78513656  0.50046247  1  -0.171401  -0.009682  3.700889  -0.01  -0.186393  -0.003654  3.94336  -0.004  -0.195141  -0.003417  3.964162  -0.004  -0.084851  -0.180799  -0.003757  3.929506  -0.004
C  C54  1  0.64247424  0.11679890  0.52404397  1  0.120017  0.006106  3.718227  0.006  0.0924  0.000463  3.970983  0.001  0.102069  0.001529  3.990402  0.002  0.038718  0.086338  -0.00038  3.958284  0.0
C  C55  1  0.35753430  0.88317124  0.47593116  1  0.119784  0.006109  3.717731  0.006  0.092311  0.000463  3.970376  0.001  0.101976  0.001528  3.98978  0.002  0.038681  0.086252  -0.000381  3.957689  0.0
C  C56  1  0.78968974  0.29639846  0.38920263  1  0.136061  0.006381  3.688666  0.007  0.106154  0.00049  3.946076  0.001  0.116445  0.00157  3.964631  0.002  0.047838  0.099597  -0.000353  3.934059  0.0
C  C57  1  0.21031523  0.70358393  0.61079829  1  0.136208  0.006383  3.688563  0.007  0.106251  0.00049  3.946027  0.001  0.116539  0.00157  3.964584  0.002  0.047938  0.099695  -0.000353  3.934009  0.0
C  C58  1  0.64468588  0.40202814  0.36254279  1  -0.176179  -0.009862  3.720511  -0.01  -0.194566  -0.003833  3.970317  -0.005  -0.203141  -0.003528  3.990709  -0.004  -0.084493  -0.189074  -0.004001  3.956796  -0.005
C  C59  1  0.35532210  0.59797508  0.63746559  1  -0.176296  -0.00986  3.720545  -0.01  -0.194653  -0.003832  3.970313  -0.005  -0.203239  -0.003526  3.990723  -0.004  -0.084597  -0.189159  -0.004  3.95679  -0.005
N  N60  1  0.03611119  0.14895303  0.84139595  1  -0.266217  0.079036  3.321655  0.096  -0.236426  0.053715  3.639131  0.07  -0.261172  0.045089  3.659587  0.061  -0.255181  -0.221511  0.058805  3.626453  0.074
N  N61  1  0.96390454  0.85104454  0.15858538  1  -0.265873  0.079027  3.321172  0.096  -0.236041  0.053709  3.638593  0.07  -0.260782  0.045087  3.659049  0.061  -0.255158  -0.221129  0.0588  3.625917  0.074
N  N62  1  0.11046799  0.27627927  0.79847839  1  -0.110097  -0.001709  2.902852  -0.002  -0.10532  0.001802  3.201063  0.002  -0.10146  0.000818  3.210551  0.001  -0.111584  -0.107374  0.002561  3.194521  0.003
N  N63  1  0.88954074  0.72372516  0.20149881  1  -0.110164  -0.001707  2.903019  -0.002  -0.105428  0.001804  3.201264  0.002  -0.101569  0.000818  3.21075  0.001  -0.111587  -0.107482  0.002562  3.194724  0.003
N  N64  1  0.12296050  0.30897954  0.68020947  1  -0.088165  0.012038  2.950472  0.014  -0.07243  0.006056  3.260345  0.008  -0.074077  0.003853  3.270436  0.005  -0.094025  -0.070183  0.008165  3.2525  0.01
N  N65  1  0.87703895  0.69101917  0.31976985  1  -0.088412  0.012038  2.950733  0.014  -0.072682  0.006058  3.260621  0.008  -0.074327  0.003854  3.270709  0.005  -0.094114  -0.070432  0.008166  3.252775  0.01
N  N66  1  0.05773194  0.20345152  0.64547864  1  -0.289346  0.004755  2.955177  0.004  -0.279026  0.002496  3.254509  0.002  -0.289698  0.002147  3.266813  0.002  -0.225056  -0.271985  0.002599  3.246446  0.002
N  N67  1  0.94226246  0.79654460  0.35450819  1  -0.289142  0.004753  2.95499  0.004  -0.278793  0.002497  3.254237  0.002  -0.289467  0.002147  3.266547  0.002  -0.225035  -0.27175  0.002598  3.246167  0.002
N  N68  1  0.77435534  0.14057809  0.05408168  1  -0.293018  0.092998  3.368867  0.114  -0.248138  0.062379  3.665624  0.082  -0.279633  0.052156  3.690974  0.072  -0.350627  -0.229218  0.068398  3.649868  0.087
N  N69  1  0.22564410  0.85943671  0.94591772  1  -0.293087  0.093009  3.368605  0.114  -0.24821  0.062386  3.665408  0.082  -0.279715  0.052165  3.690765  0.072  -0.350695  -0.229292  0.068405  3.649655  0.087
N  N70  1  0.78952374  0.15484273  0.46823646  1  -0.317214  -0.078862  3.357028  -0.095  -0.269354  -0.053805  3.657767  -0.07  -0.303339  -0.045874  3.681814  -0.062  -0.357854  -0.24908  -0.057498  3.643993  -0.072
N  N71  1  0.21048272  0.84514559  0.53175278  1  -0.317285  -0.078862  3.356906  -0.095  -0.269488  -0.053802  3.65767  -0.07  -0.303467  -0.04587  3.681718  -0.062  -0.357845  -0.249217  -0.057496  3.643895  -0.072
O  O72  1  0.88578031  0.88844887  0.86574529  1  -0.580008  -0.021518  1.93409  -0.026  -0.552614  -0.011373  2.172898  -0.015  -0.578029  -0.006827  2.160083  -0.009  -0.309758  -0.535052  -0.014844  2.181136  -0.019
O  O73  1  0.11419502  0.11158156  0.13425013  1  -0.579944  -0.02153  1.933773  -0.026  -0.5526  -0.011378  2.172692  -0.015  -0.578019  -0.006829  2.159879  -0.009  -0.309708  -0.535036  -0.01485  2.180932  -0.019
O  O74  1  0.89072797  0.93421580  0.66864213  1  -0.591014  -0.093076  2.115655  -0.119  -0.562328  -0.061399  2.404672  -0.087  -0.605817  -0.04759  2.394308  -0.071  -0.322151  -0.53357  -0.069532  2.412127  -0.094
O  O75  1  0.10927016  0.06578084  0.33134982  1  -0.590936  -0.093085  2.115721  -0.119  -0.562365  -0.061403  2.404905  -0.087  -0.60585  -0.047593  2.394539  -0.071  -0.322166  -0.533609  -0.069537  2.41236  -0.094
