# generated using pymatgen
data_Zn4C40Br20O13
_symmetry_space_group_name_H-M   'P 1'
_cell_length_a   24.05885728
_cell_length_b   24.06024840
_cell_length_c   24.05863181
_cell_angle_alpha   66.46159500
_cell_angle_beta   72.52836906
_cell_angle_gamma   107.47997027
_symmetry_Int_Tables_number   1
_chemical_formula_structural   Zn4C40Br20O13
_chemical_formula_sum   'Zn8 C80 Br40 O26'
_cell_volume   10680.13777706
_cell_formula_units_Z   2
loop_
 _symmetry_equiv_pos_site_id
 _symmetry_equiv_pos_as_xyz
  1  'x, y, z'
loop_
 _atom_site_type_symbol
 _atom_site_label
 _atom_site_symmetry_multiplicity
 _atom_site_fract_x
 _atom_site_fract_y
 _atom_site_fract_z
 _atom_site_occupancy
 _atom_site_pbe_bader_charge
 _atom_site_pbe_bader_spin_density
 _atom_site_pbe_cm5_charge
 _atom_site_pbe_ddec_charge
 _atom_site_pbe_ddec_spin_density
 _atom_site_pbe_ddec_sum_bond_order
 _atom_site_pbe_magmom
Zn  Zn0  1  0.05656925  0.95754241  0.48590482  1  1.326363  0  0.681878  0.99039  0  2.355486  0
Zn  Zn1  1  0.05656834  0.09902836  0.45754161  1  1.32683  0  0.681783  0.990285  0  2.355612  0
Zn  Zn2  1  0.94342985  0.98590346  0.45753329  1  1.326165  0  0.681761  0.990339  0  2.355461  0
Zn  Zn3  1  0.94344471  0.95753359  0.59903173  1  1.326981  0  0.681761  0.990107  0  2.355796  0
Zn  Zn4  1  0.94343664  0.54246261  0.01409503  1  1.326134  0  0.681864  0.990416  0  2.355598  0
Zn  Zn5  1  0.05657104  0.51410171  0.04246676  1  1.326254  0  0.681625  0.990075  0  2.355643  0
Zn  Zn6  1  0.94343612  0.40097209  0.04246189  1  1.326856  0  0.681714  0.990146  0  2.355796  0
Zn  Zn7  1  0.05655196  0.54245967  0.90096951  1  1.326944  0  0.681801  0.990261  0  2.355541  0
C  C8  1  0.18044876  0.09023241  0.40977827  1  1.590733  0  0.227615  0.62666  0  4.135268  0
C  C9  1  0.99999809  0.13691377  0.36308658  1  1.613848  0  0.231522  0.630395  0  4.117334  0
C  C10  1  0.99998660  0.90978430  0.40977883  1  1.601345  0  0.227641  0.626556  0  4.135223  0
C  C11  1  0.81955522  0.90976420  0.59024208  1  1.591145  0  0.227561  0.626489  0  4.135328  0
C  C12  1  0.00000816  0.86308309  0.63691263  1  1.613623  0  0.231115  0.62952  0  4.118134  0
C  C13  1  0.99999464  0.09021579  0.59023309  1  1.635593  0  0.227652  0.62658  0  4.13529  0
C  C14  1  0.00000562  0.59021115  0.09023268  1  1.602245  0  0.227486  0.626351  0  4.135672  0
C  C15  1  0.00001180  0.36309263  0.13691334  1  1.613045  0  0.231083  0.629711  0  4.118411  0
C  C16  1  0.81955646  0.40977660  0.09021038  1  1.591411  0  0.227559  0.626473  0  4.135448  0
C  C17  1  0.99998905  0.40975960  0.90979037  1  1.634905  0  0.227483  0.626419  0  4.135519  0
C  C18  1  0.99999497  0.63691302  0.86308595  1  1.613601  0  0.231315  0.629758  0  4.117764  0
C  C19  1  0.18044315  0.59022145  0.90975877  1  1.590863  0  0.227638  0.626846  0  4.134873  0
C  C20  1  0.00000720  0.80506095  0.69494040  1  0.057702  0  -0.013487  -0.09456  0  3.838825  0
C  C21  1  0.99999886  0.69494118  0.80505781  1  0.057445  0  -0.013486  -0.094403  0  3.838763  0
C  C22  1  0.95736375  0.77687577  0.76576354  1  -0.031326  0  -0.014014  0.049356  0  3.869689  0
C  C23  1  0.04264318  0.72312723  0.73423407  1  -0.029899  0  -0.013999  0.049371  0  3.869767  0
C  C24  1  0.95735987  0.72312546  0.81951249  1  -0.031555  0  -0.014086  0.049215  0  3.869768  0
C  C25  1  0.04264943  0.77688043  0.68048492  1  -0.032066  0  -0.014062  0.049239  0  3.869833  0
C  C26  1  0.00000071  0.19494186  0.30505903  1  0.057396  0  -0.013741  -0.095233  0  3.839197  0
C  C27  1  0.00000792  0.30506448  0.19494023  1  0.058374  0  -0.013551  -0.094923  0  3.839098  0
C  C28  1  0.95736406  0.18049200  0.27686239  1  -0.032755  0  -0.014121  0.049307  0  3.869893  0
C  C29  1  0.04264245  0.31951361  0.22313803  1  -0.032321  0  -0.014154  0.04922  0  3.8699  0
C  C30  1  0.95736751  0.23424188  0.22311375  1  -0.030723  0  -0.013879  0.049762  0  3.869747  0
C  C31  1  0.04263943  0.26576418  0.27688470  1  -0.02981  0  -0.013916  0.049773  0  3.869756  0
C  C32  1  0.99999624  0.62790976  0.12793696  1  0.077582  0  -0.017198  -0.104564  0  3.846293  0
C  C33  1  0.95702279  0.65748661  0.13525901  1  0.023544  0  -0.012905  0.053722  0  3.890423  0
C  C34  1  0.95735277  0.69231145  0.17026245  1  -0.109108  0  -0.017638  0.022746  0  3.899785  0
C  C35  1  0.99999127  0.69959691  0.19962841  1  0.246148  0  -0.004476  0.074984  0  4.067642  0
C  C36  1  0.04263521  0.67024521  0.19234126  1  -0.108644  0  -0.017604  0.022871  0  3.899979  0
C  C37  1  0.04297034  0.63523947  0.15751903  1  0.021503  0  -0.013015  0.053459  0  3.890236  0
C  C38  1  0.99998354  0.73476383  0.23480546  1  -0.247707  0  -0.037287  -0.060354  0  4.077462  0
C  C39  1  0.99997378  0.76519078  0.26524508  1  -0.046201  0  -0.037236  -0.060342  0  4.077437  0
C  C40  1  0.99996886  0.80036104  0.30041871  1  0.246759  0  -0.004653  0.074781  0  4.067707  0
C  C41  1  0.95734604  0.82974131  0.30767876  1  -0.109252  0  -0.017718  0.022706  0  3.899945  0
C  C42  1  0.95701626  0.86474931  0.34250056  1  0.023927  0  -0.012993  0.053567  0  3.890586  0
C  C43  1  0.99997373  0.87206220  0.37209706  1  0.07769  0  -0.017195  -0.104638  0  3.846497  0
C  C44  1  0.04293059  0.84246162  0.36479959  1  0.021247  0  -0.012948  0.053755  0  3.890154  0
C  C45  1  0.04259414  0.80763392  0.32980090  1  -0.10894  0  -0.01735  0.022893  0  3.90003  0
C  C46  1  0.00000726  0.37205637  0.87209398  1  0.049692  0  -0.017268  -0.104812  0  3.846542  0
C  C47  1  0.04298935  0.40770195  0.79954637  1  0.034013  0  -0.013073  0.053617  0  3.890834  0
C  C48  1  0.04264774  0.37236861  0.76505236  1  -0.047848  0  -0.017676  0.022707  0  3.900238  0
C  C49  1  0.00000300  0.30037239  0.80040281  1  0.135306  0  -0.004441  0.0748  0  4.068188  0
C  C50  1  0.95736592  0.26502075  0.87239990  1  -0.047138  0  -0.017648  0.022903  0  3.900014  0
C  C51  1  0.95703694  0.29951147  0.90773794  1  0.033994  0  -0.012934  0.053764  0  3.890229  0
C  C52  1  0.99999452  0.26520511  0.76522853  1  -0.247115  0  -0.037273  -0.060209  0  4.077237  0
C  C53  1  0.99998283  0.23477481  0.73479213  1  -0.044518  0  -0.037188  -0.060435  0  4.077099  0
C  C54  1  0.99997413  0.19960436  0.69961977  1  0.135587  0  -0.0046  0.074785  0  4.067864  0
C  C55  1  0.04259900  0.23495982  0.62761902  1  -0.047882  0  -0.017503  0.022786  0  3.90035  0
C  C56  1  0.04293484  0.20047338  0.59227971  1  0.034509  0  -0.013008  0.053663  0  3.890264  0
C  C57  1  0.99997714  0.12792041  0.62792888  1  0.04957  0  -0.01743  -0.104876  0  3.846483  0
C  C58  1  0.95701314  0.09227172  0.70047768  1  0.033887  0  -0.012848  0.053672  0  3.890504  0
C  C59  1  0.95734787  0.12760646  0.73497322  1  -0.047601  0  -0.017622  0.022913  0  3.89985  0
C  C60  1  0.74415530  0.37206997  0.12791836  1  0.090587  0  -0.017308  -0.104711  0  3.846502  0
C  C61  1  0.70725267  0.40771983  0.13522757  1  -0.102905  0  -0.01292  0.053749  0  3.890519  0
C  C62  1  0.63742464  0.37238296  0.17023196  1  0.071939  0  -0.017666  0.022804  0  3.899928  0
C  C63  1  0.60077700  0.30038359  0.19960371  1  0.201534  0  -0.004354  0.074978  0  4.067822  0
C  C64  1  0.63742128  0.26502832  0.19233629  1  -0.107827  0  -0.017681  0.022846  0  3.8998  0
C  C65  1  0.70725094  0.29951873  0.15751526  1  0.025004  0  -0.012943  0.053559  0  3.89041  0
C  C66  1  0.53043291  0.26521669  0.23476707  1  -0.005653  0  -0.037373  -0.06066  0  4.077892  0
C  C67  1  0.46956807  0.23479073  0.26519148  1  -0.319369  0  -0.037258  -0.060159  0  4.077665  0
C  C68  1  0.39922475  0.19962201  0.30035658  1  0.201648  0  -0.004527  0.07473  0  4.068285  0
C  C69  1  0.36258456  0.23497718  0.30764234  1  -0.107502  0  -0.017422  0.023156  0  3.900176  0
C  C70  1  0.29275552  0.20048792  0.34246564  1  0.02526  0  -0.013102  0.053487  0  3.890337  0
C  C71  1  0.25585012  0.12793981  0.37204582  1  0.090014  0  -0.017326  -0.104758  0  3.846575  0
C  C72  1  0.29274897  0.09229347  0.36470683  1  -0.101559  0  -0.013067  0.053308  0  3.891115  0
C  C73  1  0.36257895  0.12762711  0.32970895  1  0.070707  0  -0.01763  0.022915  0  3.900249  0
C  C74  1  0.25584520  0.62791293  0.87205861  1  0.089877  0  -0.017345  -0.104934  0  3.846584  0
C  C75  1  0.29275191  0.63521389  0.90771499  1  -0.101917  0  -0.013111  0.053636  0  3.890354  0
C  C76  1  0.36257917  0.67021686  0.87237883  1  0.071314  0  -0.017537  0.022689  0  3.900529  0
C  C77  1  0.39922389  0.69959038  0.80037835  1  0.201234  0  -0.004595  0.074702  0  4.068154  0
C  C78  1  0.36257509  0.69232541  0.76501821  1  -0.107327  0  -0.01764  0.022875  0  3.899503  0
C  C79  1  0.29274352  0.65750618  0.79950870  1  0.024821  0  -0.012793  0.053821  0  3.889929  0
C  C80  1  0.46956539  0.73475935  0.76521287  1  -0.005392  0  -0.037378  -0.06052  0  4.077844  0
C  C81  1  0.53043147  0.76519326  0.73479241  1  -0.319134  0  -0.037175  -0.060071  0  4.0775  0
C  C82  1  0.60077704  0.80036785  0.69962638  1  0.201902  0  -0.00453  0.074587  0  4.068036  0
C  C83  1  0.63742576  0.80765549  0.73498087  1  -0.10767  0  -0.017603  0.022915  0  3.899898  0
C  C84  1  0.70725407  0.84247662  0.70049268  1  0.070611  0  -0.012849  0.053924  0  3.890165  0
C  C85  1  0.74415419  0.87205461  0.62794455  1  0.044083  0  -0.017151  -0.104765  0  3.846521  0
C  C86  1  0.70724784  0.86472971  0.59229342  1  -0.102295  0  -0.013019  0.053726  0  3.890583  0
C  C87  1  0.63742089  0.82973015  0.62762688  1  0.071585  0  -0.017698  0.022774  0  3.900121  0
Br  Br88  1  0.89729874  0.80870234  0.79400610  1  0.030148  0  0.03659  -0.021895  0  1.665026  0
Br  Br89  1  0.10270557  0.69129805  0.70598959  1  0.030026  0  0.036621  -0.021901  0  1.664932  0
Br  Br90  1  0.89728620  0.69129474  0.91140719  1  0.028289  0  0.036632  -0.021847  0  1.664969  0
Br  Br91  1  0.10273187  0.80872355  0.58859013  1  0.028437  0  0.036608  -0.021833  0  1.665029  0
Br  Br92  1  0.89729482  0.08860035  0.30867913  1  0.023909  0  0.036642  -0.021872  0  1.664823  0
Br  Br93  1  0.10270350  0.41140533  0.19132872  1  0.024067  0  0.036615  -0.021873  0  1.664932  0
Br  Br94  1  0.89730475  0.20600536  0.19127154  1  0.034708  0  0.03659  -0.02196  0  1.66511  0
Br  Br95  1  0.10270331  0.29400129  0.30872425  1  0.034446  0  0.036639  -0.021883  0  1.665137  0
Br  Br96  1  0.89622304  0.65364229  0.09975338  1  0.021772  0  0.041469  -0.012939  0  1.61575  0
Br  Br97  1  0.10376539  0.59973366  0.15370340  1  0.021543  0  0.04153  -0.012867  0  1.615677  0
Br  Br98  1  0.09901064  0.68044837  0.23174005  1  -0.000252  0  0.040894  -0.030375  0  1.611277  0
Br  Br99  1  0.90097216  0.73169427  0.18045755  1  0.012003  0  0.040949  -0.03033  0  1.611134  0
Br  Br100  1  0.90099502  0.81956728  0.26825232  1  -0.000159  0  0.040976  -0.030247  0  1.611371  0
Br  Br101  1  0.09894845  0.76821852  0.31963747  1  0.011634  0  0.040842  -0.030352  0  1.611249  0
Br  Br102  1  0.10367112  0.84622587  0.40037733  1  0.023926  0  0.041481  -0.01293  0  1.615858  0
Br  Br103  1  0.89623260  0.90027017  0.34629639  1  0.022135  0  0.041549  -0.012856  0  1.615693  0
Br  Br104  1  0.10381926  0.50399095  0.74259780  1  0.025477  0  0.041539  -0.012854  0  1.615962  0
Br  Br105  1  0.89625774  0.24253786  0.00404078  1  0.026259  0  0.04152  -0.012963  0  1.615802  0
Br  Br106  1  0.90098906  0.16925757  0.91857528  1  -0.006435  0  0.040905  -0.030368  0  1.611424  0
Br  Br107  1  0.09902825  0.41853911  0.66928911  1  -0.008491  0  0.040968  -0.030298  0  1.611176  0
Br  Br108  1  0.09895312  0.33072870  0.58143866  1  0.001523  0  0.040899  -0.030274  0  1.61138  0
Br  Br109  1  0.90099557  0.08142487  0.83074193  1  -0.000377  0  0.040931  -0.030338  0  1.611379  0
Br  Br110  1  0.89621604  0.99597625  0.75743832  1  0.026065  0  0.041524  -0.012862  0  1.615929  0
Br  Br111  1  0.10368701  0.25745094  0.49597120  1  0.027039  0  0.041502  -0.012898  0  1.615653  0
Br  Br112  1  0.74658572  0.50402497  0.09968707  1  0.02547  0  0.041524  -0.012921  0  1.615796  0
Br  Br113  1  0.74657730  0.24253811  0.15373877  1  0.025069  0  0.041507  -0.012883  0  1.615825  0
Br  Br114  1  0.58783074  0.16925913  0.23175229  1  -0.004934  0  0.040886  -0.030354  0  1.611304  0
Br  Br115  1  0.58783702  0.41856514  0.18040475  1  0.009972  0  0.040914  -0.030312  0  1.611137  0
Br  Br116  1  0.41217377  0.33074033  0.26825367  1  -0.005171  0  0.040895  -0.030384  0  1.611342  0
Br  Br117  1  0.41217082  0.08145703  0.31949682  1  0.010228  0  0.041004  -0.030299  0  1.611177  0
Br  Br118  1  0.25340697  0.99600700  0.40015641  1  0.023196  0  0.041552  -0.012749  0  1.615925  0
Br  Br119  1  0.25342871  0.25746338  0.34626551  1  0.024495  0  0.04151  -0.012918  0  1.615699  0
Br  Br120  1  0.25342656  0.59965982  0.00402550  1  0.025469  0  0.041538  -0.012883  0  1.615621  0
Br  Br121  1  0.25341322  0.65372184  0.74252314  1  0.025887  0  0.041469  -0.012958  0  1.615795  0
Br  Br122  1  0.41215998  0.73174103  0.66924958  1  -0.005137  0  0.040999  -0.030216  0  1.611377  0
Br  Br123  1  0.41216882  0.68038773  0.91856661  1  0.009745  0  0.040933  -0.030216  0  1.611408  0
Br  Br124  1  0.58783772  0.76826515  0.83074705  1  -0.005049  0  0.040919  -0.030337  0  1.611265  0
Br  Br125  1  0.58782488  0.81951774  0.58145337  1  0.009877  0  0.040971  -0.030302  0  1.611157  0
Br  Br126  1  0.74658132  0.90021688  0.49599773  1  0.024483  0  0.041456  -0.013014  0  1.615857  0
Br  Br127  1  0.74658716  0.84628030  0.75747180  1  0.025434  0  0.041473  -0.01301  0  1.615792  0
O  O128  1  0.00000068  0.00000303  0.50000034  1  -1.234028  0  -0.571431  -1.037139  0  2.530552  0
O  O129  1  0.15101773  0.02569241  0.43463284  1  -1.169097  0  -0.314323  -0.543738  0  2.466805  0
O  O130  1  0.03937745  0.15377681  0.38559468  1  -1.175294  0  -0.313949  -0.541516  0  2.480646  0
O  O131  1  0.96026213  0.93458997  0.41439762  1  -1.169184  0  -0.314286  -0.543727  0  2.467037  0
O  O132  1  0.15101822  0.12533788  0.41438520  1  -1.16934  0  -0.314442  -0.543852  0  2.466819  0
O  O133  1  0.03973200  0.91443091  0.43457180  1  -1.168356  0  -0.314641  -0.543998  0  2.466365  0
O  O134  1  0.96061948  0.07503293  0.38559739  1  -1.175676  0  -0.313919  -0.541472  0  2.480576  0
O  O135  1  0.84898799  0.93460627  0.52570002  1  -1.169179  0  -0.314436  -0.543834  0  2.466749  0
O  O136  1  0.96063582  0.88559461  0.65377730  1  -1.175183  0  -0.313673  -0.540902  0  2.480885  0
O  O137  1  0.84899073  0.91436950  0.62535127  1  -1.169377  0  -0.314388  -0.543711  0  2.466651  0
O  O138  1  0.03937296  0.88558878  0.57503007  1  -1.175656  0  -0.313887  -0.541349  0  2.480887  0
O  O139  1  0.03972050  0.12531662  0.52569924  1  -1.184501  0  -0.314515  -0.543845  0  2.466668  0
O  O140  1  0.96028786  0.02567719  0.62533814  1  -1.184782  0  -0.314258  -0.54367  0  2.466866  0
O  O141  1  0.99999965  0.49999846  0.00000150  1  -1.234029  0  -0.571432  -1.037168  0  2.530695  0
O  O142  1  0.96029728  0.58561100  0.06539346  1  -1.16844  0  -0.314409  -0.543855  0  2.466692  0
O  O143  1  0.03939700  0.42497337  0.11439393  1  -1.175348  0  -0.31381  -0.541377  0  2.480879  0
O  O144  1  0.84898899  0.37467264  0.08558021  1  -1.16945  0  -0.314504  -0.543896  0  2.466479  0
O  O145  1  0.03971241  0.56538361  0.08563414  1  -1.169463  0  -0.314222  -0.543489  0  2.46708  0
O  O146  1  0.84898945  0.47430293  0.06540346  1  -1.16954  0  -0.314301  -0.543689  0  2.467177  0
O  O147  1  0.96062497  0.34622883  0.11441236  1  -1.174875  0  -0.3136  -0.540923  0  2.481095  0
O  O148  1  0.96028558  0.37465288  0.97433080  1  -1.184656  0  -0.314264  -0.543601  0  2.466937  0
O  O149  1  0.03936612  0.61440288  0.84622150  1  -1.175353  0  -0.313781  -0.541166  0  2.480812  0
O  O150  1  0.03967380  0.47430529  0.87467851  1  -1.183808  0  -0.314336  -0.543715  0  2.466666  0
O  O151  1  0.96062511  0.61440380  0.92496977  1  -1.175321  0  -0.313952  -0.541386  0  2.480655  0
O  O152  1  0.15101112  0.56542460  0.97429136  1  -1.169258  0  -0.314465  -0.543957  0  2.466457  0
O  O153  1  0.15100772  0.58559348  0.87465524  1  -1.169456  0  -0.314364  -0.54382  0  2.466717  0
