# generated using pymatgen
data_Zn2H18C25(N5O2)2
_symmetry_space_group_name_H-M   'P 1'
_cell_length_a   14.88436332
_cell_length_b   15.02348230
_cell_length_c   23.32908087
_cell_angle_alpha   91.34917432
_cell_angle_beta   90.29568739
_cell_angle_gamma   102.89503643
_symmetry_Int_Tables_number   1
_chemical_formula_structural   Zn2H18C25(N5O2)2
_chemical_formula_sum   'Zn8 H72 C100 N40 O16'
_cell_volume   5083.46837017
_cell_formula_units_Z   4
loop_
 _symmetry_equiv_pos_site_id
 _symmetry_equiv_pos_as_xyz
  1  'x, y, z'
loop_
 _atom_site_type_symbol
 _atom_site_label
 _atom_site_symmetry_multiplicity
 _atom_site_fract_x
 _atom_site_fract_y
 _atom_site_fract_z
 _atom_site_occupancy
 _atom_site_pbe_bader_charge
 _atom_site_pbe_bader_spin_density
 _atom_site_pbe_cm5_charge
 _atom_site_pbe_ddec_charge
 _atom_site_pbe_ddec_spin_density
 _atom_site_pbe_ddec_sum_bond_order
 _atom_site_pbe_magmom
Zn  Zn0  1  0.56580976  0.41345322  0.93450056  1  1.184067  0  0.745245  0.605948  0  2.454242  0
Zn  Zn1  1  0.57504652  0.42476995  0.07219355  1  1.188901  0  0.751066  0.598242  0  2.506805  0
Zn  Zn2  1  0.06900247  0.91684237  0.42967751  1  1.189317  0  0.746514  0.605674  0  2.464895  0
Zn  Zn3  1  0.08030190  0.93019907  0.56694723  1  1.187574  0  0.750175  0.601685  0  2.491634  0
Zn  Zn4  1  0.41333691  0.56012749  0.07088545  1  1.226772  0  0.723765  0.622865  0  2.479275  0
Zn  Zn5  1  0.42602408  0.56821756  0.92963497  1  1.222155  0  0.724258  0.613738  0  2.495411  0
Zn  Zn6  1  0.91661322  0.06317636  0.56702973  1  1.232629  0  0.721469  0.625457  0  2.466363  0
Zn  Zn7  1  0.92947425  0.07251821  0.42624095  1  1.224457  0  0.725604  0.611654  0  2.502811  0
H  H8  1  0.40816361  0.22999092  0.91071120  1  0.074334  0  0.118581  0.106681  0  1.00131  0
H  H9  1  0.44057355  0.23834169  0.09157627  1  0.096153  0  0.115425  0.102381  0  1.014141  0
H  H10  1  0.91026800  0.73358200  0.41070337  1  0.094535  0  0.118775  0.107776  0  1.001645  0
H  H11  1  0.94952280  0.74567102  0.59816311  1  0.089982  0  0.116346  0.104188  0  1.011474  0
H  H12  1  0.23177029  0.39851688  0.08665749  1  0.109716  0  0.122516  0.11311  0  0.990919  0
H  H13  1  0.23362791  0.42621048  0.91343812  1  0.101374  0  0.120466  0.108523  0  1.002937  0
H  H14  1  0.73796439  0.90238827  0.59126667  1  0.128032  0  0.121979  0.112965  0  0.990615  0
H  H15  1  0.73759329  0.93144293  0.41336276  1  0.109832  0  0.120853  0.110307  0  1.000213  0
H  H16  1  0.23159445  0.64246399  0.90362523  1  0.112403  0  0.116607  0.109193  0  0.999827  0
H  H17  1  0.21173203  0.61356967  0.08792839  1  0.110987  0  0.113974  0.10492  0  1.009568  0
H  H18  1  0.73610449  0.15012702  0.40020391  1  0.099096  0  0.116661  0.108657  0  1.001983  0
H  H19  1  0.71391795  0.11357182  0.58384031  1  0.089515  0  0.113935  0.104385  0  1.011162  0
H  H20  1  0.63821612  0.22929033  0.09828415  1  0.072679  0  0.116066  0.10477  0  1.002621  0
H  H21  1  0.60977650  0.20865061  0.91351814  1  0.083669  0  0.115937  0.103264  0  1.005835  0
H  H22  1  0.14401501  0.73583146  0.59354614  1  0.054939  0  0.116213  0.105404  0  1.003601  0
H  H23  1  0.11504178  0.71220752  0.40887176  1  0.048258  0  0.115433  0.101941  0  1.003612  0
H  H24  1  0.74597787  0.56845227  0.90727978  1  0.098447  0  0.109722  0.099621  0  1.058083  0
H  H25  1  0.75546942  0.58707024  0.09284677  1  0.069549  0  0.112513  0.097677  0  1.011638  0
H  H26  1  0.25271405  0.06999431  0.40141203  1  0.115157  0  0.110232  0.100495  0  1.053599  0
H  H27  1  0.25553506  0.09600108  0.58680043  1  0.078752  0  0.113113  0.098356  0  1.012282  0
H  H28  1  0.55112491  0.75326355  0.10102072  1  0.063378  0  0.108003  0.092863  0  1.016839  0
H  H29  1  0.57802431  0.75145518  0.91650997  1  0.082821  0  0.112473  0.100067  0  1.017717  0
H  H30  1  0.05146832  0.25830999  0.59703845  1  0.043005  0  0.108381  0.093616  0  1.017013  0
H  H31  1  0.08386133  0.25566195  0.41286061  1  0.06996  0  0.113322  0.101308  0  1.012026  0
H  H32  1  0.66773626  0.48581541  0.21155195  1  0.087193  0  0.128785  0.123718  0  0.976724  0
H  H33  1  0.67595172  0.46296767  0.80048478  1  0.10343  0  0.128975  0.125008  0  0.974031  0
H  H34  1  0.17544056  0.99180362  0.70702860  1  0.106748  0  0.127781  0.122927  0  0.978458  0
H  H35  1  0.16627641  0.95695044  0.29278715  1  0.117126  0  0.129012  0.125199  0  0.973589  0
H  H36  1  0.48482664  0.05906903  0.04136614  1  0.016574  0  0.084167  0.077134  0  0.996193  0
H  H37  1  0.74380971  0.06813575  0.95811605  1  0.016165  0  0.089311  0.086636  0  0.978777  0
H  H38  1  0.98376269  0.56371560  0.52491874  1  0.031178  0  0.085145  0.078984  0  0.993896  0
H  H39  1  0.25863360  0.57384667  0.46498925  1  0.046446  0  0.089027  0.086158  0  0.97955  0
H  H40  1  0.48912917  0.03824577  0.96679446  1  0.018161  0  0.086501  0.08189  0  0.984128  0
H  H41  1  0.64581047  0.06898506  0.91560978  1  0.016684  0  0.087354  0.080883  0  0.996636  0
H  H42  1  0.00435980  0.54416788  0.45178794  1  0.004244  0  0.086463  0.081542  0  0.985005  0
H  H43  1  0.17092407  0.57619039  0.41446273  1  0.013935  0  0.087031  0.080782  0  0.994914  0
H  H44  1  0.45914016  0.88290550  0.98952016  1  0.020889  0  0.092619  0.094985  0  0.977811  0
H  H45  1  0.59223267  0.91171697  0.91789405  1  -0.010919  0  0.089427  0.086062  0  0.982717  0
H  H46  1  0.96856178  0.38849772  0.47355572  1  0.042502  0  0.091848  0.093886  0  0.98017  0
H  H47  1  0.11623721  0.41842859  0.41370864  1  0.015014  0  0.088883  0.084958  0  0.985616  0
H  H48  1  0.48752021  0.90748332  0.06243626  1  0.006779  0  0.087245  0.084041  0  0.982369  0
H  H49  1  0.70483839  0.90904243  0.94106180  1  0.004213  0  0.091447  0.089742  0  0.978972  0
H  H50  1  0.98110068  0.41152129  0.54788034  1  0.012437  0  0.087963  0.085447  0  0.980895  0
H  H51  1  0.22271747  0.41502682  0.44643379  1  0.021249  0  0.091605  0.090268  0  0.978729  0
H  H52  1  0.63192259  0.06276595  0.10010008  1  0.021393  0  0.085539  0.07956  0  0.986734  0
H  H53  1  0.74036503  0.09082158  0.06647763  1  -0.006193  0  0.08675  0.081148  0  0.988479  0
H  H54  1  0.11683168  0.56570001  0.59583472  1  -0.003322  0  0.085566  0.079276  0  0.986567  0
H  H55  1  0.23179363  0.59430800  0.57167165  1  0.022819  0  0.086522  0.080501  0  0.989035  0
H  H56  1  0.65227990  0.91295564  0.09886904  1  -0.014314  0  0.085016  0.078995  0  0.995537  0
H  H57  1  0.74114699  0.93638443  0.04793641  1  0.025555  0  0.088744  0.086838  0  0.980734  0
H  H58  1  0.13676159  0.41613668  0.59805172  1  0.027834  0  0.085741  0.079454  0  0.996756  0
H  H59  1  0.23586379  0.44036038  0.55491717  1  0.002234  0  0.088478  0.086376  0  0.980319  0
H  H60  1  0.36816690  0.20549612  0.18742369  1  0.074019  0  0.115047  0.126979  0  0.989186  0
H  H61  1  0.25793302  0.10713642  0.89052635  1  0.116882  0  0.116534  0.131477  0  0.988483  0
H  H62  1  0.87833687  0.71415222  0.69660629  1  0.059717  0  0.115698  0.128049  0  0.987601  0
H  H63  1  0.74897601  0.61049280  0.39680589  1  0.10424  0  0.116278  0.131549  0  0.986881  0
H  H64  1  0.53714015  0.63572868  0.68450578  1  0.057645  0  0.108796  0.114179  0  0.987821  0
H  H65  1  0.57075806  0.74925051  0.25785957  1  0.091752  0  0.106141  0.110285  0  1.003047  0
H  H66  1  0.02704423  0.12738385  0.17551051  1  0.110266  0  0.10961  0.115557  0  0.986813  0
H  H67  1  0.05683489  0.24161087  0.76455958  1  0.074706  0  0.106611  0.112559  0  1.006525  0
H  H68  1  0.11573345  0.21736688  0.09922308  1  0.104076  0  0.110637  0.11489  0  0.979072  0
H  H69  1  0.15028717  0.33756697  0.83836870  1  0.095933  0  0.109035  0.111426  0  0.989197  0
H  H70  1  0.62579769  0.72606588  0.60846518  1  0.066772  0  0.110301  0.114321  0  0.979937  0
H  H71  1  0.66640500  0.84657129  0.33038630  1  0.042674  0  0.108548  0.110591  0  0.988595  0
H  H72  1  0.91368210  0.66173463  0.08813393  1  0.041628  0  0.093525  0.092019  0  1.011205  0
H  H73  1  0.90127922  0.62191026  0.90414842  1  0.084616  0  0.091969  0.091511  0  1.051487  0
H  H74  1  0.41441208  0.15380343  0.58472049  1  0.039406  0  0.093773  0.092298  0  1.012541  0
H  H75  1  0.40787979  0.14177354  0.39962969  1  0.069885  0  0.093598  0.095812  0  1.038379  0
H  H76  1  0.08107805  0.67725571  0.08605113  1  0.033647  0  0.095877  0.096447  0  1.006802  0
H  H77  1  0.06768828  0.63499395  0.90247035  1  0.045619  0  0.098016  0.098584  0  1.003591  0
H  H78  1  0.58142496  0.16910406  0.58363604  1  0.06046  0  0.095639  0.096123  0  1.007414  0
H  H79  1  0.57455343  0.15479160  0.39881202  1  0.066655  0  0.097795  0.098652  0  1.001882  0
C  C80  1  0.37723887  0.28885263  0.91482320  1  0.403882  0  0.011578  -0.042165  0  3.948089  0
C  C81  1  0.40016713  0.28985216  0.08715738  1  0.434653  0  0.007421  -0.049785  0  3.971837  0
C  C82  1  0.87988731  0.79279341  0.41496504  1  0.417058  0  0.010955  -0.043735  0  3.951418  0
C  C83  1  0.90810293  0.79605442  0.59261249  1  0.394518  0  0.006531  -0.052254  0  3.973143  0
C  C84  1  0.29313649  0.37088029  0.08344700  1  0.363841  0  0.014788  -0.040605  0  3.95024  0
C  C85  1  0.28833468  0.38904423  0.91539691  1  0.41913  0  0.013297  -0.042089  0  3.961055  0
C  C86  1  0.79957085  0.87515987  0.58790348  1  0.387754  0  0.013387  -0.044082  0  3.952492  0
C  C87  1  0.79202607  0.89391977  0.41537800  1  0.402097  0  0.011389  -0.045649  0  3.96092  0
C  C88  1  0.23980568  0.63081986  0.94895656  1  0.365488  0  0.00263  -0.059647  0  3.984498  0
C  C89  1  0.23014445  0.61695600  0.04290863  1  0.376772  0  0.00188  -0.056501  0  3.991588  0
C  C90  1  0.74363578  0.13662978  0.44532548  1  0.39042  0  0.003087  -0.058668  0  3.980915  0
C  C91  1  0.73270018  0.11860552  0.53891022  1  0.39955  0  0.002158  -0.055638  0  3.991136  0
C  C92  1  0.62928214  0.23881199  0.05273632  1  0.375017  0  -0.001264  -0.072826  0  4.015737  0
C  C93  1  0.61463402  0.22825113  0.95875419  1  0.347355  0  -0.000746  -0.069272  0  4.012104  0
C  C94  1  0.13494267  0.74465982  0.54793556  1  0.393911  0  -0.003057  -0.075966  0  4.018374  0
C  C95  1  0.12018371  0.73265467  0.45398381  1  0.407571  0  0.001107  -0.06513  0  4.011073  0
C  C96  1  0.28680568  0.29675614  0.90177098  1  0.028142  0  -0.039683  -0.055661  0  4.078727  0
C  C97  1  0.30712393  0.28536479  0.10003314  1  0.00858  0  -0.040687  -0.057986  0  4.082963  0
C  C98  1  0.78981996  0.80152579  0.40175388  1  -0.009772  0  -0.039192  -0.053798  0  4.076762  0
C  C99  1  0.81594378  0.79218225  0.60758209  1  0.025194  0  -0.039562  -0.055038  0  4.083973  0
C  C100  1  0.18130878  0.63831373  0.99523619  1  0.047282  0  -0.041661  -0.050227  0  4.109111  0
C  C101  1  0.68467431  0.14256110  0.49162307  1  -0.0058  0  -0.04091  -0.048317  0  4.103668  0
C  C102  1  0.62781180  0.17728066  0.00643644  1  0.066861  0  -0.032833  -0.041717  0  4.022013  0
C  C103  1  0.13347100  0.68245232  0.50203537  1  0.021411  0  -0.032292  -0.041041  0  4.019253  0
C  C104  1  0.73333552  0.56415032  0.95298171  1  0.425819  0  0.007848  -0.037833  0  3.936315  0
C  C105  1  0.73834515  0.57483233  0.04759814  1  0.409143  0  0.005154  -0.05079  0  3.963715  0
C  C106  1  0.23841840  0.06764904  0.44697943  1  0.38815  0  0.008423  -0.034472  0  3.931551  0
C  C107  1  0.24020124  0.08174139  0.54149978  1  0.398996  0  0.005236  -0.049315  0  3.962628  0
C  C108  1  0.55146374  0.73745386  0.05532381  1  0.361064  0  -0.00087  -0.058009  0  3.984594  0
C  C109  1  0.56490304  0.73638196  0.96136992  1  0.415337  0  0.000655  -0.056506  0  3.979631  0
C  C110  1  0.05293480  0.24236760  0.55141318  1  0.466108  0  -0.001358  -0.058638  0  3.984961  0
C  C111  1  0.06932756  0.24092214  0.45764107  1  0.407885  0  0.001419  -0.052849  0  3.974052  0
C  C112  1  0.52994298  0.59411103  0.81600535  1  0.816424  0  0.180616  0.081541  0  3.980122  0
C  C113  1  0.49572385  0.58423295  0.19327260  1  0.790333  0  0.181539  0.082806  0  3.976519  0
C  C114  1  0.02475694  0.09240753  0.30987580  1  0.808611  0  0.180891  0.085194  0  3.977855  0
C  C115  1  0.99907054  0.08465744  0.69008659  1  0.779164  0  0.181385  0.080521  0  3.974278  0
C  C116  1  0.60852186  0.51307884  0.20009536  1  0.473463  0  0.017219  -0.049503  0  3.931867  0
C  C117  1  0.62406082  0.50131413  0.81090041  1  0.390542  0  0.014418  -0.059582  0  3.948375  0
C  C118  1  0.11506878  0.01747603  0.69597976  1  0.40799  0  0.017096  -0.05095  0  3.93107  0
C  C119  1  0.11614453  0.99701002  0.30390959  1  0.425615  0  0.015021  -0.059116  0  3.95053  0
C  C120  1  0.79293770  0.60014225  0.99902536  1  0.019311  0  -0.033299  -0.02977  0  4.055369  0
C  C121  1  0.29638403  0.10561074  0.49341165  1  0.029061  0  -0.033531  -0.033518  0  4.054105  0
C  C122  1  0.58359454  0.79498027  0.00967630  1  -0.047908  0  -0.03479  -0.049809  0  4.000846  0
C  C123  1  0.08676376  0.29968177  0.50596333  1  -0.110936  0  -0.034441  -0.050787  0  3.999417  0
C  C124  1  0.60391475  0.57625034  0.78283966  1  0.059974  0  -0.013656  -0.047345  0  4.034222  0
C  C125  1  0.56718258  0.57382772  0.23145434  1  0.016655  0  -0.009772  -0.040293  0  4.022515  0
C  C126  1  0.09507419  0.07078847  0.27504236  1  0.044563  0  -0.013792  -0.049941  0  4.039302  0
C  C127  1  0.06973317  0.07334349  0.72878099  1  0.081452  0  -0.010396  -0.040243  0  4.017729  0
C  C128  1  0.52046856  0.02718664  0.00815112  1  -0.030329  0  -0.161018  -0.183287  0  3.88567  0
C  C129  1  0.66872574  0.04162564  0.95504823  1  -0.024104  0  -0.159567  -0.185343  0  3.870865  0
C  C130  1  0.02622783  0.53235566  0.49561414  1  -0.034661  0  -0.161796  -0.185377  0  3.886636  0
C  C131  1  0.18473196  0.54762147  0.45571806  1  -0.09016  0  -0.15927  -0.184742  0  3.867952  0
C  C132  1  0.51084386  0.92494872  0.01856293  1  0.00099  0  -0.160897  -0.187788  0  3.867565  0
C  C133  1  0.64396329  0.93593386  0.95196531  1  0.022511  0  -0.159235  -0.187107  0  3.866203  0
C  C134  1  0.01380069  0.42986956  0.50627669  1  -0.029526  0  -0.160941  -0.18762  0  3.866842  0
C  C135  1  0.16017207  0.44180863  0.45167192  1  0.005046  0  -0.159499  -0.188349  0  3.865728  0
C  C136  1  0.66998524  0.04854696  0.06182072  1  -0.013899  0  -0.160619  -0.187097  0  3.870538  0
C  C137  1  0.16281141  0.55225470  0.56139559  1  -0.021587  0  -0.159715  -0.184734  0  3.870747  0
C  C138  1  0.62369717  0.07670172  0.00786350  1  0.050468  0  -0.011914  0.12535  0  3.835697  0
C  C139  1  0.12886223  0.58177227  0.50376875  1  0.062078  0  -0.012405  0.124752  0  3.833661  0
C  C140  1  0.60468666  0.89766793  0.00969982  1  0.108742  0  -0.009352  0.129736  0  3.825469  0
C  C141  1  0.10851926  0.40244668  0.50589622  1  0.127116  0  -0.009663  0.1296  0  3.822705  0
C  C142  1  0.67139646  0.94549053  0.05757731  1  -0.007153  0  -0.159437  -0.186305  0  3.868562  0
C  C143  1  0.16468057  0.44932584  0.55840121  1  -0.028835  0  -0.16006  -0.187112  0  3.869468  0
C  C144  1  0.29343124  0.18681543  0.18288495  1  0.044375  0  -0.081737  -0.180021  0  3.946093  0
C  C145  1  0.21468454  0.13884723  0.86346049  1  0.024455  0  -0.082103  -0.179153  0  3.931102  0
C  C146  1  0.80357318  0.69567566  0.69207208  1  0.033641  0  -0.081034  -0.178478  0  3.941328  0
C  C147  1  0.71077920  0.64308049  0.36686819  1  0.063682  0  -0.08026  -0.175836  0  3.92876  0
C  C148  1  0.75212475  0.64798856  0.73544991  1  0.225687  0  0.078053  0.031663  0  3.945926  0
C  C149  1  0.65350435  0.58822561  0.32631400  1  0.14711  0  0.07669  0.03012  0  3.908782  0
C  C150  1  0.24210654  0.13974901  0.22642437  1  0.118741  0  0.077633  0.032545  0  3.946808  0
C  C151  1  0.15835108  0.08438974  0.82240709  1  0.197612  0  0.077735  0.03394  0  3.907759  0
C  C152  1  0.65504033  0.62584095  0.73550138  1  -0.014362  0  -0.003968  0.031453  0  4.027864  0
C  C153  1  0.60427830  0.62391012  0.28401033  1  0.090822  0  -0.002397  0.038936  0  4.019343  0
C  C154  1  0.14505228  0.11806099  0.22659081  1  0.086502  0  -0.004604  0.032936  0  4.026558  0
C  C155  1  0.10358077  0.11955142  0.78304244  1  0.022489  0  -0.002286  0.038369  0  4.019122  0
C  C156  1  0.61206160  0.65349560  0.68735549  1  -0.025814  0  -0.078397  -0.097617  0  3.978238  0
C  C157  1  0.60800275  0.71812825  0.28909842  1  -0.056171  0  -0.082204  -0.105557  0  3.987952  0
C  C158  1  0.10198725  0.14497575  0.17824603  1  0.002389  0  -0.079255  -0.100834  0  3.976582  0
C  C159  1  0.09944093  0.21128776  0.79284558  1  0.00229  0  -0.083348  -0.108219  0  3.984638  0
C  C160  1  0.15234095  0.19534630  0.13495051  1  -0.030663  0  -0.080595  -0.121266  0  3.943295  0
C  C161  1  0.15287542  0.26572269  0.83473276  1  -0.072306  0  -0.081265  -0.115091  0  3.95267  0
C  C162  1  0.66239394  0.70414021  0.64423279  1  -0.007021  0  -0.080662  -0.121689  0  3.946888  0
C  C163  1  0.66254228  0.77325371  0.33022414  1  0.0456  0  -0.079878  -0.11378  0  3.951442  0
C  C164  1  0.24927249  0.21951593  0.13714621  1  -0.035764  0  0.005869  0.119179  0  4.022065  0
C  C165  1  0.21633864  0.23260107  0.86875473  1  0.031161  0  0.002765  0.110233  0  4.03182  0
C  C166  1  0.75936667  0.72812579  0.64624734  1  0.083111  0  0.003946  0.116121  0  4.024828  0
C  C167  1  0.71915557  0.73811955  0.36829996  1  0.011893  0  0.002508  0.110263  0  4.029058  0
C  C168  1  0.94682035  0.65586640  0.04700517  1  -0.069976  0  -0.102421  -0.141431  0  4.028389  0
C  C169  1  0.93985959  0.63377192  0.94448163  1  -0.051909  0  -0.097503  -0.125577  0  3.985449  0
C  C170  1  0.44884556  0.15435941  0.54349231  1  -0.072973  0  -0.102349  -0.141387  0  4.029513  0
C  C171  1  0.44516548  0.14734085  0.44040915  1  -0.040611  0  -0.096484  -0.128873  0  3.982664  0
C  C172  1  0.04172948  0.66423259  0.04593878  1  -0.046875  0  -0.102512  -0.142109  0  4.020034  0
C  C173  1  0.03462797  0.64166209  0.94351824  1  -0.011621  0  -0.097634  -0.131486  0  3.996892  0
C  C174  1  0.54366023  0.16242445  0.54296471  1  -0.083127  0  -0.10245  -0.14158  0  4.020932  0
C  C175  1  0.54003140  0.15492866  0.43997388  1  -0.039278  0  -0.096251  -0.130086  0  3.993042  0
C  C176  1  0.08705373  0.65147398  0.99457828  1  -0.032381  0  -0.016139  0.078446  0  4.064714  0
C  C177  1  0.59071461  0.15670103  0.49125659  1  0.049603  0  -0.016423  0.077585  0  4.062851  0
C  C178  1  0.89286900  0.63474454  0.99669689  1  -0.008139  0  -0.016453  0.075407  0  4.045813  0
C  C179  1  0.39641000  0.14061194  0.49232806  1  -0.018953  0  -0.016633  0.076688  0  4.045134  0
N  N180  1  0.42797258  0.37058728  0.93292825  1  -0.784782  0  -0.273559  -0.168691  0  3.60116  0
N  N181  1  0.43828893  0.37212496  0.06596940  1  -0.794994  0  -0.278934  -0.181109  0  3.607371  0
N  N182  1  0.93120925  0.87435219  0.43310618  1  -0.797228  0  -0.275892  -0.174285  0  3.602901  0
N  N183  1  0.94344960  0.87561855  0.56717288  1  -0.782874  0  -0.276586  -0.177173  0  3.604306  0
N  N184  1  0.37262726  0.42228584  0.06412081  1  -0.753503  0  -0.271229  -0.16923  0  3.592497  0
N  N185  1  0.37298176  0.43193458  0.93354580  1  -0.755774  0  -0.270907  -0.172767  0  3.606377  0
N  N186  1  0.87691584  0.92474783  0.56476283  1  -0.773628  0  -0.270217  -0.169192  0  3.584821  0
N  N187  1  0.87680975  0.93624036  0.43371183  1  -0.767696  0  -0.271801  -0.175369  0  3.604492  0
N  N188  1  0.31643953  0.60665683  0.96791314  1  -0.772483  0  -0.272512  -0.173673  0  3.551965  0
N  N189  1  0.31019316  0.59787099  0.02611361  1  -0.815634  0  -0.276936  -0.180043  0  3.569166  0
N  N190  1  0.81967527  0.11090481  0.46392082  1  -0.794973  0  -0.274073  -0.173979  0  3.553629  0
N  N191  1  0.81263965  0.09954713  0.52190067  1  -0.791679  0  -0.276457  -0.181453  0  3.566962  0
N  N192  1  0.61767070  0.31997614  0.03400315  1  -0.805138  0  -0.280845  -0.179111  0  3.573067  0
N  N193  1  0.60845082  0.31328698  0.97545743  1  -0.787523  0  -0.279843  -0.179245  0  3.578747  0
N  N194  1  0.12312873  0.82549954  0.52868042  1  -0.793108  0  -0.281218  -0.179906  0  3.570387  0
N  N195  1  0.11383226  0.81781887  0.47015096  1  -0.785614  0  -0.279827  -0.179134  0  3.584635  0
N  N196  1  0.65127241  0.51951189  0.97297661  1  -0.774693  0  -0.287777  -0.188281  0  3.633824  0
N  N197  1  0.65420562  0.52614322  0.03127035  1  -0.814873  0  -0.290868  -0.185009  0  3.641555  0
N  N198  1  0.15580646  0.02342029  0.46643596  1  -0.800188  0  -0.288249  -0.190592  0  3.636433  0
N  N199  1  0.15674193  0.03201792  0.52466889  1  -0.784579  0  -0.290503  -0.186446  0  3.63902  0
N  N200  1  0.51493809  0.65183328  0.03516312  1  -0.765278  0  -0.284942  -0.187681  0  3.615538  0
N  N201  1  0.52306997  0.65121212  0.97703835  1  -0.808319  0  -0.286622  -0.181903  0  3.612433  0
N  N202  1  0.01679756  0.15671980  0.53116292  1  -0.793347  0  -0.283914  -0.187755  0  3.615159  0
N  N203  1  0.02669975  0.15587049  0.47316130  1  -0.780849  0  -0.287501  -0.18351  0  3.612452  0
N  N204  1  0.51063819  0.53637705  0.85976931  1  -0.737537  0  -0.236155  -0.200993  0  3.484011  0
N  N205  1  0.49625012  0.53476197  0.14452119  1  -0.692794  0  -0.236016  -0.206161  0  3.485936  0
N  N206  1  0.00824370  0.03778011  0.35529942  1  -0.732886  0  -0.236457  -0.199578  0  3.487947  0
N  N207  1  0.00402857  0.04027607  0.63988230  1  -0.70138  0  -0.234756  -0.205527  0  3.486268  0
N  N208  1  0.56489193  0.49083926  0.14884645  1  -0.735905  0  -0.234875  -0.107067  0  3.532428  0
N  N209  1  0.56796605  0.47909497  0.85654049  1  -0.68742  0  -0.232319  -0.112207  0  3.496184  0
N  N210  1  0.07429963  0.99859442  0.64365814  1  -0.724251  0  -0.234252  -0.107538  0  3.530029  0
N  N211  1  0.06396480  0.97889456  0.35152197  1  -0.70178  0  -0.233056  -0.109287  0  3.500805  0
N  N212  1  0.80558994  0.63091349  0.78571827  1  0.373069  0  0.057421  0.516826  0  4.215378  0
N  N213  1  0.64594887  0.48867385  0.32927366  1  0.356419  0  0.054757  0.517238  0  4.212112  0
N  N214  1  0.29603983  0.12428653  0.27694331  1  0.380036  0  0.057253  0.516377  0  4.218791  0
N  N215  1  0.15846595  0.98604633  0.82132379  1  0.393781  0  0.05416  0.516412  0  4.209471  0
N  N216  1  0.47731724  0.66245941  0.81298039  1  0.288628  0  0.055973  0.504082  0  4.213509  0
N  N217  1  0.42272709  0.63123077  0.19799723  1  0.279671  0  0.053337  0.500763  0  4.209945  0
N  N218  1  0.97360975  0.16199798  0.30676752  1  0.288912  0  0.056366  0.504697  0  4.21458  0
N  N219  1  0.92269664  0.12682774  0.69529977  1  0.283137  0  0.054519  0.503577  0  4.209926  0
O  O220  1  0.78738222  0.66304172  0.83259051  1  -0.460317  0  -0.111861  -0.313828  0  1.936429  0
O  O221  1  0.86672789  0.58793539  0.77772734  1  -0.438485  0  -0.136405  -0.334867  0  1.847006  0
O  O222  1  0.56958469  0.43778305  0.31871998  1  -0.442239  0  -0.139067  -0.337355  0  1.878773  0
O  O223  1  0.71636650  0.46237644  0.34289612  1  -0.4521  0  -0.149711  -0.348649  0  1.853497  0
O  O224  1  0.27954322  0.15953132  0.32319587  1  -0.453639  0  -0.112021  -0.314605  0  1.93174  0
O  O225  1  0.35615679  0.07990410  0.26959444  1  -0.448185  0  -0.138488  -0.336678  0  1.847685  0
O  O226  1  0.08404799  0.93121225  0.81171607  1  -0.466139  0  -0.139756  -0.337746  0  1.876534  0
O  O227  1  0.23293232  0.96452433  0.83090872  1  -0.455068  0  -0.151278  -0.350683  0  1.849927  0
O  O228  1  0.49061467  0.71706984  0.77340464  1  -0.419853  0  -0.122802  -0.311826  0  1.886533  0
O  O229  1  0.41872150  0.66412560  0.85196118  1  -0.514354  0  -0.143236  -0.345112  0  1.989845  0
O  O230  1  0.37166763  0.63023794  0.15411201  1  -0.518848  0  -0.147554  -0.350825  0  1.996218  0
O  O231  1  0.41085737  0.67002983  0.24376099  1  -0.425228  0  -0.124275  -0.312018  0  1.882533  0
O  O232  1  0.98380449  0.21276061  0.26517584  1  -0.434182  0  -0.123679  -0.313407  0  1.88486  0
O  O233  1  0.91967491  0.16850484  0.34762971  1  -0.506476  0  -0.142638  -0.345597  0  1.986438  0
O  O234  1  0.87300002  0.12716406  0.65085865  1  -0.525183  0  -0.150346  -0.353564  0  2.002765  0
O  O235  1  0.90618946  0.16019602  0.74199208  1  -0.42739  0  -0.125466  -0.314133  0  1.886714  0
