# generated using pymatgen
data_AlC12S3(ClO2)3
_symmetry_space_group_name_H-M   'P 1'
_cell_length_a   3.96914806
_cell_length_b   20.15006374
_cell_length_c   20.15003861
_cell_angle_alpha   120.00008018
_cell_angle_beta   89.99997008
_cell_angle_gamma   90.00024358
_symmetry_Int_Tables_number   1
_chemical_formula_structural   AlC12S3(ClO2)3
_chemical_formula_sum   'Al2 C24 S6 Cl6 O12'
_cell_volume   1395.66082105
_cell_formula_units_Z   2
loop_
 _symmetry_equiv_pos_site_id
 _symmetry_equiv_pos_as_xyz
  1  'x, y, z'
loop_
 _atom_site_type_symbol
 _atom_site_label
 _atom_site_symmetry_multiplicity
 _atom_site_fract_x
 _atom_site_fract_y
 _atom_site_fract_z
 _atom_site_occupancy
 _atom_site_pbe_bader_charge
 _atom_site_pbe_bader_spin_density
 _atom_site_pbe_cm5_charge
 _atom_site_pbe_ddec_charge
 _atom_site_pbe_ddec_spin_density
 _atom_site_pbe_ddec_sum_bond_order
 _atom_site_pbe_magmom
Al  Al0  1  0.00087871  0.50000077  0.49999889  1  2.504514  0  0.424671  1.601023  0  2.559371  0
Al  Al1  1  0.00086997  0.16666771  0.83333180  1  2.504537  0  0.424676  1.601018  0  2.559371  0
C  C2  1  0.50096037  0.44099104  0.38254863  1  1.566359  0  0.27356  0.685239  0  4.07792  0
C  C3  1  0.50095011  0.44156168  0.55900924  1  1.567642  0  0.273689  0.685455  0  4.077625  0
C  C4  1  0.50096699  0.61745122  0.55843935  1  1.567096  0  0.273655  0.685351  0  4.07794  0
C  C5  1  0.50096030  0.22510743  0.77432060  1  1.567161  0  0.273581  0.68519  0  4.077887  0
C  C6  1  0.50094594  0.04921730  0.77489506  1  1.567343  0  0.273709  0.685441  0  4.077737  0
C  C7  1  0.50094248  0.22567935  0.95078191  1  1.566403  0  0.273756  0.68554  0  4.077418  0
C  C8  1  0.49009109  0.42880661  0.67971371  1  0.172321  0  0.001776  0.089996  0  4.094915  0
C  C9  1  0.49007913  0.23785973  0.65361394  1  0.171542  0  0.001808  0.090157  0  4.094846  0
C  C10  1  0.49917343  0.39885325  0.60112721  1  -0.118935  0  -0.020945  -0.178286  0  3.910726  0
C  C11  1  0.49917198  0.26781330  0.73220122  1  -0.118778  0  -0.0209  -0.178148  0  3.910695  0
C  C12  1  0.50390891  0.29656033  0.63432063  1  -0.088428  0  -0.030997  -0.075716  0  4.09843  0
C  C13  1  0.50391965  0.37010594  0.69900808  1  -0.140021  0  -0.030834  -0.075375  0  4.097982  0
C  C14  1  0.49009444  0.75090997  0.57119364  1  0.132593  0  0.001753  0.089985  0  4.094909  0
C  C15  1  0.49007825  0.91575885  0.76214283  1  0.1326  0  0.001694  0.089936  0  4.095097  0
C  C16  1  0.49917900  0.70227629  0.60114755  1  -0.078892  0  -0.020889  -0.17812  0  3.910782  0
C  C17  1  0.49916888  0.96439176  0.73218872  1  -0.078801  0  -0.020853  -0.178174  0  3.910832  0
C  C18  1  0.50390670  0.83776408  0.70344204  1  -0.070236  0  -0.030805  -0.075293  0  4.09792  0
C  C19  1  0.50391173  0.82890518  0.62989600  1  -0.155008  0  -0.031022  -0.075698  0  4.098229  0
C  C20  1  0.49009552  0.32028548  0.24908974  1  0.089526  0  0.001834  0.090099  0  4.094835  0
C  C21  1  0.49007832  0.34638398  0.08424081  1  0.089327  0  0.001704  0.089959  0  4.095078  0
C  C22  1  0.49917628  0.39887303  0.29772283  1  -0.027627  0  -0.020941  -0.178167  0  3.910742  0
C  C23  1  0.49916518  0.26779644  0.03560772  1  -0.027582  0  -0.020876  -0.178249  0  3.910849  0
C  C24  1  0.50391011  0.36567760  0.16223548  1  -0.074446  0  -0.030844  -0.075346  0  4.09791  0
C  C25  1  0.50391449  0.30099138  0.17109457  1  -0.152649  0  -0.031029  -0.075768  0  4.098267  0
S  S26  1  0.51858724  0.29928496  0.55044466  1  0.316159  0  0.099056  0.15861  0  2.797925  0
S  S27  1  0.51860782  0.36738183  0.78288456  1  0.316257  0  0.099  0.158494  0  2.797701  0
S  S28  1  0.51859160  0.75116284  0.70071647  1  0.319864  0  0.099005  0.158461  0  2.797794  0
S  S29  1  0.51860088  0.91550466  0.63262038  1  0.319865  0  0.099051  0.158595  0  2.797846  0
S  S30  1  0.51858907  0.44955481  0.24883647  1  0.313563  0  0.099014  0.158495  0  2.797708  0
S  S31  1  0.51859952  0.21711518  0.08449458  1  0.313694  0  0.099067  0.15865  0  2.797833  0
Cl  Cl32  1  0.48417131  0.52429746  0.74644493  1  -0.173764  0  0.004722  -0.0363  0  1.517005  0
Cl  Cl33  1  0.48413743  0.14236915  0.58688242  1  -0.173439  0  0.004721  -0.036351  0  1.517033  0
Cl  Cl34  1  0.48416855  0.72215234  0.47570420  1  -0.17347  0  0.004745  -0.036295  0  1.517044  0
Cl  Cl35  1  0.48414265  0.94451854  0.85763318  1  -0.173546  0  0.004744  -0.036319  0  1.517166  0
Cl  Cl36  1  0.48417415  0.25355453  0.27784964  1  -0.17216  0  0.004756  -0.036277  0  1.516979  0
Cl  Cl37  1  0.48414828  0.41311436  0.05548148  1  -0.172207  0  0.004757  -0.036305  0  1.517151  0
O  O38  1  0.73599188  0.58419879  0.57402852  1  -1.242611  0  -0.23582  -0.588789  0  2.343826  0
O  O39  1  0.73598859  0.48983159  0.41580044  1  -1.243948  0  -0.235753  -0.588721  0  2.343862  0
O  O40  1  0.73597777  0.42597139  0.51016700  1  -1.244947  0  -0.235845  -0.588776  0  2.343726  0
O  O41  1  0.26689884  0.58383693  0.50970516  1  -1.247241  0  -0.23308  -0.588771  0  2.366312  0
O  O42  1  0.26688524  0.49029602  0.57412968  1  -1.239108  0  -0.233106  -0.588847  0  2.366323  0
O  O43  1  0.26689232  0.42587002  0.41616280  1  -1.24639  0  -0.233055  -0.588745  0  2.366237  0
O  O44  1  0.73597483  0.17683779  0.91752950  1  -1.243798  0  -0.235902  -0.588855  0  2.343589  0
O  O45  1  0.73598565  0.24069691  0.82316302  1  -1.244975  0  -0.235787  -0.588714  0  2.343724  0
O  O46  1  0.73597406  0.08246928  0.75930471  1  -1.242059  0  -0.235898  -0.588825  0  2.34372  0
O  O47  1  0.26687732  0.24079912  0.91716665  1  -1.246605  0  -0.233144  -0.588882  0  2.366206  0
O  O48  1  0.26687836  0.08283269  0.82362878  1  -1.248115  0  -0.233103  -0.588828  0  2.366288  0
O  O49  1  0.26688945  0.17637275  0.75920113  1  -1.238576  0  -0.233075  -0.588752  0  2.366344  0
