# generated using pymatgen
data_ZnH6C7N4O3
_symmetry_space_group_name_H-M   'P 1'
_cell_length_a   4.82575012
_cell_length_b   10.46660773
_cell_length_c   17.33621242
_cell_angle_alpha   89.99999477
_cell_angle_beta   91.15304780
_cell_angle_gamma   90.00012587
_symmetry_Int_Tables_number   1
_chemical_formula_structural   ZnH6C7N4O3
_chemical_formula_sum   'Zn4 H24 C28 N16 O12'
_cell_volume   875.46149181
_cell_formula_units_Z   4
loop_
 _symmetry_equiv_pos_site_id
 _symmetry_equiv_pos_as_xyz
  1  'x, y, z'
loop_
 _atom_site_type_symbol
 _atom_site_label
 _atom_site_symmetry_multiplicity
 _atom_site_fract_x
 _atom_site_fract_y
 _atom_site_fract_z
 _atom_site_occupancy
 _atom_site_hle17_bader_spin_density
 _atom_site_hle17_ddec_charge
 _atom_site_hle17_ddec_spin_density
 _atom_site_hle17_ddec_sum_bond_order
 _atom_site_hle17_magmom
 _atom_site_hse06_10hf_bader_spin_density
 _atom_site_hse06_10hf_ddec_charge
 _atom_site_hse06_10hf_ddec_spin_density
 _atom_site_hse06_10hf_ddec_sum_bond_order
 _atom_site_hse06_10hf_magmom
 _atom_site_hse06_bader_spin_density
 _atom_site_hse06_ddec_charge
 _atom_site_hse06_ddec_spin_density
 _atom_site_hse06_ddec_sum_bond_order
 _atom_site_hse06_magmom
 _atom_site_pbe_bader_spin_density
 _atom_site_pbe_cm5_charge
 _atom_site_pbe_ddec_charge
 _atom_site_pbe_ddec_spin_density
 _atom_site_pbe_ddec_sum_bond_order
 _atom_site_pbe_magmom
Zn  Zn0  1  0.15347860  0.25140339  0.17892500  1  0  1.049631  0  1.819166  0  0  0.861263  0  2.294907  0  0  0.906163  0  2.241781  0  0  0.721496  0.82971  0  2.331592  0
Zn  Zn1  1  0.34652080  0.75140406  0.32107616  1  0  1.049654  0  1.819151  0  0  0.861282  0  2.294917  0  0  0.906182  0  2.241777  0  0  0.721505  0.82973  0  2.331598  0
Zn  Zn2  1  0.84651982  0.74859726  0.82107561  1  0  1.049618  0  1.819182  0  0  0.861254  0  2.294942  0  0  0.906154  0  2.241812  0  0  0.721492  0.829702  0  2.331626  0
Zn  Zn3  1  0.65347763  0.24859658  0.67892445  1  0  1.049634  0  1.819149  0  0  0.861266  0  2.294902  0  0  0.906167  0  2.241774  0  0  0.721484  0.829708  0  2.331582  0
H  H4  1  0.45799916  0.03553226  0.27643138  1  0  0.08716  0  0.94951  0  0  0.091177  0  1.023024  0  0  0.094462  0  1.018631  0  0  0.127993  0.088806  0  1.026075  0
H  H5  1  0.04200127  0.53553168  0.22356921  1  0  0.087191  0  0.949498  0  0  0.091208  0  1.023012  0  0  0.094494  0  1.018617  0  0  0.128001  0.088837  0  1.026064  0
H  H6  1  0.54199927  0.96446839  0.72356923  1  0  0.087163  0  0.949484  0  0  0.091201  0  1.022979  0  0  0.09449  0  1.018586  0  0  0.127986  0.088829  0  1.026032  0
H  H7  1  0.95799922  0.46446801  0.77643082  1  0  0.087174  0  0.949493  0  0  0.091191  0  1.023007  0  0  0.094477  0  1.018611  0  0  0.128003  0.088819  0  1.026059  0
H  H8  1  0.51801131  0.88286988  0.02100634  1  0  0.317762  0  0.917556  0  0  0.295108  0  0.983735  0  0  0.305084  0  0.975809  0  0  0.30786  0.288026  0  0.989456  0
H  H9  1  0.98199172  0.38287141  0.47899342  1  0  0.317752  0  0.917563  0  0  0.295105  0  0.98374  0  0  0.305083  0  0.975813  0  0  0.307858  0.288023  0  0.989459  0
H  H10  1  0.48198916  0.11712790  0.97899312  1  0  0.31774  0  0.917597  0  0  0.295091  0  0.983772  0  0  0.305069  0  0.975845  0  0  0.307854  0.28801  0  0.989493  0
H  H11  1  0.01800875  0.61712829  0.52100604  1  0  0.317763  0  0.917546  0  0  0.295108  0  0.983727  0  0  0.305085  0  0.975801  0  0  0.307858  0.288026  0  0.989448  0
H  H12  1  0.61034911  0.68237421  0.07720204  1  0  0.070007  0  0.923336  0  0  0.084397  0  0.979899  0  0  0.085748  0  0.977776  0  0  0.134286  0.08367  0  0.980724  0
H  H13  1  0.88965503  0.18237565  0.42279717  1  0  0.070041  0  0.923317  0  0  0.084426  0  0.979889  0  0  0.085777  0  0.977766  0  0  0.134299  0.083699  0  0.980714  0
H  H14  1  0.38965551  0.31762453  0.92279744  1  0  0.070007  0  0.923328  0  0  0.084397  0  0.979892  0  0  0.085748  0  0.977769  0  0  0.134285  0.08367  0  0.980717  0
H  H15  1  0.11034339  0.81762405  0.57720286  1  0  0.070053  0  0.923305  0  0  0.084439  0  0.979875  0  0  0.085791  0  0.977752  0  0  0.134312  0.083713  0  0.980701  0
H  H16  1  0.94902924  0.46256868  0.06698445  1  0  0.141536  0  0.954104  0  0  0.163241  0  1.01005  0  0  0.165179  0  1.010015  0  0  0.10043  0.161764  0  1.010127  0
H  H17  1  0.55097005  0.96257000  0.43301645  1  0  0.141506  0  0.954052  0  0  0.163202  0  1.010032  0  0  0.165139  0  1.009999  0  0  0.100417  0.161725  0  1.01011  0
H  H18  1  0.05096917  0.53743101  0.93301558  1  0  0.141492  0  0.95406  0  0  0.163195  0  1.010021  0  0  0.165133  0  1.009987  0  0  0.10041  0.161718  0  1.010097  0
H  H19  1  0.44902837  0.03743161  0.56698415  1  0  0.141458  0  0.954139  0  0  0.163161  0  1.010107  0  0  0.165099  0  1.010073  0  0  0.100381  0.161684  0  1.010184  0
H  H20  1  0.66498516  0.44951458  0.99954362  1  0  0.127585  0  0.981022  0  0  0.144983  0  1.044265  0  0  0.147312  0  1.043214  0  0  0.09229  0.14334  0  1.044729  0
H  H21  1  0.83501326  0.94951624  0.50045643  1  0  0.127543  0  0.981061  0  0  0.144945  0  1.044297  0  0  0.147273  0  1.043247  0  0  0.092267  0.143302  0  1.044763  0
H  H22  1  0.33501325  0.55048607  0.00045641  1  0  0.12757  0  0.981058  0  0  0.144965  0  1.044302  0  0  0.147294  0  1.043252  0  0  0.092279  0.143322  0  1.044768  0
H  H23  1  0.16498723  0.05048536  0.49954361  1  0  0.127576  0  0.981038  0  0  0.144974  0  1.04428  0  0  0.147303  0  1.04323  0  0  0.092279  0.143331  0  1.044747  0
H  H24  1  0.91175077  0.32355706  0.01077508  1  0  0.152925  0  0.949517  0  0  0.169148  0  1.014217  0  0  0.172187  0  1.012862  0  0  0.103063  0.167105  0  1.014939  0
H  H25  1  0.58825199  0.82355840  0.48922526  1  0  0.152905  0  0.949574  0  0  0.169132  0  1.014267  0  0  0.17217  0  1.012913  0  0  0.103042  0.167089  0  1.014989  0
H  H26  1  0.08824972  0.67644264  0.98922495  1  0  0.152921  0  0.949524  0  0  0.169142  0  1.014225  0  0  0.17218  0  1.01287  0  0  0.103061  0.167099  0  1.014949  0
H  H27  1  0.41175058  0.17644320  0.51077536  1  0  0.152918  0  0.949522  0  0  0.169143  0  1.014215  0  0  0.172181  0  1.01286  0  0  0.103063  0.167099  0  1.014939  0
C  C28  1  0.00031675  0.97669084  0.14425999  1  0  -0.063894  0  3.784466  0  0  -0.062972  0  4.031758  0  0  -0.071415  0  4.055591  0  0  0.07141  -0.058001  0  4.015912  0
C  C29  1  0.49968163  0.47669145  0.35574000  1  0  -0.064016  0  3.78437  0  0  -0.063029  0  4.031675  0  0  -0.071477  0  4.055519  0  0  0.071368  -0.058057  0  4.015826  0
C  C30  1  0.99968166  0.02330885  0.85574004  1  0  -0.064025  0  3.784535  0  0  -0.063043  0  4.03181  0  0  -0.071495  0  4.055655  0  0  0.071395  -0.058073  0  4.015965  0
C  C31  1  0.50031679  0.52330920  0.64426003  1  0  -0.064006  0  3.784557  0  0  -0.06304  0  4.031811  0  0  -0.071491  0  4.055654  0  0  0.071387  -0.058069  0  4.015961  0
C  C32  1  0.04910574  0.85483094  0.17585132  1  0  0.33342  0  3.845246  0  0  0.305703  0  4.114625  0  0  0.319448  0  4.133505  0  0  0.202812  0.296634  0  4.101853  0
C  C33  1  0.45089620  0.35483246  0.32414869  1  0  0.333436  0  3.845187  0  0  0.30565  0  4.114648  0  0  0.319394  0  4.133531  0  0  0.202781  0.296581  0  4.101874  0
C  C34  1  0.95089681  0.14516780  0.82414815  1  0  0.333529  0  3.845118  0  0  0.305758  0  4.114552  0  0  0.319506  0  4.133432  0  0  0.202821  0.29669  0  4.101777  0
C  C35  1  0.54910222  0.64516819  0.67585192  1  0  0.33336  0  3.845297  0  0  0.305655  0  4.114664  0  0  0.319401  0  4.133547  0  0  0.202791  0.296585  0  4.101893  0
C  C36  1  0.31103317  0.99296083  0.23548822  1  0  0.25329  0  3.689074  0  0  0.196827  0  3.959253  0  0  0.211935  0  3.972436  0  0  0.144934  0.186852  0  3.94982  0
C  C37  1  0.18896737  0.49296113  0.26451235  1  0  0.253202  0  3.689091  0  0  0.19674  0  3.959269  0  0  0.211848  0  3.972453  0  0  0.144885  0.186763  0  3.94984  0
C  C38  1  0.68896524  0.00703887  0.76451181  1  0  0.253292  0  3.688962  0  0  0.196809  0  3.959133  0  0  0.211911  0  3.972321  0  0  0.144914  0.186833  0  3.949702  0
C  C39  1  0.81103312  0.50703952  0.73548768  1  0  0.253266  0  3.689042  0  0  0.196809  0  3.959242  0  0  0.211917  0  3.972423  0  0  0.144917  0.186832  0  3.94981  0
C  C40  1  0.80782019  0.99217478  0.08130695  1  0  0.522915  0  3.867789  0  0  0.472766  0  4.161429  0  0  0.50151  0  4.163326  0  0  0.227162  0.453648  0  4.159796  0
C  C41  1  0.69218549  0.49217889  0.41869513  1  0  0.523104  0  3.867659  0  0  0.472873  0  4.161406  0  0  0.501615  0  4.163302  0  0  0.227264  0.453754  0  4.159772  0
C  C42  1  0.19218238  0.00782300  0.91869367  1  0  0.523029  0  3.867758  0  0  0.472813  0  4.161486  0  0  0.501559  0  4.163378  0  0  0.227184  0.453695  0  4.159857  0
C  C43  1  0.30781708  0.50782367  0.58130550  1  0  0.52303  0  3.867762  0  0  0.472833  0  4.161467  0  0  0.50158  0  4.16336  0  0  0.22718  0.453715  0  4.159834  0
C  C44  1  0.73160184  0.76316644  0.09863399  1  0  0.319077  0  3.722118  0  0  0.258822  0  4.009137  0  0  0.277983  0  4.017491  0  0  0.178222  0.24628  0  4.002686  0
C  C45  1  0.76840269  0.26316776  0.40136579  1  0  0.318968  0  3.722134  0  0  0.258717  0  4.009151  0  0  0.277879  0  4.017504  0  0  0.178152  0.246175  0  4.002702  0
C  C46  1  0.26840071  0.23683230  0.90136548  1  0  0.319083  0  3.722116  0  0  0.258833  0  4.009131  0  0  0.277995  0  4.017485  0  0  0.178217  0.246289  0  4.002682  0
C  C47  1  0.23159572  0.73683289  0.59863424  1  0  0.318994  0  3.72204  0  0  0.258741  0  4.009068  0  0  0.277903  0  4.01742  0  0  0.178148  0.246197  0  4.002622  0
C  C48  1  0.63010293  0.33502959  0.10278929  1  0  0.767829  0  3.823677  0  0  0.724252  0  4.109647  0  0  0.759589  0  4.100669  0  0  0.215602  0.700453  0  4.114417  0
C  C49  1  0.86989578  0.83502836  0.39721277  1  0  0.767964  0  3.823466  0  0  0.724317  0  4.109548  0  0  0.75965  0  4.100572  0  0  0.215659  0.700516  0  4.114318  0
C  C50  1  0.36989549  0.66497011  0.89721074  1  0  0.767852  0  3.82362  0  0  0.724289  0  4.109568  0  0  0.759625  0  4.100589  0  0  0.215635  0.70049  0  4.114336  0
C  C51  1  0.13010474  0.16497038  0.60278900  1  0  0.767913  0  3.823648  0  0  0.724394  0  4.109542  0  0  0.759731  0  4.100561  0  0  0.215689  0.700592  0  4.114312  0
C  C52  1  0.79574283  0.39768608  0.04106322  1  0  -0.479345  0  3.670769  0  0  -0.559614  0  3.905203  0  0  -0.566969  0  3.906721  0  0  -0.255085  -0.5542  0  3.903365  0
C  C53  1  0.70425823  0.89768850  0.45893769  1  0  -0.479287  0  3.670703  0  0  -0.559559  0  3.905198  0  0  -0.566912  0  3.906716  0  0  -0.255049  -0.554142  0  3.903359  0
C  C54  1  0.20425767  0.60231362  0.95893740  1  0  -0.47928  0  3.670729  0  0  -0.559552  0  3.905165  0  0  -0.566906  0  3.906685  0  0  -0.255065  -0.554136  0  3.903327  0
C  C55  1  0.29574227  0.10231406  0.54106292  1  0  -0.479252  0  3.670778  0  0  -0.559531  0  3.905182  0  0  -0.566885  0  3.906701  0  0  -0.255033  -0.554115  0  3.903346  0
N  N56  1  0.16796979  0.06323641  0.18326289  1  0  -0.409124  0  3.269021  0  0  -0.330851  0  3.57014  0  0  -0.351017  0  3.581265  0  0  -0.361458  -0.316715  0  3.562147  0
N  N57  1  0.33202870  0.56323707  0.31673769  1  0  -0.409128  0  3.268998  0  0  -0.330873  0  3.570123  0  0  -0.351037  0  3.58125  0  0  -0.361473  -0.316735  0  3.562127  0
N  N58  1  0.83203070  0.93676232  0.81673714  1  0  -0.409143  0  3.269007  0  0  -0.330879  0  3.570131  0  0  -0.351042  0  3.581258  0  0  -0.361461  -0.316744  0  3.562142  0
N  N59  1  0.66796973  0.43676358  0.68326291  1  0  -0.409124  0  3.269055  0  0  -0.330859  0  3.570167  0  0  -0.351023  0  3.581295  0  0  -0.361468  -0.316721  0  3.56217  0
N  N60  1  0.91909265  0.74493235  0.15355148  1  0  -0.431543  0  3.023167  0  0  -0.398903  0  3.306071  0  0  -0.415437  0  3.315832  0  0  -0.332651  -0.388031  0  3.299182  0
N  N61  1  0.58091177  0.24493349  0.34644714  1  0  -0.431476  0  3.023084  0  0  -0.398812  0  3.305995  0  0  -0.415344  0  3.315755  0  0  -0.332581  -0.38794  0  3.299105  0
N  N62  1  0.08091197  0.25506734  0.84644800  1  0  -0.431572  0  3.02307  0  0  -0.39892  0  3.305991  0  0  -0.415452  0  3.315749  0  0  -0.332648  -0.388046  0  3.299098  0
N  N63  1  0.41908665  0.75506716  0.65355289  1  0  -0.431493  0  3.023069  0  0  -0.398854  0  3.305966  0  0  -0.415386  0  3.315728  0  0  -0.332605  -0.387981  0  3.299076  0
N  N64  1  0.24843072  0.86690276  0.23313707  1  0  -0.484579  0  3.220644  0  0  -0.403532  0  3.519171  0  0  -0.427271  0  3.52806  0  0  -0.365385  -0.387412  0  3.512753  0
N  N65  1  0.25157128  0.36690313  0.26686294  1  0  -0.484553  0  3.220661  0  0  -0.403483  0  3.519193  0  0  -0.427222  0  3.528085  0  0  -0.365367  -0.387367  0  3.512778  0
N  N66  1  0.75156977  0.13309693  0.76686297  1  0  -0.484614  0  3.220628  0  0  -0.403549  0  3.519167  0  0  -0.427288  0  3.528058  0  0  -0.365384  -0.38743  0  3.512746  0
N  N67  1  0.74842715  0.63309656  0.73313767  1  0  -0.484496  0  3.220607  0  0  -0.40349  0  3.519161  0  0  -0.427228  0  3.528051  0  0  -0.365381  -0.387373  0  3.512745  0
N  N68  1  0.67270108  0.87708394  0.06417256  1  0  -0.405342  0  3.330552  0  0  -0.342574  0  3.575112  0  0  -0.365116  0  3.583031  0  0  -0.371493  -0.327551  0  3.569627  0
N  N69  1  0.82729984  0.37708436  0.43582662  1  0  -0.405352  0  3.330484  0  0  -0.342572  0  3.575079  0  0  -0.365114  0  3.582995  0  0  -0.371508  -0.327549  0  3.56959  0
N  N70  1  0.32730146  0.12291480  0.93582691  1  0  -0.405326  0  3.330527  0  0  -0.342556  0  3.57512  0  0  -0.365097  0  3.583034  0  0  -0.371486  -0.327535  0  3.569637  0
N  N71  1  0.17270065  0.62291534  0.56417342  1  0  -0.405329  0  3.330536  0  0  -0.342553  0  3.575119  0  0  -0.365095  0  3.583035  0  0  -0.371465  -0.327531  0  3.569635  0
O  O72  1  0.36787951  0.32646890  0.09196541  1  0  -0.646763  0  2.035633  0  0  -0.569725  0  2.302617  0  0  -0.599297  0  2.289073  0  0  -0.318918  -0.549511  0  2.311171  0
O  O73  1  0.13211816  0.82646934  0.40803516  1  0  -0.646841  0  2.035597  0  0  -0.569762  0  2.302607  0  0  -0.599339  0  2.289075  0  0  -0.318933  -0.549547  0  2.311161  0
O  O74  1  0.63212098  0.67353080  0.90803463  1  0  -0.646811  0  2.035581  0  0  -0.56977  0  2.302556  0  0  -0.599346  0  2.289018  0  0  -0.31894  -0.549557  0  2.311109  0
O  O75  1  0.86787818  0.17353035  0.59196486  1  0  -0.646833  0  2.035553  0  0  -0.569813  0  2.302521  0  0  -0.59939  0  2.288983  0  0  -0.318955  -0.5496  0  2.311075  0
O  O76  1  0.75054193  0.29402304  0.16401276  1  0  -0.656504  0  2.055415  0  0  -0.584105  0  2.329472  0  0  -0.611732  0  2.313569  0  0  -0.323477  -0.565002  0  2.339601  0
O  O77  1  0.74945448  0.79402553  0.33598814  1  0  -0.656535  0  2.055346  0  0  -0.584111  0  2.329453  0  0  -0.611734  0  2.313543  0  0  -0.323514  -0.565019  0  2.339607  0
O  O78  1  0.24945855  0.70597570  0.83598728  1  0  -0.656462  0  2.055418  0  0  -0.584067  0  2.329469  0  0  -0.611693  0  2.313566  0  0  -0.323464  -0.564963  0  2.339595  0
O  O79  1  0.25053980  0.20597703  0.66401245  1  0  -0.656506  0  2.05546  0  0  -0.584138  0  2.329509  0  0  -0.611762  0  2.313604  0  0  -0.323519  -0.565039  0  2.339647  0
O  O80  1  0.75602347  0.09147510  0.04328334  1  0  -0.566037  0  1.988933  0  0  -0.515406  0  2.213946  0  0  -0.538345  0  2.208636  0  0  -0.299073  -0.499849  0  2.216994  0
O  O81  1  0.74397403  0.59147278  0.45671642  1  0  -0.566086  0  1.989144  0  0  -0.515406  0  2.214178  0  0  -0.538335  0  2.208861  0  0  -0.299083  -0.499852  0  2.217227  0
O  O82  1  0.24397288  0.90852555  0.95671668  1  0  -0.566088  0  1.989011  0  0  -0.515418  0  2.214039  0  0  -0.538348  0  2.20872  0  0  -0.299082  -0.499864  0  2.217091  0
O  O83  1  0.25602645  0.40852596  0.54328305  1  0  -0.56607  0  1.989002  0  0  -0.515428  0  2.214038  0  0  -0.538365  0  2.208723  0  0  -0.299079  -0.499874  0  2.217087  0
