# generated using pymatgen
data_Zn2H14C19N2O9
_symmetry_space_group_name_H-M   'P 1'
_cell_length_a   9.94189977
_cell_length_b   11.10646592
_cell_length_c   14.47345691
_cell_angle_alpha   89.40198768
_cell_angle_beta   94.31396678
_cell_angle_gamma   89.25716651
_symmetry_Int_Tables_number   1
_chemical_formula_structural   Zn2H14C19N2O9
_chemical_formula_sum   'Zn2 H14 C19 N2 O9'
_cell_volume   1593.38385893
_cell_formula_units_Z   1
loop_
 _symmetry_equiv_pos_site_id
 _symmetry_equiv_pos_as_xyz
  1  'x, y, z'
loop_
 _atom_site_type_symbol
 _atom_site_label
 _atom_site_symmetry_multiplicity
 _atom_site_fract_x
 _atom_site_fract_y
 _atom_site_fract_z
 _atom_site_occupancy
 _atom_site_pbe_bader_charge
 _atom_site_pbe_bader_spin_density
 _atom_site_pbe_cm5_charge
 _atom_site_pbe_ddec_charge
 _atom_site_pbe_ddec_spin_density
 _atom_site_pbe_ddec_sum_bond_order
 _atom_site_pbe_magmom
Zn  Zn0  1  0.63653671  0.49340685  0.51827046  1  1.291813  0  0.669535  0.86204  0  2.408914  0
Zn  Zn1  1  0.35257526  0.49900725  0.49596892  1  1.292271  0  0.667982  0.802518  0  2.431316  0
H  H2  1  0.29296329  0.10934365  0.47071175  1  0.092173  0  0.107458  0.106417  0  0.983913  0
H  H3  1  0.93245074  0.70184433  0.29665452  1  0.019757  0  0.099623  0.094812  0  0.961531  0
H  H4  1  0.00903559  0.80477784  0.37663634  1  0.034562  0  0.095318  0.086018  0  0.969488  0
H  H5  1  0.19154362  0.84416341  0.26669363  1  0.042966  0  0.090115  0.116413  0  0.998984  0
H  H6  1  0.02838534  0.87789968  0.21343478  1  0.035522  0  0.094769  0.123234  0  0.993353  0
H  H7  1  0.11294256  0.74237737  0.18641703  1  0.030464  0  0.09335  0.120646  0  0.992126  0
H  H8  1  0.58716719  0.09056526  0.55309907  1  0.092818  0  0.108467  0.125309  0  0.989306  0
H  H9  1  0.29255469  0.88664663  0.50050465  1  0.11298  0  0.107551  0.10522  0  0.985387  0
H  H10  1  0.59702193  0.90037773  0.47622239  1  0.101689  0  0.108108  0.126517  0  0.988774  0
H  H11  1  0.90349109  0.36392544  0.60963291  1  0.101705  0  0.141374  0.103089  0  0.930402  0
H  H12  1  0.87484964  0.56100251  0.47468270  1  0.469831  0  0.311214  0.282806  0  0.97554  0
H  H13  1  0.14654742  0.38146335  0.59155974  1  0.170667  0  0.144219  0.13483  0  0.966294  0
H  H14  1  0.14649944  0.57377393  0.31090489  1  0.079804  0  0.11429  0.097465  0  0.959124  0
H  H15  1  0.21841364  0.67815524  0.39352025  1  0.110744  0  0.11089  0.093891  0  1.022078  0
C  C16  1  0.49535957  0.72885282  0.49250155  1  1.578539  0  0.208533  0.632067  0  4.179275  0
C  C17  1  0.48791825  0.26427179  0.52072804  1  1.497892  0  0.208517  0.635375  0  4.175388  0
C  C18  1  0.47934812  0.50850025  0.68623507  1  1.676443  0  0.217958  0.653467  0  4.261799  0
C  C19  1  0.50489024  0.48091926  0.22705167  1  0.035694  0  -0.01317  -0.131804  0  3.847821  0
C  C20  1  0.50177647  0.48553994  0.14210979  1  -0.190592  0  -0.024835  0.004071  0  4.288663  0
C  C21  1  0.49679543  0.49139519  0.04929590  1  0.019746  0  -0.011214  -0.013054  0  4.214449  0
C  C22  1  0.49040190  0.49728436  0.96383171  1  0.017305  0  -0.009957  -0.00878  0  4.210647  0
C  C23  1  0.48435667  0.50291839  0.87099907  1  -0.398501  0  -0.022778  0.00582  0  4.280309  0
C  C24  1  0.12373831  0.64190263  0.36209822  1  0.314096  0  -0.06263  -0.008089  0  3.819221  0
C  C25  1  0.02970760  0.74039472  0.32191505  1  0.039322  0  -0.163067  -0.127623  0  3.987979  0
C  C26  1  0.09432199  0.80482748  0.24263601  1  -0.077386  0  -0.235354  -0.348593  0  3.956115  0
C  C27  1  0.47946894  0.50730186  0.78601521  1  0.242402  0  -0.011071  -0.126981  0  3.842385  0
C  C28  1  0.38701347  0.06270613  0.49450966  1  -0.102233  0  -0.072704  -0.029338  0  3.992595  0
C  C29  1  0.49228636  0.13104945  0.52450840  1  0.060781  0  -0.088787  -0.219408  0  3.879654  0
C  C30  1  0.38855658  0.93209841  0.49454236  1  -0.076917  0  -0.072094  -0.024906  0  3.992193  0
C  C31  1  0.49889191  0.86188856  0.48686886  1  -0.070522  0  -0.090043  -0.227455  0  3.882859  0
C  C32  1  0.93324312  0.43276349  0.56064242  1  0.729808  0  0.114188  0.198288  0  3.902704  0
C  C33  1  0.07704745  0.43870254  0.54818702  1  0.540024  0  0.070801  -0.015102  0  3.865645  0
C  C34  1  0.50257684  0.48086941  0.32676001  1  1.698207  0  0.216987  0.651298  0  4.26535  0
N  N35  1  0.83935463  0.49899135  0.51946114  1  -1.186208  0  -0.44997  -0.403436  0  3.266196  0
N  N36  1  0.13727637  0.50479345  0.48958966  1  -0.581491  0  -0.181312  -0.018308  0  3.364721  0
O  O37  1  0.60679924  0.67282055  0.48513842  1  -1.15126  0  -0.321763  -0.547956  0  2.264991  0
O  O38  1  0.38233087  0.67931437  0.50483999  1  -1.172089  0  -0.322481  -0.560555  0  2.344234  0
O  O39  1  0.61280488  0.45906849  0.37433994  1  -1.136053  0  -0.310865  -0.535433  0  2.2295  0
O  O40  1  0.38770622  0.50431597  0.35687874  1  -1.149441  0  -0.309128  -0.546181  0  2.300648  0
O  O41  1  0.59943754  0.31640511  0.54312067  1  -1.159227  0  -0.323446  -0.555252  0  2.273485  0
O  O42  1  0.37598803  0.31696160  0.49518363  1  -1.169215  0  -0.324401  -0.559428  0  2.316363  0
O  O43  1  0.59212879  0.52948464  0.65353977  1  -1.137823  0  -0.310326  -0.534816  0  2.239139  0
O  O44  1  0.36717592  0.48774911  0.64097510  1  -1.134877  0  -0.313052  -0.54646  0  2.265298  0
O  O45  1  0.05520098  0.58097496  0.43571784  1  -0.636192  0  -0.056795  -0.072653  0  2.462891  0
