# generated using pymatgen
data_BiH19C12S(NO2)2
_symmetry_space_group_name_H-M   'P 1'
_cell_length_a   8.44823067
_cell_length_b   8.98334562
_cell_length_c   11.40232737
_cell_angle_alpha   111.18443670
_cell_angle_beta   90.00045407
_cell_angle_gamma   89.99972417
_symmetry_Int_Tables_number   1
_chemical_formula_structural   BiH19C12S(NO2)2
_chemical_formula_sum   'Bi2 H38 C24 S2 N4 O8'
_cell_volume   806.88174089
_cell_formula_units_Z   2
loop_
 _symmetry_equiv_pos_site_id
 _symmetry_equiv_pos_as_xyz
  1  'x, y, z'
loop_
 _atom_site_type_symbol
 _atom_site_label
 _atom_site_symmetry_multiplicity
 _atom_site_fract_x
 _atom_site_fract_y
 _atom_site_fract_z
 _atom_site_occupancy
 _atom_site_hle17_bader_spin_density
 _atom_site_hle17_ddec_charge
 _atom_site_hle17_ddec_spin_density
 _atom_site_hle17_ddec_sum_bond_order
 _atom_site_hle17_magmom
 _atom_site_hse06_10hf_bader_spin_density
 _atom_site_hse06_10hf_ddec_charge
 _atom_site_hse06_10hf_ddec_spin_density
 _atom_site_hse06_10hf_ddec_sum_bond_order
 _atom_site_hse06_10hf_magmom
 _atom_site_hse06_bader_spin_density
 _atom_site_hse06_ddec_charge
 _atom_site_hse06_ddec_spin_density
 _atom_site_hse06_ddec_sum_bond_order
 _atom_site_hse06_magmom
 _atom_site_pbe_bader_spin_density
 _atom_site_pbe_cm5_charge
 _atom_site_pbe_ddec_charge
 _atom_site_pbe_ddec_spin_density
 _atom_site_pbe_ddec_sum_bond_order
 _atom_site_pbe_magmom
Bi  Bi0  1  0.08886960  0.00865912  0.24481792  1  0  1.257451  0  2.21327  0  0  1.064144  0  2.633211  0  0  1.115586  0  2.606205  0  0  0.730469  1.026336  0  2.653813  0
Bi  Bi1  1  0.91113201  0.00865773  0.74481594  1  0  1.257446  0  2.213254  0  0  1.064139  0  2.633216  0  0  1.115578  0  2.60621  0  0  0.730458  1.026332  0  2.653805  0
H  H2  1  0.31974465  0.42152723  0.12709685  1  0  0.101418  0  0.978085  0  0  0.111266  0  1.042535  0  0  0.11483  0  1.04017  0  0  0.095954  0.108785  0  1.044357  0
H  H3  1  0.68025713  0.42152633  0.62709452  1  0  0.101446  0  0.978076  0  0  0.111288  0  1.042524  0  0  0.114834  0  1.040183  0  0  0.095967  0.108809  0  1.044344  0
H  H4  1  0.54376496  0.50062907  0.28031960  1  0  0.075312  0  0.959997  0  0  0.091281  0  1.013819  0  0  0.093629  0  1.013193  0  0  0.096571  0.090005  0  1.013176  0
H  H5  1  0.45624161  0.50062744  0.78031574  1  0  0.075359  0  0.959988  0  0  0.091331  0  1.013797  0  0  0.093678  0  1.013173  0  0  0.096609  0.090062  0  1.013158  0
H  H6  1  0.58399705  0.78616652  0.41675801  1  0  0.103587  0  0.959161  0  0  0.115123  0  1.019037  0  0  0.118554  0  1.017229  0  0  0.099609  0.112474  0  1.020818  0
H  H7  1  0.41600951  0.78616377  0.91675623  1  0  0.103558  0  0.959191  0  0  0.115067  0  1.019103  0  0  0.1185  0  1.017292  0  0  0.099567  0.11241  0  1.020883  0
H  H8  1  0.06495108  0.49833937  0.05553344  1  0  0.088637  0  0.920571  0  0  0.106779  0  0.977921  0  0  0.107812  0  0.977333  0  0  0.10659  0.104372  0  0.980934  0
H  H9  1  0.93504955  0.49834031  0.55553402  1  0  0.088621  0  0.920567  0  0  0.106794  0  0.977901  0  0  0.107808  0  0.977334  0  0  0.106589  0.10436  0  0.980943  0
H  H10  1  0.13223490  0.64734539  0.99735082  1  0  0.084655  0  0.918614  0  0  0.106304  0  0.970885  0  0  0.106849  0  0.970903  0  0  0.112013  0.105345  0  0.971625  0
H  H11  1  0.86776731  0.64734161  0.49734451  1  0  0.084652  0  0.918523  0  0  0.106298  0  0.970825  0  0  0.106843  0  0.970838  0  0  0.112019  0.105341  0  0.971558  0
H  H12  1  0.79605736  0.77158825  0.28578565  1  0  0.101124  0  0.967153  0  0  0.116676  0  1.038576  0  0  0.117727  0  1.038509  0  0  0.101796  0.115838  0  1.038767  0
H  H13  1  0.20394078  0.77159070  0.78579024  1  0  0.101145  0  0.967104  0  0  0.116678  0  1.038535  0  0  0.117732  0  1.038475  0  0  0.101807  0.11584  0  1.038727  0
H  H14  1  0.97551184  0.67818448  0.30498913  1  0  0.097398  0  0.961684  0  0  0.117027  0  1.025592  0  0  0.117824  0  1.026026  0  0  0.102456  0.116403  0  1.025431  0
H  H15  1  0.02448698  0.67818612  0.80499156  1  0  0.097427  0  0.961606  0  0  0.117013  0  1.025547  0  0  0.117812  0  1.025977  0  0  0.102443  0.116385  0  1.025391  0
H  H16  1  0.83039832  0.56494207  0.19475806  1  0  0.088763  0  0.934215  0  0  0.11311  0  0.99264  0  0  0.113738  0  0.992795  0  0  0.097721  0.112561  0  0.992866  0
H  H17  1  0.16960109  0.56494339  0.69476388  1  0  0.088784  0  0.934206  0  0  0.113103  0  0.992648  0  0  0.113731  0  0.992804  0  0  0.097733  0.112556  0  0.992873  0
H  H18  1  0.89870264  0.78992089  0.98227832  1  0  0.105881  0  0.981601  0  0  0.11856  0  1.057563  0  0  0.12002  0  1.057233  0  0  0.099958  0.11749  0  1.057846  0
H  H19  1  0.10129868  0.78991748  0.48227901  1  0  0.105858  0  0.981667  0  0  0.118531  0  1.057624  0  0  0.11999  0  1.057295  0  0  0.099948  0.117457  0  1.057915  0
H  H20  1  0.74520771  0.81023402  0.09364333  1  0  0.103322  0  0.926941  0  0  0.128013  0  0.981876  0  0  0.128677  0  0.982442  0  0  0.106822  0.127454  0  0.981608  0
H  H21  1  0.25479409  0.81023158  0.59364770  1  0  0.103336  0  0.926992  0  0  0.128027  0  0.981911  0  0  0.12869  0  0.98248  0  0  0.10685  0.127474  0  0.981637  0
H  H22  1  0.80052754  0.61632477  0.98958461  1  0  0.085644  0  0.960257  0  0  0.107067  0  1.02472  0  0  0.107422  0  1.025913  0  0  0.094347  0.10678  0  1.023973  0
H  H23  1  0.19947357  0.61632233  0.48958878  1  0  0.085663  0  0.960192  0  0  0.107048  0  1.024704  0  0  0.107405  0  1.025893  0  0  0.094322  0.10676  0  1.023954  0
H  H24  1  0.32535231  0.06467050  0.50502934  1  0  0.08824  0  0.921414  0  0  0.109334  0  0.973918  0  0  0.110129  0  0.973755  0  0  0.112311  0.108893  0  0.973724  0
H  H25  1  0.67464645  0.06466829  0.00502760  1  0  0.088263  0  0.921414  0  0  0.109353  0  0.973912  0  0  0.110156  0  0.973746  0  0  0.112316  0.108924  0  0.973725  0
H  H26  1  0.52220268  0.07433518  0.44960929  1  0  0.093485  0  0.944204  0  0  0.108614  0  1.006234  0  0  0.109968  0  1.005491  0  0  0.106972  0.107283  0  1.00719  0
H  H27  1  0.47779723  0.07432993  0.94960189  1  0  0.093553  0  0.944105  0  0  0.108651  0  1.006165  0  0  0.11001  0  1.005427  0  0  0.107007  0.107333  0  1.007126  0
H  H28  1  0.39787793  0.22842875  0.21005854  1  0  0.097169  0  0.960715  0  0  0.115822  0  1.028441  0  0  0.116432  0  1.028823  0  0  0.101543  0.115732  0  1.026942  0
H  H29  1  0.60212100  0.22843278  0.71005892  1  0  0.097187  0  0.960708  0  0  0.115824  0  1.028452  0  0  0.116435  0  1.02883  0  0  0.101556  0.115733  0  1.026952  0
H  H30  1  0.47521878  0.03777479  0.19361452  1  0  0.105877  0  0.940784  0  0  0.125096  0  1.002965  0  0  0.126049  0  1.003327  0  0  0.104706  0.124465  0  1.002102  0
H  H31  1  0.52478213  0.03777899  0.69361098  1  0  0.105834  0  0.940845  0  0  0.125057  0  1.003017  0  0  0.126008  0  1.003381  0  0  0.104683  0.124427  0  1.002154  0
H  H32  1  0.56236500  0.21228766  0.30641874  1  0  0.108383  0  0.937556  0  0  0.130646  0  0.996069  0  0  0.132347  0  0.994647  0  0  0.100043  0.129614  0  0.996481  0
H  H33  1  0.43763504  0.21228846  0.80641547  1  0  0.108415  0  0.937504  0  0  0.13064  0  0.996064  0  0  0.132339  0  0.994645  0  0  0.100048  0.129606  0  0.996482  0
H  H34  1  0.20702284  0.29625741  0.51203234  1  0  0.105429  0  0.950372  0  0  0.121709  0  1.018864  0  0  0.123614  0  1.017245  0  0  0.103473  0.120269  0  1.01999  0
H  H35  1  0.79297718  0.29625494  0.01203561  1  0  0.105453  0  0.950351  0  0  0.12171  0  1.018864  0  0  0.123614  0  1.017247  0  0  0.103463  0.12027  0  1.019994  0
H  H36  1  0.25005586  0.37869562  0.39393901  1  0  0.096546  0  0.955733  0  0  0.116964  0  1.018835  0  0  0.117899  0  1.019039  0  0  0.102987  0.116418  0  1.018153  0
H  H37  1  0.74994308  0.37869932  0.89394718  1  0  0.096547  0  0.955711  0  0  0.116969  0  1.018799  0  0  0.117906  0  1.019001  0  0  0.102975  0.116426  0  1.018116  0
H  H38  1  0.40251085  0.36830989  0.49933636  1  0  0.092941  0  0.938352  0  0  0.113117  0  1.002975  0  0  0.113989  0  1.003385  0  0  0.097358  0.112497  0  1.002625  0
H  H39  1  0.59748926  0.36830675  0.99933904  1  0  0.092952  0  0.938347  0  0  0.113128  0  1.002969  0  0  0.113999  0  1.003379  0  0  0.09737  0.112507  0  1.002617  0
C  C40  1  0.26156642  0.82279743  0.25021210  1  0  -0.373623  0  3.627151  0  0  -0.33762  0  3.878109  0  0  -0.350881  0  3.908127  0  0  -0.117158  -0.329247  0  3.858141  0
C  C41  1  0.73843107  0.82279641  0.75020832  1  0  -0.373622  0  3.626957  0  0  -0.337609  0  3.87791  0  0  -0.350867  0  3.907927  0  0  -0.117151  -0.32923  0  3.857926  0
C  C42  1  0.23730690  0.66351400  0.17366655  1  0  0.100492  0  3.792596  0  0  0.115748  0  4.027495  0  0  0.117628  0  4.05366  0  0  -0.016375  0.114667  0  4.010031  0
C  C43  1  0.76269059  0.66351293  0.67366203  1  0  0.100552  0  3.792367  0  0  0.115808  0  4.027302  0  0  0.11769  0  4.053458  0  0  -0.016345  0.114744  0  4.009817  0
C  C44  1  0.34049336  0.54673009  0.18406098  1  0  -0.130953  0  3.732709  0  0  -0.150742  0  3.978802  0  0  -0.154229  0  3.999423  0  0  -0.1005  -0.14924  0  3.965392  0
C  C45  1  0.65950721  0.54673042  0.68405800  1  0  -0.131031  0  3.732661  0  0  -0.150815  0  3.978773  0  0  -0.154289  0  3.999409  0  0  -0.100526  -0.149312  0  3.965362  0
C  C46  1  0.46450193  0.59182298  0.27129766  1  0  -0.069612  0  3.812051  0  0  -0.082111  0  4.063091  0  0  -0.083017  0  4.085387  0  0  -0.097451  -0.08142  0  4.047221  0
C  C47  1  0.53550289  0.59182357  0.77129403  1  0  -0.069672  0  3.812116  0  0  -0.082177  0  4.063153  0  0  -0.083083  0  4.085447  0  0  -0.097472  -0.081497  0  4.047296  0
C  C48  1  0.48771152  0.75166927  0.34818867  1  0  -0.127049  0  3.725506  0  0  -0.145217  0  3.968559  0  0  -0.148611  0  3.988875  0  0  -0.09601  -0.142655  0  3.954924  0
C  C49  1  0.51229212  0.75166634  0.84818389  1  0  -0.126957  0  3.725576  0  0  -0.145098  0  3.968573  0  0  -0.148493  0  3.988893  0  0  -0.095967  -0.142519  0  3.954929  0
C  C50  1  0.38527314  0.86852212  0.33720536  1  0  0.105804  0  3.791082  0  0  0.120967  0  4.026412  0  0  0.123244  0  4.052017  0  0  -0.014512  0.119249  0  4.008633  0
C  C51  1  0.61472622  0.86852016  0.83720058  1  0  0.10578  0  3.791082  0  0  0.120955  0  4.026382  0  0  0.123239  0  4.051998  0  0  -0.014532  0.119245  0  4.008621  0
C  C52  1  0.09898643  0.62499497  0.08291904  1  0  -0.063694  0  3.620077  0  0  -0.121404  0  3.859378  0  0  -0.118026  0  3.871019  0  0  -0.062753  -0.122802  0  3.852416  0
C  C53  1  0.90101502  0.62499241  0.58291666  1  0  -0.06367  0  3.619882  0  0  -0.12145  0  3.859294  0  0  -0.118056  0  3.870933  0  0  -0.062812  -0.122847  0  3.852345  0
C  C54  1  0.88625372  0.68342691  0.23693315  1  0  -0.190879  0  3.653768  0  0  -0.287485  0  3.901727  0  0  -0.28508  0  3.912092  0  0  -0.148013  -0.289015  0  3.894545  0
C  C55  1  0.11374553  0.68342597  0.73693536  1  0  -0.190948  0  3.65366  0  0  -0.287452  0  3.901618  0  0  -0.285054  0  3.911989  0  0  -0.14801  -0.288979  0  3.89444  0
C  C56  1  0.84569378  0.73605898  0.04518359  1  0  -0.197178  0  3.663492  0  0  -0.295298  0  3.916871  0  0  -0.293503  0  3.92824  0  0  -0.148762  -0.296339  0  3.908849  0
C  C57  1  0.15430907  0.73605796  0.54518603  1  0  -0.197136  0  3.663492  0  0  -0.295204  0  3.916878  0  0  -0.293409  0  3.928251  0  0  -0.148737  -0.296253  0  3.908855  0
C  C58  1  0.39871284  0.04237815  0.42063277  1  0  -0.07228  0  3.620922  0  0  -0.130206  0  3.857283  0  0  -0.127733  0  3.869985  0  0  -0.067426  -0.131605  0  3.848295  0
C  C59  1  0.60128692  0.04237621  0.92062968  1  0  -0.072364  0  3.620874  0  0  -0.13026  0  3.857212  0  0  -0.127813  0  3.869939  0  0  -0.067464  -0.131723  0  3.848314  0
C  C60  1  0.45080544  0.15810242  0.26094143  1  0  -0.197398  0  3.635148  0  0  -0.294656  0  3.881784  0  0  -0.292401  0  3.892032  0  0  -0.150224  -0.295247  0  3.872564  0
C  C61  1  0.54919321  0.15810656  0.76094065  1  0  -0.197366  0  3.635184  0  0  -0.294585  0  3.881823  0  0  -0.292329  0  3.892074  0  0  -0.150218  -0.295171  0  3.872598  0
C  C62  1  0.29725318  0.30721126  0.44623969  1  0  -0.202921  0  3.67461  0  0  -0.301208  0  3.928378  0  0  -0.299115  0  3.938647  0  0  -0.146272  -0.301925  0  3.92025  0
C  C63  1  0.70274668  0.30721028  0.94624361  1  0  -0.202941  0  3.674554  0  0  -0.301196  0  3.928266  0  0  -0.299102  0  3.938533  0  0  -0.146277  -0.301914  0  3.920132  0
S  S64  1  0.87298640  0.09679999  0.50093249  1  0  1.480213  0  5.918554  0  0  1.369423  0  6.450824  0  0  1.424676  0  6.417615  0  0  0.536952  1.331439  0  6.471934  0
S  S65  1  0.12701097  0.09680131  0.00093117  1  0  1.480222  0  5.918542  0  0  1.369446  0  6.450791  0  0  1.424694  0  6.417586  0  0  0.537018  1.331447  0  6.471929  0
N  N66  1  0.96218377  0.73074924  0.13954140  1  0  -0.136042  0  3.286988  0  0  -0.025932  0  3.513185  0  0  -0.044439  0  3.539992  0  0  -0.318236  -0.012257  0  3.493734  0
N  N67  1  0.03781656  0.73074966  0.63954268  1  0  -0.136122  0  3.287063  0  0  -0.026001  0  3.513239  0  0  -0.044507  0  3.540045  0  0  -0.318245  -0.012322  0  3.493785  0
N  N68  1  0.33684838  0.14757919  0.35596383  1  0  -0.12355  0  3.277665  0  0  -0.010607  0  3.499503  0  0  -0.029137  0  3.526934  0  0  -0.315138  0.002096  0  3.48023  0
N  N69  1  0.66315251  0.14758070  0.85596297  1  0  -0.123646  0  3.277749  0  0  -0.010693  0  3.49956  0  0  -0.029213  0  3.526997  0  0  -0.315121  0.002033  0  3.480284  0
O  O70  1  0.03684319  0.02958757  0.45297334  1  0  -0.735095  0  2.023772  0  0  -0.663727  0  2.282166  0  0  -0.68847  0  2.269164  0  0  -0.344861  -0.645444  0  2.289632  0
O  O71  1  0.96315580  0.02958608  0.95297075  1  0  -0.73504  0  2.023722  0  0  -0.663709  0  2.282158  0  0  -0.688459  0  2.269163  0  0  -0.344858  -0.645421  0  2.289627  0
O  O72  1  0.79588778  0.97230971  0.54511914  1  0  -0.706859  0  1.934043  0  0  -0.64106  0  2.190838  0  0  -0.665677  0  2.177976  0  0  -0.342943  -0.623923  0  2.200195  0
O  O73  1  0.20411149  0.97231324  0.04512242  1  0  -0.706863  0  1.93406  0  0  -0.641036  0  2.190817  0  0  -0.665662  0  2.177987  0  0  -0.342931  -0.623896  0  2.200176  0
O  O74  1  0.78096417  0.11236078  0.39672794  1  0  -0.716729  0  1.924859  0  0  -0.674122  0  2.169666  0  0  -0.695426  0  2.154044  0  0  -0.360599  -0.659191  0  2.180271  0
O  O75  1  0.21903379  0.11235724  0.89672740  1  0  -0.716732  0  1.924876  0  0  -0.674131  0  2.169696  0  0  -0.69542  0  2.154053  0  0  -0.360609  -0.659191  0  2.180304  0
O  O76  1  0.89250193  0.24637508  0.60962415  1  0  -0.723901  0  1.921332  0  0  -0.681391  0  2.164302  0  0  -0.702888  0  2.149293  0  0  -0.36342  -0.666159  0  2.176014  0
O  O77  1  0.10749347  0.24637765  0.10961956  1  0  -0.723952  0  1.921376  0  0  -0.681447  0  2.164351  0  0  -0.702945  0  2.149349  0  0  -0.363473  -0.666204  0  2.176058  0
