# generated using pymatgen
data_Zn2H11C24N2(ClO4)3
_symmetry_space_group_name_H-M   'P 1'
_cell_length_a   9.84548446
_cell_length_b   10.97273291
_cell_length_c   14.00027235
_cell_angle_alpha   95.85027238
_cell_angle_beta   99.28777758
_cell_angle_gamma   94.16959782
_symmetry_Int_Tables_number   1
_chemical_formula_structural   Zn2H11C24N2(ClO4)3
_chemical_formula_sum   'Zn2 H11 C24 N2 Cl3 O12'
_cell_volume   1478.73699587
_cell_formula_units_Z   1
loop_
 _symmetry_equiv_pos_site_id
 _symmetry_equiv_pos_as_xyz
  1  'x, y, z'
loop_
 _atom_site_type_symbol
 _atom_site_label
 _atom_site_symmetry_multiplicity
 _atom_site_fract_x
 _atom_site_fract_y
 _atom_site_fract_z
 _atom_site_occupancy
 _atom_site_pbe_bader_charge
 _atom_site_pbe_bader_spin_density
 _atom_site_pbe_cm5_charge
 _atom_site_pbe_ddec_charge
 _atom_site_pbe_ddec_spin_density
 _atom_site_pbe_ddec_sum_bond_order
 _atom_site_pbe_magmom
Zn  Zn0  1  0.36059095  0.48013463  0.49347314  1  1.291447  0  0.681263  0.828901  0  2.400675  0
Zn  Zn1  1  0.65427405  0.50801034  0.51084674  1  1.298991  0  0.675534  0.846786  0  2.336233  0
H  H2  1  0.36428637  0.43821169  0.96773058  1  0.135055  0  0.122847  0.124876  0  0.956336  0
H  H3  1  0.72384421  0.79597103  0.45818835  1  0.65637  0  0.301317  0.360436  0  0.964015  0
H  H4  1  0.14628672  0.09549303  0.44550986  1  0.57879  0  0.314081  0.348713  0  0.905224  0
H  H5  1  0.17566667  0.45564252  0.64060797  1  0.20503  0  0.13604  0.134246  0  0.989895  0
H  H6  1  0.09527457  0.59535500  0.29237655  1  0.122974  0  0.114237  0.158826  0  0.965538  0
H  H7  1  0.05955607  0.43117627  0.26450955  1  0.11334  0  0.123173  0.170682  0  0.934993  0
H  H8  1  0.65702816  0.57209611  0.03235584  1  0.135594  0  0.120555  0.124522  0  0.965006  0
H  H9  1  0.25322080  0.86703282  0.61402061  1  0.090051  0  0.103759  0.09642  0  0.960577  0
H  H10  1  0.28079896  0.09705007  0.63925743  1  0.078476  0  0.111882  0.071893  0  0.93623  0
H  H11  1  0.70703734  0.42577173  0.28945303  1  0.648903  0  0.294223  0.356914  0  0.972036  0
H  H12  1  0.81385349  0.06229949  0.46140829  1  0.627591  0  0.329713  0.369979  0  0.894973  0
C  C13  1  0.51627707  0.26485436  0.50904212  1  1.562227  0  0.218864  0.625439  0  4.147339  0
C  C14  1  0.26650257  0.06075623  0.56170206  1  0.505275  0  0.007864  0.160573  0  3.892061  0
C  C15  1  0.92034682  0.51257814  0.42573000  1  0.537634  0  0.131086  0.08053  0  3.84476  0
C  C16  1  0.46717317  0.46268508  0.30788043  1  1.646843  0  0.226405  0.666302  0  4.228445  0
C  C17  1  0.96219735  0.48210515  0.58350052  1  0.63262  0  0.162072  0.24043  0  4.000142  0
C  C18  1  0.10203413  0.47110859  0.57706056  1  0.532914  0  0.072188  0.007773  0  3.815124  0
C  C19  1  0.05764872  0.49999257  0.41814248  1  0.588416  0  0.14476  0.219957  0  3.897727  0
C  C20  1  0.04063407  0.51275568  0.31090296  1  -0.041669  0  -0.140957  -0.33218  0  3.791024  0
C  C21  1  0.88181062  0.52248163  0.31577405  1  0.78923  0  0.123045  0.355737  0  3.896849  0
C  C22  1  0.50801034  0.72793110  0.49271998  1  1.559303  0  0.218394  0.618892  0  4.135745  0
C  C23  1  0.52747855  0.53430587  0.68947232  1  1.702573  0  0.21715  0.66826  0  4.239881  0
C  C24  1  0.45790219  0.46215505  0.20414396  1  0.078228  0  -0.039303  -0.202071  0  3.940182  0
C  C25  1  0.54649365  0.54252813  0.79440594  1  0.198622  0  -0.041706  -0.183003  0  3.940905  0
C  C26  1  0.56380155  0.53241365  0.98231936  1  0.046284  0  -0.056391  -0.039497  0  4.034474  0
C  C27  1  0.45719232  0.47735298  0.01838925  1  0.119432  0  -0.057376  -0.049953  0  4.043127  0
C  C28  1  0.45887608  0.46929377  0.11779164  1  -0.363336  0  -0.01911  0.025065  0  4.128654  0
C  C29  1  0.55672789  0.53945704  0.88219005  1  -0.525511  0  -0.033149  -0.009293  0  4.155911  0
C  C30  1  0.40259626  0.05520746  0.52255082  1  -0.01846  0  -0.027116  -0.051906  0  3.956954  0
C  C31  1  0.51875524  0.12948271  0.50812096  1  0.002056  0  -0.019681  -0.143587  0  3.946287  0
C  C32  1  0.63247321  0.06665171  0.48859996  1  0.607325  0  0.090158  0.20858  0  4.005111  0
C  C33  1  0.62664228  0.93532120  0.48240054  1  0.513556  0  0.085041  0.196242  0  4.040307  0
C  C34  1  0.50962583  0.86269941  0.49723450  1  0.015751  0  -0.033623  -0.184829  0  3.999984  0
C  C35  1  0.39811892  0.92825497  0.51738728  1  0.005076  0  -0.025772  0.01243  0  4.008633  0
C  C36  1  0.25976658  0.91323455  0.54885308  1  0.130315  0  -0.049248  -0.013373  0  3.80443  0
N  N37  1  0.86724733  0.50466792  0.50698616  1  -1.203095  0  -0.280278  -0.21282  0  3.407441  0
N  N38  1  0.15145732  0.48012691  0.49335106  1  -1.226145  0  -0.282561  -0.157884  0  3.455574  0
Cl  Cl39  1  0.82834005  0.67515406  0.29254531  1  -0.255797  0  -0.067201  -0.176083  0  1.296099  0
Cl  Cl40  1  0.11847756  0.84189734  0.45748261  1  -0.27242  0  -0.082604  -0.170947  0  1.438509  0
Cl  Cl41  1  0.91158904  0.46580189  0.69229410  1  -0.098711  0  0.072557  0.006972  0  1.515928  0
O  O42  1  0.39821599  0.30225764  0.48143059  1  -1.153859  0  -0.313676  -0.536492  0  2.330474  0
O  O43  1  0.75070962  0.12584783  0.47215142  1  -1.110184  0  -0.341226  -0.405951  0  2.277106  0
O  O44  1  0.74217558  0.88797518  0.46050757  1  -1.166311  0  -0.35193  -0.457993  0  2.36656  0
O  O45  1  0.15546731  0.11881651  0.51547629  1  -1.102203  0  -0.40867  -0.488239  0  2.238615  0
O  O46  1  0.62933734  0.33265595  0.53651146  1  -1.150745  0  -0.31741  -0.545257  0  2.370628  0
O  O47  1  0.35978447  0.48179690  0.34416724  1  -1.134017  0  -0.295145  -0.510991  0  2.253841  0
O  O48  1  0.58583093  0.44500137  0.35577121  1  -1.158102  0  -0.29705  -0.551046  0  2.298743  0
O  O49  1  0.40083588  0.66770361  0.50811103  1  -1.160697  0  -0.30265  -0.521713  0  2.342964  0
O  O50  1  0.61848662  0.67919810  0.47355974  1  -1.164815  0  -0.314541  -0.560582  0  2.367983  0
O  O51  1  0.40862847  0.48880081  0.64437973  1  -1.151386  0  -0.310001  -0.54427  0  2.271932  0
O  O52  1  0.62969300  0.57102110  0.65114434  1  -1.153087  0  -0.31965  -0.55941  0  2.30764  0
O  O53  1  0.79600450  0.42942215  0.26171317  1  -1.145746  0  -0.370185  -0.477006  0  2.25149  0
