# generated using pymatgen
data_HgH8C6(SN3)2
_symmetry_space_group_name_H-M   'P 1'
_cell_length_a   8.41966473
_cell_length_b   10.06203535
_cell_length_c   12.92328227
_cell_angle_alpha   89.99981382
_cell_angle_beta   90.00008335
_cell_angle_gamma   90.00000085
_symmetry_Int_Tables_number   1
_chemical_formula_structural   HgH8C6(SN3)2
_chemical_formula_sum   'Hg4 H32 C24 S8 N24'
_cell_volume   1094.84708760
_cell_formula_units_Z   4
loop_
 _symmetry_equiv_pos_site_id
 _symmetry_equiv_pos_as_xyz
  1  'x, y, z'
loop_
 _atom_site_type_symbol
 _atom_site_label
 _atom_site_symmetry_multiplicity
 _atom_site_fract_x
 _atom_site_fract_y
 _atom_site_fract_z
 _atom_site_occupancy
 _atom_site_hle17_bader_spin_density
 _atom_site_hle17_ddec_charge
 _atom_site_hle17_ddec_spin_density
 _atom_site_hle17_ddec_sum_bond_order
 _atom_site_hle17_magmom
 _atom_site_hse06_10hf_bader_spin_density
 _atom_site_hse06_10hf_ddec_charge
 _atom_site_hse06_10hf_ddec_spin_density
 _atom_site_hse06_10hf_ddec_sum_bond_order
 _atom_site_hse06_10hf_magmom
 _atom_site_hse06_bader_spin_density
 _atom_site_hse06_ddec_charge
 _atom_site_hse06_ddec_spin_density
 _atom_site_hse06_ddec_sum_bond_order
 _atom_site_hse06_magmom
 _atom_site_pbe_bader_spin_density
 _atom_site_pbe_cm5_charge
 _atom_site_pbe_ddec_charge
 _atom_site_pbe_ddec_spin_density
 _atom_site_pbe_ddec_sum_bond_order
 _atom_site_pbe_magmom
Hg  Hg0  1  0.74999955  0.56993535  0.50000264  1  0  0.600279  0  2.17685  0  0  0.442419  0  2.683214  0  0  0.483707  0  2.656415  0  0  0.486182  0.415058  0  2.701468  0
Hg  Hg1  1  0.24999920  0.93006422  0.99999954  1  0  0.600292  0  2.176868  0  0  0.442426  0  2.683235  0  0  0.483714  0  2.656434  0  0  0.486192  0.415065  0  2.70149  0
Hg  Hg2  1  0.24999745  0.43006603  0.50000103  1  0  0.60025  0  2.176882  0  0  0.442385  0  2.683251  0  0  0.483675  0  2.656449  0  0  0.486169  0.415026  0  2.701504  0
Hg  Hg3  1  0.74999773  0.06993507  0.99999854  1  0  0.600257  0  2.176854  0  0  0.442392  0  2.683221  0  0  0.483677  0  2.656422  0  0  0.486167  0.41503  0  2.701475  0
H  H4  1  0.85840281  0.00477949  0.41389061  1  0  0.106427  0  0.959032  0  0  0.105571  0  1.038704  0  0  0.109459  0  1.034029  0  0  0.133249  0.102933  0  1.041765  0
H  H5  1  0.14159692  0.49521898  0.91389033  1  0  0.106425  0  0.95899  0  0  0.105545  0  1.038674  0  0  0.109434  0  1.033997  0  0  0.133241  0.102905  0  1.041737  0
H  H6  1  0.35840392  0.49521971  0.08610847  1  0  0.106458  0  0.959027  0  0  0.105606  0  1.03869  0  0  0.109494  0  1.034014  0  0  0.133264  0.102967  0  1.041752  0
H  H7  1  0.64159746  0.00478410  0.58610759  1  0  0.106444  0  0.959054  0  0  0.105584  0  1.038702  0  0  0.109475  0  1.034023  0  0  0.133268  0.102945  0  1.041767  0
H  H8  1  0.14159656  0.99521890  0.58610997  1  0  0.106429  0  0.958987  0  0  0.105588  0  1.038639  0  0  0.109477  0  1.033961  0  0  0.133253  0.102949  0  1.041702  0
H  H9  1  0.85840245  0.50478040  0.08610870  1  0  0.106408  0  0.959123  0  0  0.105559  0  1.038777  0  0  0.109447  0  1.034101  0  0  0.133247  0.102921  0  1.041839  0
H  H10  1  0.64159545  0.50478166  0.91389056  1  0  0.106477  0  0.959018  0  0  0.10562  0  1.038668  0  0  0.10951  0  1.03399  0  0  0.133278  0.102981  0  1.041731  0
H  H11  1  0.35840191  0.99521926  0.41389144  1  0  0.106423  0  0.95911  0  0  0.105579  0  1.038753  0  0  0.109466  0  1.034077  0  0  0.133256  0.10294  0  1.041816  0
H  H12  1  0.63700314  0.11026533  0.30710248  1  0  0.112674  0  0.946254  0  0  0.129538  0  1.014755  0  0  0.130448  0  1.015016  0  0  0.103624  0.12881  0  1.014647  0
H  H13  1  0.36299517  0.38973458  0.80710346  1  0  0.112606  0  0.94635  0  0  0.129522  0  1.014809  0  0  0.130432  0  1.015071  0  0  0.103626  0.128794  0  1.0147  0
H  H14  1  0.13700448  0.38973387  0.19289793  1  0  0.112636  0  0.946334  0  0  0.129523  0  1.014814  0  0  0.130433  0  1.015077  0  0  0.103619  0.128795  0  1.014706  0
H  H15  1  0.86299476  0.11026652  0.69289700  1  0  0.112616  0  0.946361  0  0  0.129493  0  1.014853  0  0  0.130403  0  1.015115  0  0  0.103597  0.128766  0  1.014743  0
H  H16  1  0.36299623  0.88973406  0.69289809  1  0  0.112635  0  0.946354  0  0  0.129514  0  1.014837  0  0  0.130424  0  1.015099  0  0  0.103615  0.128787  0  1.014729  0
H  H17  1  0.63700302  0.61026480  0.19289789  1  0  0.112658  0  0.946264  0  0  0.129524  0  1.014768  0  0  0.130434  0  1.01503  0  0  0.103618  0.128797  0  1.014661  0
H  H18  1  0.86299607  0.61026552  0.80710264  1  0  0.112629  0  0.946364  0  0  0.12951  0  1.014847  0  0  0.13042  0  1.015108  0  0  0.103608  0.128782  0  1.014738  0
H  H19  1  0.13700224  0.88973386  0.30710203  1  0  0.112622  0  0.946343  0  0  0.129537  0  1.014791  0  0  0.130447  0  1.015053  0  0  0.103619  0.128809  0  1.014684  0
H  H20  1  0.67771373  0.26954435  0.25084415  1  0  0.111767  0  0.944827  0  0  0.128115  0  1.010911  0  0  0.129078  0  1.010855  0  0  0.101914  0.127369  0  1.010934  0
H  H21  1  0.32228564  0.23045678  0.75084394  1  0  0.11176  0  0.944831  0  0  0.128105  0  1.010937  0  0  0.129068  0  1.01088  0  0  0.10191  0.127358  0  1.010959  0
H  H22  1  0.17771282  0.23045683  0.24915631  1  0  0.111778  0  0.9449  0  0  0.128128  0  1.010991  0  0  0.129091  0  1.010935  0  0  0.101929  0.127381  0  1.011014  0
H  H23  1  0.82228536  0.26954332  0.74915570  1  0  0.111759  0  0.944838  0  0  0.128113  0  1.010912  0  0  0.129078  0  1.010853  0  0  0.101914  0.127366  0  1.010935  0
H  H24  1  0.32228802  0.73045603  0.74915720  1  0  0.111786  0  0.9449  0  0  0.128111  0  1.01101  0  0  0.129075  0  1.010954  0  0  0.101908  0.127364  0  1.011034  0
H  H25  1  0.67771373  0.76954260  0.24915586  1  0  0.111767  0  0.944828  0  0  0.128114  0  1.010921  0  0  0.129077  0  1.010864  0  0  0.101916  0.127368  0  1.010944  0
H  H26  1  0.82228774  0.76954355  0.75084349  1  0  0.111793  0  0.944843  0  0  0.12812  0  1.010944  0  0  0.129084  0  1.010887  0  0  0.101901  0.127373  0  1.010967  0
H  H27  1  0.17771163  0.73045607  0.25084410  1  0  0.111796  0  0.94481  0  0  0.128124  0  1.010921  0  0  0.129088  0  1.010864  0  0  0.10191  0.127378  0  1.010944  0
H  H28  1  0.58559381  0.26034516  0.37495887  1  0  0.106199  0  0.95105  0  0  0.123182  0  1.019257  0  0  0.123252  0  1.020399  0  0  0.098645  0.123005  0  1.018624  0
H  H29  1  0.41440703  0.23965347  0.87495950  1  0  0.106194  0  0.951012  0  0  0.123176  0  1.019243  0  0  0.123248  0  1.02038  0  0  0.098639  0.123  0  1.018607  0
H  H30  1  0.08559262  0.23965503  0.12504150  1  0  0.106196  0  0.951033  0  0  0.123184  0  1.019247  0  0  0.123254  0  1.02039  0  0  0.098652  0.123007  0  1.018613  0
H  H31  1  0.91440765  0.26034663  0.62504100  1  0  0.106172  0  0.951044  0  0  0.123155  0  1.019258  0  0  0.123227  0  1.020397  0  0  0.098636  0.122978  0  1.018624  0
H  H32  1  0.41440675  0.73965522  0.62504171  1  0  0.106218  0  0.951021  0  0  0.123202  0  1.01923  0  0  0.123272  0  1.020373  0  0  0.098651  0.123024  0  1.018596  0
H  H33  1  0.58559353  0.76034591  0.12504108  1  0  0.106191  0  0.951042  0  0  0.123178  0  1.019249  0  0  0.123248  0  1.020391  0  0  0.098645  0.123002  0  1.018616  0
H  H34  1  0.91440675  0.76034535  0.87495908  1  0  0.106216  0  0.95103  0  0  0.123197  0  1.019242  0  0  0.123267  0  1.020383  0  0  0.098652  0.123019  0  1.018607  0
H  H35  1  0.08559290  0.73965375  0.37495957  1  0  0.106216  0  0.951032  0  0  0.123202  0  1.01924  0  0  0.123274  0  1.020377  0  0  0.098657  0.123026  0  1.018604  0
C  C36  1  0.92672854  0.31964030  0.38601342  1  0  0.258475  0  3.819384  0  0  0.227358  0  4.100054  0  0  0.244223  0  4.115422  0  0  0.197481  0.216073  0  4.089394  0
C  C37  1  0.07327350  0.18035829  0.88601079  1  0  0.258527  0  3.819384  0  0  0.227366  0  4.100082  0  0  0.244231  0  4.11545  0  0  0.197468  0.21608  0  4.089423  0
C  C38  1  0.42672496  0.18035791  0.11398572  1  0  0.258513  0  3.819409  0  0  0.227368  0  4.100067  0  0  0.244233  0  4.115433  0  0  0.19748  0.216081  0  4.089412  0
C  C39  1  0.57327411  0.31964281  0.61398707  1  0  0.258505  0  3.819476  0  0  0.227396  0  4.100154  0  0  0.244263  0  4.115517  0  0  0.197462  0.21611  0  4.089493  0
C  C40  1  0.07327439  0.68035710  0.61398793  1  0  0.258567  0  3.819466  0  0  0.227414  0  4.100128  0  0  0.244278  0  4.115496  0  0  0.197502  0.216127  0  4.08947  0
C  C41  1  0.92672587  0.81964110  0.11398437  1  0  0.258517  0  3.819313  0  0  0.227395  0  4.099989  0  0  0.244262  0  4.115354  0  0  0.197491  0.21611  0  4.089332  0
C  C42  1  0.57327441  0.81964247  0.88601253  1  0  0.258438  0  3.819532  0  0  0.227269  0  4.10023  0  0  0.244135  0  4.115594  0  0  0.197434  0.215983  0  4.089571  0
C  C43  1  0.42672645  0.68035857  0.38601505  1  0  0.258438  0  3.819438  0  0  0.227319  0  4.100103  0  0  0.244185  0  4.115469  0  0  0.197459  0.216032  0  4.089445  0
C  C44  1  0.90711734  0.10460324  0.41077288  1  0  0.135401  0  3.675463  0  0  0.078628  0  3.953692  0  0  0.089538  0  3.966037  0  0  0.142852  0.071382  0  3.945102  0
C  C45  1  0.09288120  0.39539425  0.91077281  1  0  0.13545  0  3.675582  0  0  0.078683  0  3.953812  0  0  0.089593  0  3.966154  0  0  0.142885  0.071438  0  3.945218  0
C  C46  1  0.40711845  0.39539596  0.08922780  1  0  0.135377  0  3.675542  0  0  0.078567  0  3.953754  0  0  0.089475  0  3.966102  0  0  0.142833  0.071322  0  3.945162  0
C  C47  1  0.59288412  0.10460286  0.58922585  1  0  0.135465  0  3.675242  0  0  0.078719  0  3.95347  0  0  0.089632  0  3.965809  0  0  0.142876  0.071471  0  3.944881  0
C  C48  1  0.09288203  0.89539515  0.58922925  1  0  0.135453  0  3.675547  0  0  0.078639  0  3.953765  0  0  0.089549  0  3.96611  0  0  0.142871  0.071392  0  3.945173  0
C  C49  1  0.90711579  0.60460016  0.08922777  1  0  0.135425  0  3.675473  0  0  0.078645  0  3.953698  0  0  0.089554  0  3.966047  0  0  0.142854  0.071399  0  3.945106  0
C  C50  1  0.59288092  0.60460441  0.91077201  1  0  0.135426  0  3.675554  0  0  0.07863  0  3.953782  0  0  0.089541  0  3.966125  0  0  0.142842  0.071385  0  3.945189  0
C  C51  1  0.40711644  0.89539950  0.41077241  1  0  0.135418  0  3.675492  0  0  0.078631  0  3.953729  0  0  0.089541  0  3.966075  0  0  0.142847  0.071384  0  3.945137  0
C  C52  1  0.67210670  0.21302085  0.32322908  1  0  -0.164985  0  3.619811  0  0  -0.26606  0  3.863452  0  0  -0.262489  0  3.872412  0  0  -0.137564  -0.268213  0  3.857323  0
C  C53  1  0.32789402  0.28697800  0.82322873  1  0  -0.164914  0  3.619848  0  0  -0.266082  0  3.863488  0  0  -0.262511  0  3.872447  0  0  -0.137575  -0.268239  0  3.857367  0
C  C54  1  0.17210563  0.28697835  0.17677215  1  0  -0.164953  0  3.619943  0  0  -0.266107  0  3.863587  0  0  -0.262537  0  3.872549  0  0  -0.137587  -0.268261  0  3.85746  0
C  C55  1  0.82789477  0.21302111  0.67677092  1  0  -0.164892  0  3.619857  0  0  -0.265988  0  3.863502  0  0  -0.262415  0  3.872461  0  0  -0.137536  -0.268142  0  3.857373  0
C  C56  1  0.32789505  0.78697854  0.67677305  1  0  -0.164963  0  3.619937  0  0  -0.266084  0  3.863562  0  0  -0.262515  0  3.872524  0  0  -0.13756  -0.268235  0  3.857427  0
C  C57  1  0.67210653  0.71302039  0.17677107  1  0  -0.164975  0  3.619829  0  0  -0.266071  0  3.863486  0  0  -0.262501  0  3.872448  0  0  -0.137558  -0.268223  0  3.857353  0
C  C58  1  0.82789374  0.71302103  0.82322766  1  0  -0.16501  0  3.619957  0  0  -0.266122  0  3.863571  0  0  -0.26255  0  3.872529  0  0  -0.137573  -0.268277  0  3.857444  0
C  C59  1  0.17210579  0.78697828  0.32322889  1  0  -0.165028  0  3.619887  0  0  -0.266151  0  3.863521  0  0  -0.26258  0  3.872481  0  0  -0.137592  -0.268303  0  3.857387  0
S  S60  1  0.88953462  0.47980381  0.34538498  1  0  -0.363609  0  2.171913  0  0  -0.334041  0  2.549194  0  0  -0.349468  0  2.542248  0  0  -0.173323  -0.323332  0  2.553442  0
S  S61  1  0.11046615  0.02019694  0.84538201  1  0  -0.363634  0  2.17203  0  0  -0.334049  0  2.549313  0  0  -0.349486  0  2.542385  0  0  -0.173314  -0.323338  0  2.55356  0
S  S62  1  0.38953350  0.02019639  0.15461645  1  0  -0.363625  0  2.172018  0  0  -0.334052  0  2.549299  0  0  -0.349485  0  2.542368  0  0  -0.17331  -0.323342  0  2.553548  0
S  S63  1  0.61046566  0.47980316  0.65461898  1  0  -0.363601  0  2.172041  0  0  -0.334035  0  2.549331  0  0  -0.349474  0  2.542403  0  0  -0.173308  -0.323326  0  2.553577  0
S  S64  1  0.11046831  0.52019657  0.65461869  1  0  -0.363605  0  2.172056  0  0  -0.334018  0  2.549321  0  0  -0.349453  0  2.542393  0  0  -0.173305  -0.323307  0  2.553567  0
S  S65  1  0.88953441  0.97980245  0.15461470  1  0  -0.363643  0  2.171951  0  0  -0.334071  0  2.54923  0  0  -0.349502  0  2.542287  0  0  -0.17333  -0.323363  0  2.55348  0
S  S66  1  0.61046825  0.97980299  0.84538026  1  0  -0.363593  0  2.172028  0  0  -0.334005  0  2.549294  0  0  -0.34944  0  2.542365  0  0  -0.17331  -0.323294  0  2.553541  0
S  S67  1  0.38953490  0.52019722  0.34538547  1  0  -0.363615  0  2.171988  0  0  -0.334052  0  2.549281  0  0  -0.349484  0  2.542341  0  0  -0.173322  -0.323344  0  2.55353  0
N  N68  1  0.05855982  0.27533008  0.43264905  1  0  -0.285958  0  3.188064  0  0  -0.218996  0  3.476507  0  0  -0.236805  0  3.493464  0  0  -0.236555  -0.207249  0  3.464963  0
N  N69  1  0.94143995  0.22466633  0.93264790  1  0  -0.286016  0  3.187922  0  0  -0.219063  0  3.476398  0  0  -0.236872  0  3.493354  0  0  -0.23661  -0.207316  0  3.464852  0
N  N70  1  0.55855913  0.22466813  0.06735052  1  0  -0.286017  0  3.187956  0  0  -0.219066  0  3.476425  0  0  -0.236875  0  3.49338  0  0  -0.236603  -0.207319  0  3.464882  0
N  N71  1  0.44144101  0.27533477  0.56735108  1  0  -0.286041  0  3.187946  0  0  -0.219095  0  3.476415  0  0  -0.236905  0  3.493368  0  0  -0.236584  -0.207348  0  3.464869  0
N  N72  1  0.94144192  0.72466633  0.56735230  1  0  -0.28606  0  3.188096  0  0  -0.219112  0  3.476564  0  0  -0.236922  0  3.49352  0  0  -0.236626  -0.207366  0  3.465019  0
N  N73  1  0.05855823  0.77533107  0.06735035  1  0  -0.285992  0  3.187953  0  0  -0.219028  0  3.476402  0  0  -0.236837  0  3.493356  0  0  -0.236599  -0.207282  0  3.464859  0
N  N74  1  0.44144142  0.77533325  0.93264851  1  0  -0.28598  0  3.188007  0  0  -0.219014  0  3.476468  0  0  -0.236822  0  3.493422  0  0  -0.236598  -0.207267  0  3.464924  0
N  N75  1  0.55855954  0.72466959  0.43265027  1  0  -0.285991  0  3.188054  0  0  -0.219033  0  3.476506  0  0  -0.236842  0  3.493462  0  0  -0.236599  -0.207286  0  3.464962  0
N  N76  1  0.04654749  0.14078271  0.44848266  1  0  -0.233872  0  2.962134  0  0  -0.21412  0  3.249032  0  0  -0.2218  0  3.26363  0  0  -0.234251  -0.209137  0  3.238827  0
N  N77  1  0.95345351  0.35921363  0.94848118  1  0  -0.233846  0  2.96221  0  0  -0.214088  0  3.249103  0  0  -0.221767  0  3.263701  0  0  -0.234211  -0.209106  0  3.238895  0
N  N78  1  0.54654676  0.35921649  0.05151845  1  0  -0.233858  0  2.962156  0  0  -0.214103  0  3.249055  0  0  -0.221783  0  3.263654  0  0  -0.234228  -0.20912  0  3.238849  0
N  N79  1  0.45345098  0.14078648  0.55151627  1  0  -0.233909  0  2.961922  0  0  -0.214156  0  3.248813  0  0  -0.221835  0  3.263411  0  0  -0.234281  -0.209173  0  3.238609  0
N  N80  1  0.95345307  0.85921469  0.55151947  1  0  -0.23385  0  2.96219  0  0  -0.214091  0  3.249091  0  0  -0.221769  0  3.263688  0  0  -0.234206  -0.209108  0  3.238884  0
N  N81  1  0.04654823  0.64078277  0.05151785  1  0  -0.233897  0  2.962061  0  0  -0.214141  0  3.248953  0  0  -0.221822  0  3.263552  0  0  -0.234227  -0.209158  0  3.238748  0
N  N82  1  0.45345261  0.64078489  0.94848135  1  0  -0.233889  0  2.962208  0  0  -0.214135  0  3.249105  0  0  -0.221813  0  3.263701  0  0  -0.234213  -0.209152  0  3.238899  0
N  N83  1  0.54654839  0.85921788  0.44848121  1  0  -0.233906  0  2.962113  0  0  -0.214149  0  3.249014  0  0  -0.221831  0  3.263617  0  0  -0.234238  -0.209166  0  3.238809  0
N  N84  1  0.82855953  0.21173473  0.37093530  1  0  -0.082637  0  3.529131  0  0  0.019632  0  3.741941  0  0  0.00273  0  3.766387  0  0  -0.239155  0.030849  0  3.725144  0
N  N85  1  0.17144129  0.28826492  0.87093403  1  0  -0.082693  0  3.529261  0  0  0.019672  0  3.741989  0  0  0.002772  0  3.766434  0  0  -0.239152  0.030889  0  3.725187  0
N  N86  1  0.32855717  0.28826447  0.12906452  1  0  -0.082648  0  3.529207  0  0  0.019737  0  3.741903  0  0  0.002836  0  3.766349  0  0  -0.239137  0.030954  0  3.725104  0
N  N87  1  0.67144312  0.21173717  0.62906392  1  0  -0.082665  0  3.529077  0  0  0.019591  0  3.741897  0  0  0.002687  0  3.766342  0  0  -0.239143  0.030809  0  3.725096  0
N  N88  1  0.17144340  0.78826466  0.62906605  1  0  -0.082732  0  3.529217  0  0  0.019653  0  3.741909  0  0  0.002753  0  3.766355  0  0  -0.239192  0.030868  0  3.725111  0
N  N89  1  0.82855689  0.71173546  0.12906422  1  0  -0.082592  0  3.529128  0  0  0.019703  0  3.741907  0  0  0.002801  0  3.766353  0  0  -0.239138  0.030921  0  3.725109  0
N  N90  1  0.67144220  0.71173590  0.87093450  1  0  -0.082643  0  3.529238  0  0  0.019737  0  3.741935  0  0  0.002836  0  3.766379  0  0  -0.239112  0.030954  0  3.725134  0
N  N91  1  0.32855863  0.78826420  0.37093588  1  0  -0.08251  0  3.529094  0  0  0.019787  0  3.741871  0  0  0.002884  0  3.766316  0  0  -0.239083  0.031004  0  3.72507  0
