# generated using pymatgen
data_AgH7C11(NO2)2
_symmetry_space_group_name_H-M   'P 1'
_cell_length_a   5.03316275
_cell_length_b   14.35303843
_cell_length_c   14.77307872
_cell_angle_alpha   89.99993302
_cell_angle_beta   89.99988459
_cell_angle_gamma   96.24442452
_symmetry_Int_Tables_number   1
_chemical_formula_structural   AgH7C11(NO2)2
_chemical_formula_sum   'Ag4 H28 C44 N8 O16'
_cell_volume   1060.89269387
_cell_formula_units_Z   4
loop_
 _symmetry_equiv_pos_site_id
 _symmetry_equiv_pos_as_xyz
  1  'x, y, z'
loop_
 _atom_site_type_symbol
 _atom_site_label
 _atom_site_symmetry_multiplicity
 _atom_site_fract_x
 _atom_site_fract_y
 _atom_site_fract_z
 _atom_site_occupancy
 _atom_site_hle17_bader_spin_density
 _atom_site_hle17_ddec_charge
 _atom_site_hle17_ddec_spin_density
 _atom_site_hle17_ddec_sum_bond_order
 _atom_site_hle17_magmom
 _atom_site_hse06_10hf_bader_spin_density
 _atom_site_hse06_10hf_ddec_charge
 _atom_site_hse06_10hf_ddec_spin_density
 _atom_site_hse06_10hf_ddec_sum_bond_order
 _atom_site_hse06_10hf_magmom
 _atom_site_hse06_bader_spin_density
 _atom_site_hse06_ddec_charge
 _atom_site_hse06_ddec_spin_density
 _atom_site_hse06_ddec_sum_bond_order
 _atom_site_hse06_magmom
 _atom_site_pbe_bader_spin_density
 _atom_site_pbe_cm5_charge
 _atom_site_pbe_ddec_charge
 _atom_site_pbe_ddec_spin_density
 _atom_site_pbe_ddec_sum_bond_order
 _atom_site_pbe_magmom
Ag  Ag0  1  0.87796930  0.86582181  0.33717131  1  0  0.506985  0  1.393673  0  0  0.349644  0  1.849637  0  0  0.379764  0  1.798379  0  0  0.463749  0.331051  0  1.883834  0
Ag  Ag1  1  0.62202971  0.63417808  0.83717022  1  0  0.506965  0  1.393702  0  0  0.349629  0  1.849653  0  0  0.379751  0  1.798397  0  0  0.463755  0.331041  0  1.883848  0
Ag  Ag2  1  0.12202758  0.13417866  0.66282990  1  0  0.506963  0  1.393718  0  0  0.349631  0  1.849673  0  0  0.379753  0  1.798418  0  0  0.463752  0.331045  0  1.883871  0
Ag  Ag3  1  0.37797204  0.36581889  0.16282964  1  0  0.506924  0  1.393731  0  0  0.3496  0  1.849679  0  0  0.37973  0  1.798423  0  0  0.463719  0.331009  0  1.883875  0
H  H4  1  0.27397382  0.94089095  0.49644159  1  0  0.081545  0  0.942811  0  0  0.088652  0  1.007325  0  0  0.091338  0  1.005954  0  0  0.112547  0.08663  0  1.008549  0
H  H5  1  0.22602436  0.55910883  0.99644187  1  0  0.081574  0  0.942792  0  0  0.088685  0  1.007302  0  0  0.091365  0  1.005938  0  0  0.11256  0.086663  0  1.008528  0
H  H6  1  0.72602306  0.05910953  0.50355758  1  0  0.081544  0  0.942843  0  0  0.088647  0  1.00736  0  0  0.091333  0  1.005987  0  0  0.112567  0.086626  0  1.008584  0
H  H7  1  0.77396987  0.44088954  0.00355798  1  0  0.081555  0  0.942795  0  0  0.088662  0  1.007308  0  0  0.091348  0  1.005937  0  0  0.112554  0.086641  0  1.008532  0
H  H8  1  0.30367042  0.94699727  0.66474367  1  0  0.115444  0  0.996744  0  0  0.114716  0  1.074828  0  0  0.119771  0  1.070563  0  0  0.104316  0.11106  0  1.07808  0
H  H9  1  0.19632987  0.55300299  0.16474388  1  0  0.115475  0  0.996731  0  0  0.114748  0  1.074809  0  0  0.119804  0  1.070542  0  0  0.104327  0.111091  0  1.078056  0
H  H10  1  0.69633043  0.05300320  0.33525619  1  0  0.115469  0  0.996758  0  0  0.114741  0  1.074833  0  0  0.119798  0  1.070568  0  0  0.104315  0.111082  0  1.078085  0
H  H11  1  0.80366524  0.44699818  0.83525597  1  0  0.11545  0  0.996738  0  0  0.114716  0  1.074831  0  0  0.119772  0  1.070564  0  0  0.104313  0.111059  0  1.078084  0
H  H12  1  0.56689410  0.76087621  0.67342501  1  0  0.117516  0  0.960112  0  0  0.121871  0  1.030969  0  0  0.125976  0  1.028371  0  0  0.10906  0.118898  0  1.032982  0
H  H13  1  0.93310595  0.73912392  0.17342350  1  0  0.117526  0  0.960101  0  0  0.121893  0  1.030965  0  0  0.125996  0  1.028369  0  0  0.109049  0.11892  0  1.032977  0
H  H14  1  0.43310631  0.23912286  0.32657619  1  0  0.117521  0  0.960089  0  0  0.121873  0  1.03097  0  0  0.125979  0  1.02837  0  0  0.109051  0.118899  0  1.032981  0
H  H15  1  0.06689270  0.26087585  0.82657567  1  0  0.117503  0  0.960132  0  0  0.121872  0  1.03098  0  0  0.125974  0  1.028385  0  0  0.109055  0.118901  0  1.032994  0
H  H16  1  0.57703285  0.75872056  0.50367367  1  0  0.077438  0  0.960761  0  0  0.083339  0  1.029485  0  0  0.085354  0  1.029075  0  0  0.111488  0.081799  0  1.02996  0
H  H17  1  0.92296608  0.74127911  0.00367284  1  0  0.077452  0  0.960771  0  0  0.083351  0  1.029492  0  0  0.085374  0  1.029072  0  0  0.111496  0.08181  0  1.029974  0
H  H18  1  0.42296337  0.24127781  0.49632619  1  0  0.077475  0  0.960729  0  0  0.083352  0  1.029468  0  0  0.085376  0  1.029052  0  0  0.111495  0.081811  0  1.029947  0
H  H19  1  0.07703411  0.25871926  0.99632634  1  0  0.077417  0  0.960746  0  0  0.083317  0  1.029478  0  0  0.085329  0  1.029066  0  0  0.111492  0.08178  0  1.029951  0
H  H20  1  0.44121143  0.84520575  0.09703534  1  0  0.087096  0  0.963316  0  0  0.096136  0  1.026282  0  0  0.098057  0  1.027176  0  0  0.09625  0.09472  0  1.025795  0
H  H21  1  0.05879570  0.65479601  0.59703697  1  0  0.087047  0  0.963417  0  0  0.096139  0  1.026314  0  0  0.09806  0  1.027208  0  0  0.096264  0.094722  0  1.025834  0
H  H22  1  0.55879560  0.15479542  0.90296248  1  0  0.087026  0  0.963394  0  0  0.096137  0  1.026284  0  0  0.098059  0  1.027178  0  0  0.096259  0.094723  0  1.025801  0
H  H23  1  0.94119677  0.34520307  0.40296220  1  0  0.087039  0  0.963428  0  0  0.096119  0  1.02634  0  0  0.098041  0  1.027234  0  0  0.096259  0.094705  0  1.02585  0
H  H24  1  0.41459783  0.82455668  0.92799688  1  0  0.129955  0  0.964996  0  0  0.136028  0  1.032522  0  0  0.139894  0  1.029563  0  0  0.10681  0.133243  0  1.034712  0
H  H25  1  0.08539880  0.67544320  0.42799771  1  0  0.130019  0  0.965019  0  0  0.136073  0  1.032545  0  0  0.139934  0  1.029599  0  0  0.10682  0.133288  0  1.034736  0
H  H26  1  0.58540015  0.17544099  0.07200229  1  0  0.129957  0  0.965003  0  0  0.136018  0  1.032534  0  0  0.139881  0  1.029587  0  0  0.10681  0.133234  0  1.034722  0
H  H27  1  0.91459433  0.32455797  0.57200214  1  0  0.13004  0  0.965017  0  0  0.136085  0  1.032551  0  0  0.139952  0  1.029589  0  0  0.106831  0.133301  0  1.034743  0
H  H28  1  0.18392788  0.96009855  0.17256261  1  0  0.091989  0  0.989011  0  0  0.092575  0  1.07047  0  0  0.096776  0  1.066571  0  0  0.093381  0.089508  0  1.073387  0
H  H29  1  0.31608957  0.53990590  0.67256420  1  0  0.091953  0  0.989058  0  0  0.092551  0  1.070517  0  0  0.096756  0  1.066609  0  0  0.093365  0.089485  0  1.073441  0
H  H30  1  0.81609393  0.03990542  0.82743521  1  0  0.091986  0  0.988967  0  0  0.092578  0  1.070426  0  0  0.096781  0  1.066523  0  0  0.093379  0.089512  0  1.073351  0
H  H31  1  0.68390311  0.46009388  0.32743565  1  0  0.091952  0  0.989022  0  0  0.092535  0  1.070497  0  0  0.09674  0  1.066589  0  0  0.093341  0.089467  0  1.073416  0
C  C32  1  0.12213703  0.90160568  0.53826436  1  0  0.113946  0  3.709579  0  0  0.087538  0  3.962582  0  0  0.091891  0  3.981738  0  0  0.041807  0.08462  0  3.949796  0
C  C33  1  0.37786186  0.59839406  0.03826440  1  0  0.113903  0  3.709567  0  0  0.087484  0  3.96258  0  0  0.091841  0  3.981741  0  0  0.041786  0.084566  0  3.949797  0
C  C34  1  0.87786161  0.09839410  0.46173617  1  0  0.114054  0  3.709621  0  0  0.087653  0  3.962621  0  0  0.092008  0  3.981779  0  0  0.041819  0.084734  0  3.949838  0
C  C35  1  0.62213458  0.40160501  0.96173612  1  0  0.114  0  3.709609  0  0  0.087583  0  3.962622  0  0  0.091937  0  3.981777  0  0  0.0418  0.084668  0  3.949834  0
C  C36  1  0.13600634  0.90549291  0.63227049  1  0  -0.123987  0  3.707987  0  0  -0.148275  0  3.964644  0  0  -0.151861  0  3.982166  0  0  -0.081747  -0.146176  0  3.953251  0
C  C37  1  0.36399218  0.59450740  0.13226987  1  0  -0.124002  0  3.70795  0  0  -0.148312  0  3.964628  0  0  -0.151891  0  3.982124  0  0  -0.08175  -0.146213  0  3.953228  0
C  C38  1  0.86399032  0.09450687  0.36773072  1  0  -0.124085  0  3.70801  0  0  -0.148386  0  3.964684  0  0  -0.151963  0  3.982171  0  0  -0.081756  -0.146286  0  3.953285  0
C  C39  1  0.63600470  0.40549307  0.86773066  1  0  -0.123966  0  3.707964  0  0  -0.148238  0  3.964617  0  0  -0.151825  0  3.982136  0  0  -0.081698  -0.146136  0  3.95322  0
C  C40  1  0.93305300  0.85512196  0.68241010  1  0  -0.003744  0  3.74579  0  0  0.011723  0  3.978021  0  0  0.008973  0  3.996622  0  0  0.006308  0.013584  0  3.965833  0
C  C41  1  0.56694501  0.64487816  0.18241098  1  0  -0.00372  0  3.745819  0  0  0.011789  0  3.978014  0  0  0.009047  0  3.996616  0  0  0.006331  0.013654  0  3.965817  0
C  C42  1  0.06694763  0.14487781  0.31759043  1  0  -0.003724  0  3.74572  0  0  0.011756  0  3.977907  0  0  0.009019  0  3.996493  0  0  0.006331  0.013621  0  3.965711  0
C  C43  1  0.43304966  0.35512162  0.81759023  1  0  -0.003744  0  3.745772  0  0  0.011702  0  3.978019  0  0  0.008968  0  3.996607  0  0  0.006307  0.013566  0  3.96583  0
C  C44  1  0.72738020  0.80133916  0.63632434  1  0  -0.109148  0  3.677123  0  0  -0.12977  0  3.920018  0  0  -0.134236  0  3.940031  0  0  -0.070838  -0.126974  0  3.906815  0
C  C45  1  0.77261589  0.69866033  0.13632366  1  0  -0.109168  0  3.677242  0  0  -0.129825  0  3.920113  0  0  -0.134293  0  3.940131  0  0  -0.070861  -0.127029  0  3.906906  0
C  C46  1  0.27262021  0.19865991  0.36367754  1  0  -0.10918  0  3.677186  0  0  -0.129819  0  3.920074  0  0  -0.134287  0  3.940084  0  0  -0.070879  -0.127021  0  3.906861  0
C  C47  1  0.22738033  0.30133804  0.86367619  1  0  -0.109139  0  3.677101  0  0  -0.129782  0  3.920004  0  0  -0.134247  0  3.940012  0  0  -0.070845  -0.126988  0  3.906807  0
C  C48  1  0.73134913  0.80084662  0.54212055  1  0  0.117826  0  3.690231  0  0  0.093305  0  3.936133  0  0  0.098131  0  3.955408  0  0  0.043675  0.090086  0  3.923138  0
C  C49  1  0.76865110  0.69915159  0.04211920  1  0  0.117804  0  3.69037  0  0  0.093299  0  3.936259  0  0  0.098119  0  3.955529  0  0  0.043706  0.090074  0  3.923272  0
C  C50  1  0.26864709  0.19915175  0.45788133  1  0  0.117842  0  3.690343  0  0  0.093359  0  3.936227  0  0  0.098174  0  3.955502  0  0  0.043744  0.090137  0  3.923237  0
C  C51  1  0.23134710  0.30084678  0.95787998  1  0  0.117878  0  3.690217  0  0  0.093365  0  3.936126  0  0  0.098197  0  3.955393  0  0  0.043687  0.090143  0  3.923139  0
C  C52  1  0.92665991  0.85807275  0.78292875  1  0  0.607412  0  3.763972  0  0  0.55339  0  4.058191  0  0  0.5885  0  4.045769  0  0  0.247482  0.529223  0  4.066649  0
C  C53  1  0.57333966  0.64192792  0.28292828  1  0  0.607407  0  3.76405  0  0  0.553359  0  4.058266  0  0  0.588454  0  4.04587  0  0  0.24748  0.529192  0  4.066718  0
C  C54  1  0.07333808  0.14192491  0.21707313  1  0  0.607355  0  3.764057  0  0  0.553389  0  4.058187  0  0  0.588494  0  4.045765  0  0  0.247502  0.529217  0  4.066644  0
C  C55  1  0.42666008  0.35807536  0.71707293  1  0  0.607416  0  3.763998  0  0  0.553416  0  4.058181  0  0  0.588505  0  4.04579  0  0  0.247488  0.529248  0  4.066634  0
C  C56  1  0.31532969  0.88680898  0.05717569  1  0  -0.045131  0  3.76623  0  0  -0.055119  0  4.017324  0  0  -0.057194  0  4.040497  0  0  -0.0908  -0.053597  0  4.001476  0
C  C57  1  0.18467989  0.61319354  0.55717729  1  0  -0.045022  0  3.766182  0  0  -0.055038  0  4.017276  0  0  -0.057114  0  4.040447  0  0  -0.09076  -0.053518  0  4.001438  0
C  C58  1  0.68467889  0.11319079  0.94282349  1  0  -0.045001  0  3.766229  0  0  -0.055038  0  4.017336  0  0  -0.057114  0  4.040508  0  0  -0.090764  -0.053518  0  4.001499  0
C  C59  1  0.81532117  0.38680763  0.44282257  1  0  -0.045038  0  3.766285  0  0  -0.055053  0  4.01737  0  0  -0.057131  0  4.040543  0  0  -0.090785  -0.053534  0  4.001524  0
C  C60  1  0.30041663  0.87410979  0.96234992  1  0  -0.16143  0  3.725295  0  0  -0.188359  0  3.984207  0  0  -0.19146  0  4.002309  0  0  -0.096626  -0.186151  0  3.971892  0
C  C61  1  0.19958441  0.62589214  0.46234802  1  0  -0.161501  0  3.72533  0  0  -0.188445  0  3.984331  0  0  -0.19154  0  4.002426  0  0  -0.096665  -0.186241  0  3.972017  0
C  C62  1  0.69958996  0.12588998  0.03765129  1  0  -0.161426  0  3.725377  0  0  -0.188346  0  3.984311  0  0  -0.191442  0  4.002403  0  0  -0.096661  -0.18614  0  3.971997  0
C  C63  1  0.80040849  0.37410833  0.53765251  1  0  -0.16155  0  3.725403  0  0  -0.18845  0  3.984342  0  0  -0.191548  0  4.002436  0  0  -0.096676  -0.186246  0  3.972034  0
C  C64  1  0.14046963  0.92646002  0.91252282  1  0  0.228981  0  3.738547  0  0  0.215807  0  4.000919  0  0  0.223848  0  4.017576  0  0  0.082401  0.210229  0  3.989682  0
C  C65  1  0.35952952  0.57354128  0.41252291  1  0  0.228914  0  3.738609  0  0  0.215731  0  4.000967  0  0  0.223764  0  4.017639  0  0  0.082368  0.210158  0  3.989722  0
C  C66  1  0.85954600  0.07354325  0.08747703  1  0  0.228841  0  3.738703  0  0  0.215677  0  4.001055  0  0  0.223713  0  4.017715  0  0  0.08242  0.210105  0  3.989812  0
C  C67  1  0.64046118  0.42645850  0.58747627  1  0  0.228952  0  3.738634  0  0  0.215741  0  4.001026  0  0  0.223785  0  4.017675  0  0  0.0824  0.210162  0  3.989786  0
C  C68  1  0.99072767  0.99420941  0.95176821  1  0  -0.014806  0  3.788513  0  0  -0.000787  0  4.011312  0  0  -0.003081  0  4.036651  0  0  -0.008352  0.000757  0  3.994109  0
C  C69  1  0.50927281  0.50579102  0.45176861  1  0  -0.014832  0  3.788546  0  0  -0.000791  0  4.011316  0  0  -0.003083  0  4.036658  0  0  -0.008326  0.000749  0  3.994109  0
C  C70  1  0.00929260  0.00579596  0.04823029  1  0  -0.014851  0  3.788454  0  0  -0.000814  0  4.011218  0  0  -0.003103  0  4.036555  0  0  -0.008355  0.000728  0  3.994014  0
C  C71  1  0.49071965  0.49420806  0.54823125  1  0  -0.014804  0  3.788483  0  0  -0.000775  0  4.011274  0  0  -0.003066  0  4.03661  0  0  -0.008369  0.000767  0  3.99407  0
C  C72  1  0.17212247  0.95088559  0.09949525  1  0  -0.107442  0  3.743563  0  0  -0.134862  0  4.005019  0  0  -0.137171  0  4.025311  0  0  -0.097762  -0.133282  0  3.991379  0
C  C73  1  0.32789148  0.54911896  0.59949682  1  0  -0.107492  0  3.743626  0  0  -0.134929  0  4.005102  0  0  -0.137242  0  4.025399  0  0  -0.097817  -0.133355  0  3.991474  0
C  C74  1  0.82789162  0.04911908  0.90050325  1  0  -0.10756  0  3.743604  0  0  -0.134993  0  4.005104  0  0  -0.137304  0  4.025404  0  0  -0.097832  -0.133417  0  3.991478  0
C  C75  1  0.67210717  0.45088081  0.40050371  1  0  -0.107491  0  3.74364  0  0  -0.134913  0  4.005104  0  0  -0.137223  0  4.025402  0  0  -0.097791  -0.133334  0  3.991464  0
N  N76  1  0.92352233  0.85085073  0.49340549  1  0  -0.291838  0  3.248608  0  0  -0.220884  0  3.530069  0  0  -0.236412  0  3.544781  0  0  -0.32995  -0.210264  0  3.519899  0
N  N77  1  0.57647788  0.64914964  0.99340509  1  0  -0.291825  0  3.248641  0  0  -0.220877  0  3.530104  0  0  -0.236405  0  3.544817  0  0  -0.32998  -0.210261  0  3.519944  0
N  N78  1  0.07647433  0.14914905  0.50659436  1  0  -0.291908  0  3.248626  0  0  -0.220979  0  3.530102  0  0  -0.236507  0  3.544818  0  0  -0.330022  -0.210361  0  3.519941  0
N  N79  1  0.42352231  0.35084873  0.00659341  1  0  -0.291928  0  3.248694  0  0  -0.220988  0  3.530178  0  0  -0.236515  0  3.544884  0  0  -0.329972  -0.210369  0  3.520013  0
N  N80  1  0.45480447  0.87750852  0.30300931  1  0  0.21407  0  3.510074  0  0  0.241163  0  3.859816  0  0  0.258913  0  3.858122  0  0  -0.0997  0.229201  0  3.860345  0
N  N81  1  0.04519295  0.62249154  0.80300828  1  0  0.214143  0  3.510118  0  0  0.241244  0  3.859847  0  0  0.258992  0  3.85815  0  0  -0.09967  0.229281  0  3.860374  0
N  N82  1  0.54519262  0.12249265  0.69699190  1  0  0.214111  0  3.510091  0  0  0.241201  0  3.859842  0  0  0.258952  0  3.858145  0  0  -0.099717  0.229239  0  3.86037  0
N  N83  1  0.95480503  0.37750613  0.19699090  1  0  0.214  0  3.510073  0  0  0.241105  0  3.859818  0  0  0.258853  0  3.85812  0  0  -0.099778  0.229142  0  3.860344  0
O  O84  1  0.75263207  0.81573690  0.82956299  1  0  -0.509877  0  2.056745  0  0  -0.463155  0  2.307398  0  0  -0.483066  0  2.295906  0  0  -0.26477  -0.449914  0  2.31535  0
O  O85  1  0.74736720  0.68426370  0.32956235  1  0  -0.509881  0  2.056739  0  0  -0.46315  0  2.307405  0  0  -0.483047  0  2.295911  0  0  -0.264776  -0.449911  0  2.315358  0
O  O86  1  0.24737297  0.18426427  0.17043754  1  0  -0.509855  0  2.056605  0  0  -0.463141  0  2.307199  0  0  -0.483056  0  2.295735  0  0  -0.264775  -0.449897  0  2.315153  0
O  O87  1  0.25262725  0.31573537  0.67043683  1  0  -0.509886  0  2.056575  0  0  -0.463164  0  2.307192  0  0  -0.483073  0  2.295733  0  0  -0.264786  -0.449921  0  2.315144  0
O  O88  1  0.13402883  0.91598301  0.81768681  1  0  -0.320332  0  2.320274  0  0  -0.249737  0  2.552089  0  0  -0.270754  0  2.549877  0  0  -0.132731  -0.234925  0  2.552972  0
O  O89  1  0.36597093  0.58401843  0.31768620  1  0  -0.320313  0  2.320257  0  0  -0.24969  0  2.552045  0  0  -0.27071  0  2.549859  0  0  -0.1327  -0.234883  0  2.552928  0
O  O90  1  0.86597600  0.08401746  0.18231304  1  0  -0.320255  0  2.320412  0  0  -0.249683  0  2.552192  0  0  -0.270708  0  2.550013  0  0  -0.132762  -0.234879  0  2.553092  0
O  O91  1  0.63402616  0.41598274  0.68231365  1  0  -0.320331  0  2.320334  0  0  -0.24971  0  2.552108  0  0  -0.270733  0  2.549929  0  0  -0.132698  -0.234902  0  2.553001  0
O  O92  1  0.34585210  0.94803433  0.33057566  1  0  -0.415766  0  1.949205  0  0  -0.360202  0  2.196741  0  0  -0.384206  0  2.193659  0  0  -0.181061  -0.344136  0  2.198632  0
O  O93  1  0.15414736  0.55196639  0.83057532  1  0  -0.415816  0  1.949278  0  0  -0.360234  0  2.196782  0  0  -0.384236  0  2.1937  0  0  -0.18106  -0.344166  0  2.198673  0
O  O94  1  0.65414500  0.05196684  0.66942487  1  0  -0.415809  0  1.949236  0  0  -0.360221  0  2.196751  0  0  -0.384227  0  2.193672  0  0  -0.181055  -0.344152  0  2.198642  0
O  O95  1  0.84585283  0.44803198  0.16942386  1  0  -0.415772  0  1.949222  0  0  -0.360198  0  2.196722  0  0  -0.384204  0  2.193644  0  0  -0.181045  -0.344132  0  2.198613  0
O  O96  1  0.29851312  0.80699907  0.28002029  1  0  -0.386599  0  1.964618  0  0  -0.334647  0  2.216815  0  0  -0.357657  0  2.213963  0  0  -0.164894  -0.319091  0  2.218414  0
O  O97  1  0.20148622  0.69300032  0.78002043  1  0  -0.386613  0  1.964572  0  0  -0.334692  0  2.216805  0  0  -0.357701  0  2.213955  0  0  -0.164936  -0.319133  0  2.2184  0
O  O98  1  0.70148574  0.19300140  0.71997957  1  0  -0.386592  0  1.964622  0  0  -0.334664  0  2.21683  0  0  -0.357671  0  2.213975  0  0  -0.164887  -0.319106  0  2.218432  0
O  O99  1  0.79851177  0.30699735  0.21997807  1  0  -0.386473  0  1.96456  0  0  -0.334558  0  2.216778  0  0  -0.357586  0  2.213978  0  0  -0.164828  -0.319011  0  2.218399  0
