# generated using pymatgen
data_CuH13C7SN2
_symmetry_space_group_name_H-M   'P 1'
_cell_length_a   6.41601245
_cell_length_b   11.33886520
_cell_length_c   12.49495635
_cell_angle_alpha   107.48118382
_cell_angle_beta   89.99996173
_cell_angle_gamma   90.00003535
_symmetry_Int_Tables_number   1
_chemical_formula_structural   CuH13C7SN2
_chemical_formula_sum   'Cu4 H52 C28 S4 N8'
_cell_volume   867.02970805
_cell_formula_units_Z   4
loop_
 _symmetry_equiv_pos_site_id
 _symmetry_equiv_pos_as_xyz
  1  'x, y, z'
loop_
 _atom_site_type_symbol
 _atom_site_label
 _atom_site_symmetry_multiplicity
 _atom_site_fract_x
 _atom_site_fract_y
 _atom_site_fract_z
 _atom_site_occupancy
 _atom_site_hle17_bader_spin_density
 _atom_site_hle17_ddec_charge
 _atom_site_hle17_ddec_spin_density
 _atom_site_hle17_ddec_sum_bond_order
 _atom_site_hle17_magmom
 _atom_site_hse06_10hf_bader_spin_density
 _atom_site_hse06_10hf_ddec_charge
 _atom_site_hse06_10hf_ddec_spin_density
 _atom_site_hse06_10hf_ddec_sum_bond_order
 _atom_site_hse06_10hf_magmom
 _atom_site_hse06_bader_spin_density
 _atom_site_hse06_ddec_charge
 _atom_site_hse06_ddec_spin_density
 _atom_site_hse06_ddec_sum_bond_order
 _atom_site_hse06_magmom
 _atom_site_pbe_bader_spin_density
 _atom_site_pbe_cm5_charge
 _atom_site_pbe_ddec_charge
 _atom_site_pbe_ddec_spin_density
 _atom_site_pbe_ddec_sum_bond_order
 _atom_site_pbe_magmom
Cu  Cu0  1  0.31822414  0.53561611  0.46848534  1  0  0.402896  0  2.160249  0  0  0.322243  0  2.662842  0  0  0.31928  0  2.616255  0  0  0.459201  0.326694  0  2.692677  0
Cu  Cu1  1  0.81823117  0.96437563  0.53151506  1  0  0.402942  0  2.160191  0  0  0.322335  0  2.662771  0  0  0.319378  0  2.616182  0  0  0.459268  0.326788  0  2.692677  0
Cu  Cu2  1  0.68176762  0.46437732  0.53151596  1  0  0.402958  0  2.16031  0  0  0.322367  0  2.662884  0  0  0.319396  0  2.616301  0  0  0.459239  0.326815  0  2.692659  0
Cu  Cu3  1  0.18177618  0.03561411  0.46848441  1  0  0.40286  0  2.160271  0  0  0.322235  0  2.662885  0  0  0.319235  0  2.616299  0  0  0.459173  0.326679  0  2.692722  0
H  H4  1  0.04590074  0.36746093  0.39404833  1  0  0.277615  0  0.937458  0  0  0.269622  0  0.998377  0  0  0.273231  0  0.99648  0  0  0.279222  0.267048  0  0.999769  0
H  H5  1  0.54591665  0.13253414  0.60595551  1  0  0.277575  0  0.937595  0  0  0.269629  0  0.998479  0  0  0.273239  0  0.99658  0  0  0.279247  0.267051  0  0.999886  0
H  H6  1  0.95408946  0.63253715  0.60595187  1  0  0.277564  0  0.937527  0  0  0.269626  0  0.9984  0  0  0.273235  0  0.996505  0  0  0.279227  0.267048  0  0.999811  0
H  H7  1  0.45409070  0.86745929  0.39404499  1  0  0.27761  0  0.937603  0  0  0.269685  0  0.998443  0  0  0.273292  0  0.996549  0  0  0.279254  0.267119  0  0.999832  0
H  H8  1  0.01618456  0.47357879  0.33400633  1  0  0.265191  0  0.939028  0  0  0.259325  0  0.999531  0  0  0.262821  0  0.997922  0  0  0.271975  0.2568  0  1.000834  0
H  H9  1  0.51618780  0.02641719  0.66599858  1  0  0.265031  0  0.93894  0  0  0.259221  0  0.999394  0  0  0.262717  0  0.997786  0  0  0.271908  0.256698  0  1.000697  0
H  H10  1  0.98381031  0.52642019  0.66599653  1  0  0.265164  0  0.938805  0  0  0.259317  0  0.999337  0  0  0.262812  0  0.997728  0  0  0.271951  0.25679  0  1.00064  0
H  H11  1  0.48382266  0.97357807  0.33400484  1  0  0.265097  0  0.938968  0  0  0.259286  0  0.999428  0  0  0.262782  0  0.997817  0  0  0.271922  0.256761  0  1.000724  0
H  H12  1  0.31172018  0.38855973  0.20898654  1  0  0.022385  0  0.924647  0  0  0.039515  0  0.985645  0  0  0.039067  0  0.986605  0  0  0.09522  0.039725  0  0.985124  0
H  H13  1  0.81172959  0.11144376  0.79101636  1  0  0.022466  0  0.924702  0  0  0.039539  0  0.985751  0  0  0.03909  0  0.986713  0  0  0.095222  0.03975  0  0.985228  0
H  H14  1  0.68827158  0.61144575  0.79101493  1  0  0.02239  0  0.924681  0  0  0.039503  0  0.985695  0  0  0.039054  0  0.986657  0  0  0.0952  0.039716  0  0.985175  0
H  H15  1  0.18828555  0.88855895  0.20898434  1  0  0.022401  0  0.924662  0  0  0.039494  0  0.985685  0  0  0.039046  0  0.986646  0  0  0.09518  0.039704  0  0.985162  0
H  H16  1  0.94449173  0.34941871  0.14607972  1  0  0.06332  0  0.949002  0  0  0.08131  0  1.012385  0  0  0.082117  0  1.012851  0  0  0.085747  0.080687  0  1.012125  0
H  H17  1  0.44449837  0.15058020  0.85392026  1  0  0.063317  0  0.949071  0  0  0.081306  0  1.012464  0  0  0.082111  0  1.012932  0  0  0.085755  0.080679  0  1.012208  0
H  H18  1  0.05550315  0.65058217  0.85391807  1  0  0.063346  0  0.949063  0  0  0.081334  0  1.012449  0  0  0.082142  0  1.012917  0  0  0.085753  0.080702  0  1.012204  0
H  H19  1  0.55551365  0.84941600  0.14608262  1  0  0.063253  0  0.949077  0  0  0.081258  0  1.012492  0  0  0.082063  0  1.012964  0  0  0.085737  0.080627  0  1.012242  0
H  H20  1  0.92832270  0.22653947  0.20590851  1  0  0.070751  0  0.938799  0  0  0.09091  0  0.998084  0  0  0.090729  0  1.00021  0  0  0.088061  0.090974  0  0.996653  0
H  H21  1  0.42832799  0.27345575  0.79408884  1  0  0.070729  0  0.938815  0  0  0.090928  0  0.998068  0  0  0.090762  0  1.000173  0  0  0.088056  0.090995  0  0.996636  0
H  H22  1  0.07167374  0.77345864  0.79408770  1  0  0.070769  0  0.938824  0  0  0.090942  0  0.998092  0  0  0.090776  0  1.000201  0  0  0.088066  0.091008  0  0.996655  0
H  H23  1  0.57167156  0.72653677  0.20591061  1  0  0.07087  0  0.938758  0  0  0.091006  0  0.998099  0  0  0.090853  0  1.000191  0  0  0.088113  0.091074  0  0.996664  0
H  H24  1  0.99367022  0.14265345  0.00054170  1  0  0.054949  0  0.962465  0  0  0.07183  0  1.030527  0  0  0.072739  0  1.030364  0  0  0.084874  0.071121  0  1.030711  0
H  H25  1  0.49367224  0.35734828  0.99945665  1  0  0.05492  0  0.962479  0  0  0.071795  0  1.03056  0  0  0.072705  0  1.030396  0  0  0.084828  0.071089  0  1.030745  0
H  H26  1  0.00632933  0.85734835  0.99945715  1  0  0.054918  0  0.962474  0  0  0.071786  0  1.030558  0  0  0.072696  0  1.030395  0  0  0.084825  0.071078  0  1.030742  0
H  H27  1  0.50633199  0.64264888  0.00054250  1  0  0.054923  0  0.962442  0  0  0.071782  0  1.030527  0  0  0.07269  0  1.030366  0  0  0.084847  0.071076  0  1.030712  0
H  H28  1  0.21652870  0.23682399  0.01254055  1  0  0.053663  0  0.957445  0  0  0.074046  0  1.021303  0  0  0.074409  0  1.022068  0  0  0.085398  0.073705  0  1.020869  0
H  H29  1  0.71653024  0.26317859  0.98745813  1  0  0.053646  0  0.957475  0  0  0.07405  0  1.02129  0  0  0.074409  0  1.022065  0  0  0.085399  0.073711  0  1.020845  0
H  H30  1  0.78347085  0.76317689  0.98745644  1  0  0.053673  0  0.957443  0  0  0.074053  0  1.021285  0  0  0.074413  0  1.022059  0  0  0.085406  0.073718  0  1.020845  0
H  H31  1  0.28348334  0.73682415  0.01253937  1  0  0.053694  0  0.957405  0  0  0.07405  0  1.021276  0  0  0.074413  0  1.022041  0  0  0.085408  0.073711  0  1.020839  0
H  H32  1  0.31936504  0.02242885  0.00495064  1  0  0.059887  0  0.95273  0  0  0.080285  0  1.013495  0  0  0.080685  0  1.014414  0  0  0.086912  0.079923  0  1.012934  0
H  H33  1  0.81936993  0.47757188  0.99505069  1  0  0.059964  0  0.952803  0  0  0.080392  0  1.013492  0  0  0.080788  0  1.014411  0  0  0.086967  0.080033  0  1.012929  0
H  H34  1  0.68063139  0.97757199  0.99505114  1  0  0.059971  0  0.952798  0  0  0.080388  0  1.013497  0  0  0.080783  0  1.01442  0  0  0.086963  0.080028  0  1.012931  0
H  H35  1  0.18062495  0.52243179  0.00494628  1  0  0.059872  0  0.952705  0  0  0.080299  0  1.01345  0  0  0.080665  0  1.01441  0  0  0.086931  0.079943  0  1.012886  0
H  H36  1  0.15673904  0.02998131  0.12110131  1  0  0.052994  0  0.951756  0  0  0.072183  0  1.016523  0  0  0.072858  0  1.016798  0  0  0.082721  0.071598  0  1.016464  0
H  H37  1  0.65674719  0.47002310  0.87889870  1  0  0.053078  0  0.951699  0  0  0.072215  0  1.016525  0  0  0.072894  0  1.016795  0  0  0.082664  0.071628  0  1.016471  0
H  H38  1  0.84325584  0.97002418  0.87889936  1  0  0.053045  0  0.951682  0  0  0.072222  0  1.016466  0  0  0.072899  0  1.016737  0  0  0.082703  0.071634  0  1.016409  0
H  H39  1  0.34324301  0.52997872  0.12109775  1  0  0.053105  0  0.951738  0  0  0.07223  0  1.016567  0  0  0.072906  0  1.016835  0  0  0.082719  0.071644  0  1.016507  0
H  H40  1  0.52380813  0.07098978  0.18588891  1  0  0.052078  0  0.957997  0  0  0.068034  0  1.026311  0  0  0.068639  0  1.026819  0  0  0.080029  0.067506  0  1.026073  0
H  H41  1  0.02381202  0.42901275  0.81411062  1  0  0.052063  0  0.957896  0  0  0.068039  0  1.026228  0  0  0.068646  0  1.026736  0  0  0.080022  0.067512  0  1.02599  0
H  H42  1  0.47619298  0.92901294  0.81411099  1  0  0.052061  0  0.957988  0  0  0.068025  0  1.026322  0  0  0.06863  0  1.026831  0  0  0.080032  0.067497  0  1.026078  0
H  H43  1  0.97617662  0.57099095  0.18588315  1  0  0.052021  0  0.957879  0  0  0.067964  0  1.026243  0  0  0.068568  0  1.026752  0  0  0.079967  0.067437  0  1.026007  0
H  H44  1  0.54142043  0.19232562  0.12537037  1  0  0.055518  0  0.946006  0  0  0.075593  0  1.008271  0  0  0.076007  0  1.009181  0  0  0.085573  0.075226  0  1.007668  0
H  H45  1  0.04142878  0.30767878  0.87462808  1  0  0.055492  0  0.946078  0  0  0.075618  0  1.008307  0  0  0.076028  0  1.009226  0  0  0.085604  0.075252  0  1.007702  0
H  H46  1  0.45857289  0.80767712  0.87462714  1  0  0.05549  0  0.946051  0  0  0.075612  0  1.00828  0  0  0.076025  0  1.009192  0  0  0.085609  0.075225  0  1.007701  0
H  H47  1  0.95857389  0.69232953  0.12536858  1  0  0.055613  0  0.94599  0  0  0.075654  0  1.008293  0  0  0.076068  0  1.009207  0  0  0.085614  0.075307  0  1.007676  0
H  H48  1  0.24741837  0.18208179  0.31637445  1  0  0.067258  0  0.956849  0  0  0.08251  0  1.025997  0  0  0.083397  0  1.026455  0  0  0.08253  0.081743  0  1.025848  0
H  H49  1  0.74741569  0.31792072  0.68363220  1  0  0.067359  0  0.956875  0  0  0.082595  0  1.025996  0  0  0.083481  0  1.026452  0  0  0.082569  0.081829  0  1.025846  0
H  H50  1  0.75258741  0.81792275  0.68362916  1  0  0.067352  0  0.956818  0  0  0.08255  0  1.025975  0  0  0.08343  0  1.026442  0  0  0.082547  0.081784  0  1.025834  0
H  H51  1  0.25257295  0.68207828  0.31636826  1  0  0.067307  0  0.956935  0  0  0.08256  0  1.026027  0  0  0.083445  0  1.026483  0  0  0.082553  0.081786  0  1.025894  0
H  H52  1  0.47055857  0.27658349  0.33082526  1  0  0.072402  0  0.971365  0  0  0.086263  0  1.040308  0  0  0.087198  0  1.040163  0  0  0.082901  0.08551  0  1.0405  0
H  H53  1  0.97055735  0.22342008  0.66917360  1  0  0.072426  0  0.971427  0  0  0.086273  0  1.040374  0  0  0.087203  0  1.040229  0  0  0.082925  0.085517  0  1.040573  0
H  H54  1  0.52944565  0.72342295  0.66917328  1  0  0.072443  0  0.97137  0  0  0.08627  0  1.040325  0  0  0.087204  0  1.040178  0  0  0.082925  0.085519  0  1.040522  0
H  H55  1  0.02943752  0.77658359  0.33082336  1  0  0.072445  0  0.971353  0  0  0.086277  0  1.040292  0  0  0.087208  0  1.040146  0  0  0.082912  0.085525  0  1.040489  0
C  C56  1  0.68740216  0.69169028  0.42587058  1  0  0.296895  0  3.904841  0  0  0.28482  0  4.200888  0  0  0.301801  0  4.212085  0  0  0.152064  0.273211  0  4.193661  0
C  C57  1  0.18741401  0.80830974  0.57413298  1  0  0.296748  0  3.905008  0  0  0.284661  0  4.20109  0  0  0.301637  0  4.212293  0  0  0.151968  0.273048  0  4.193863  0
C  C58  1  0.31258648  0.30830682  0.57413415  1  0  0.296881  0  3.90508  0  0  0.284794  0  4.201159  0  0  0.301773  0  4.212359  0  0  0.152013  0.273181  0  4.193895  0
C  C59  1  0.81260269  0.19168831  0.42587041  1  0  0.296983  0  3.904725  0  0  0.284916  0  4.20077  0  0  0.301895  0  4.211969  0  0  0.15207  0.273296  0  4.193513  0
C  C60  1  0.21125586  0.33322580  0.24735267  1  0  0.206057  0  3.59359  0  0  0.193229  0  3.833006  0  0  0.196292  0  3.850569  0  0  -0.00698  0.191164  0  3.820993  0
C  C61  1  0.71126538  0.16677488  0.75265108  1  0  0.205904  0  3.59369  0  0  0.193136  0  3.833071  0  0  0.196195  0  3.850635  0  0  -0.006982  0.191073  0  3.821058  0
C  C62  1  0.78873902  0.66677876  0.75264854  1  0  0.206011  0  3.593675  0  0  0.193219  0  3.833058  0  0  0.196282  0  3.850622  0  0  -0.006952  0.19116  0  3.821045  0
C  C63  1  0.28874352  0.83322598  0.24734910  1  0  0.206028  0  3.593362  0  0  0.193257  0  3.832791  0  0  0.196313  0  3.850359  0  0  -0.006971  0.191196  0  3.820777  0
C  C64  1  0.03567953  0.27577275  0.16499204  1  0  -0.171877  0  3.668506  0  0  -0.211801  0  3.921345  0  0  -0.214153  0  3.937109  0  0  -0.169447  -0.210027  0  3.910393  0
C  C65  1  0.53568278  0.22422699  0.83500831  1  0  -0.171853  0  3.668629  0  0  -0.211826  0  3.921468  0  0  -0.214178  0  3.937223  0  0  -0.16946  -0.210051  0  3.910517  0
C  C66  1  0.96432002  0.72422904  0.83500761  1  0  -0.171965  0  3.668676  0  0  -0.211907  0  3.921491  0  0  -0.214274  0  3.937266  0  0  -0.169478  -0.210128  0  3.910544  0
C  C67  1  0.46432456  0.77576830  0.16499271  1  0  -0.171843  0  3.668407  0  0  -0.211864  0  3.921363  0  0  -0.214234  0  3.937135  0  0  -0.169495  -0.210089  0  3.910415  0
C  C68  1  0.12198549  0.18540040  0.05727001  1  0  -0.100884  0  3.695487  0  0  -0.141197  0  3.956854  0  0  -0.142019  0  3.971295  0  0  -0.168327  -0.140445  0  3.946774  0
C  C69  1  0.62198715  0.31459844  0.94273006  1  0  -0.100794  0  3.695299  0  0  -0.141086  0  3.956657  0  0  -0.141914  0  3.971101  0  0  -0.168285  -0.140337  0  3.946578  0
C  C70  1  0.87801406  0.81460047  0.94272938  1  0  -0.100762  0  3.695392  0  0  -0.141038  0  3.956736  0  0  -0.141861  0  3.971182  0  0  -0.168257  -0.140287  0  3.946656  0
C  C71  1  0.37801396  0.68539964  0.05726934  1  0  -0.100902  0  3.695353  0  0  -0.141106  0  3.95666  0  0  -0.141927  0  3.971099  0  0  -0.168309  -0.140352  0  3.94658  0
C  C72  1  0.25642874  0.08582718  0.08300175  1  0  -0.107723  0  3.682113  0  0  -0.147062  0  3.94146  0  0  -0.148007  0  3.956139  0  0  -0.169172  -0.146228  0  3.931197  0
C  C73  1  0.75643366  0.41417539  0.91699852  1  0  -0.108045  0  3.682124  0  0  -0.147376  0  3.941522  0  0  -0.148317  0  3.956198  0  0  -0.169211  -0.146534  0  3.931259  0
C  C74  1  0.74356770  0.91417458  0.91700029  1  0  -0.108036  0  3.682189  0  0  -0.147374  0  3.941561  0  0  -0.148313  0  3.956235  0  0  -0.169248  -0.146538  0  3.93129  0
C  C75  1  0.24356434  0.58582825  0.08300164  1  0  -0.107887  0  3.682147  0  0  -0.147204  0  3.941497  0  0  -0.148125  0  3.956178  0  0  -0.169188  -0.146368  0  3.931239  0
C  C76  1  0.43190219  0.14323943  0.16517408  1  0  -0.099362  0  3.691597  0  0  -0.136454  0  3.948824  0  0  -0.137524  0  3.963868  0  0  -0.168472  -0.135502  0  3.938272  0
C  C77  1  0.93190403  0.35675950  0.83482430  1  0  -0.099187  0  3.691572  0  0  -0.136371  0  3.948832  0  0  -0.137446  0  3.963874  0  0  -0.168462  -0.135415  0  3.93828  0
C  C78  1  0.56810047  0.85676054  0.83482185  1  0  -0.099238  0  3.69171  0  0  -0.136397  0  3.948931  0  0  -0.137471  0  3.963971  0  0  -0.168499  -0.135426  0  3.938378  0
C  C79  1  0.06809240  0.64324418  0.16517187  1  0  -0.099275  0  3.691569  0  0  -0.136402  0  3.948846  0  0  -0.137473  0  3.963881  0  0  -0.168431  -0.135471  0  3.938309  0
C  C80  1  0.34468913  0.23343062  0.27265091  1  0  -0.16635  0  3.64974  0  0  -0.201385  0  3.889898  0  0  -0.203988  0  3.905781  0  0  -0.173946  -0.199452  0  3.87905  0
C  C81  1  0.84469100  0.26657014  0.72734801  1  0  -0.166474  0  3.650052  0  0  -0.201445  0  3.890136  0  0  -0.204034  0  3.905997  0  0  -0.173997  -0.199513  0  3.879284  0
C  C82  1  0.65531198  0.76657212  0.72734659  1  0  -0.166485  0  3.650051  0  0  -0.201424  0  3.890145  0  0  -0.204017  0  3.906008  0  0  -0.173976  -0.199486  0  3.879279  0
C  C83  1  0.15530855  0.73342889  0.27265006  1  0  -0.166569  0  3.649967  0  0  -0.201449  0  3.88992  0  0  -0.20404  0  3.905784  0  0  -0.173973  -0.199511  0  3.879076  0
S  S84  1  0.63386418  0.54369811  0.37499520  1  0  -0.314635  0  2.609486  0  0  -0.292546  0  3.036137  0  0  -0.292102  0  3.006891  0  0  -0.164705  -0.293854  0  3.056233  0
S  S85  1  0.13386990  0.95629171  0.62500712  1  0  -0.314597  0  2.609761  0  0  -0.292499  0  3.036397  0  0  -0.292043  0  3.00715  0  0  -0.164727  -0.293812  0  3.056536  0
S  S86  1  0.36612758  0.45628976  0.62500614  1  0  -0.314652  0  2.609747  0  0  -0.292566  0  3.036426  0  0  -0.292118  0  3.007185  0  0  -0.164765  -0.293878  0  3.056507  0
S  S87  1  0.86613588  0.04370262  0.37499683  1  0  -0.31462  0  2.609715  0  0  -0.292539  0  3.036364  0  0  -0.292084  0  3.00711  0  0  -0.164696  -0.29385  0  3.05648  0
N  N88  1  0.72197819  0.79896670  0.46113541  1  0  -0.491439  0  3.132072  0  0  -0.440636  0  3.450123  0  0  -0.449866  0  3.448391  0  0  -0.42484  -0.435387  0  3.451424  0
N  N89  1  0.22199152  0.70102961  0.53886870  1  0  -0.491287  0  3.131808  0  0  -0.440469  0  3.449857  0  0  -0.449697  0  3.448131  0  0  -0.42473  -0.435205  0  3.451111  0
N  N90  1  0.27801357  0.20102671  0.53886829  1  0  -0.491396  0  3.131913  0  0  -0.440564  0  3.449939  0  0  -0.449785  0  3.4482  0  0  -0.424731  -0.4353  0  3.451166  0
N  N91  1  0.77802517  0.29897303  0.46113838  1  0  -0.491564  0  3.131804  0  0  -0.440763  0  3.449873  0  0  -0.449991  0  3.44814  0  0  -0.424884  -0.435494  0  3.451072  0
N  N92  1  0.12857364  0.41875224  0.35325799  1  0  -0.621636  0  3.191422  0  0  -0.580687  0  3.462406  0  0  -0.59366  0  3.458326  0  0  -0.656574  -0.571808  0  3.464741  0
N  N93  1  0.62858788  0.08125218  0.64673964  1  0  -0.621344  0  3.191296  0  0  -0.580569  0  3.462379  0  0  -0.593547  0  3.458307  0  0  -0.656496  -0.571689  0  3.464735  0
N  N94  1  0.87141500  0.58125049  0.64674031  1  0  -0.621471  0  3.191208  0  0  -0.58069  0  3.462288  0  0  -0.593663  0  3.458208  0  0  -0.656519  -0.571809  0  3.4646  0
N  N95  1  0.37142258  0.91874403  0.35326165  1  0  -0.621481  0  3.191315  0  0  -0.580715  0  3.462393  0  0  -0.59368  0  3.458305  0  0  -0.656505  -0.571829  0  3.464727  0
