# generated using pymatgen
data_NiH18C15(N2O)4
_symmetry_space_group_name_H-M   'P 1'
_cell_length_a   8.26244727
_cell_length_b   9.02501019
_cell_length_c   12.44875415
_cell_angle_alpha   102.01746851
_cell_angle_beta   103.16681630
_cell_angle_gamma   91.53760716
_symmetry_Int_Tables_number   1
_chemical_formula_structural   NiH18C15(N2O)4
_chemical_formula_sum   'Ni2 H36 C30 N16 O8'
_cell_volume   881.38226327
_cell_formula_units_Z   2
loop_
 _symmetry_equiv_pos_site_id
 _symmetry_equiv_pos_as_xyz
  1  'x, y, z'
loop_
 _atom_site_type_symbol
 _atom_site_label
 _atom_site_symmetry_multiplicity
 _atom_site_fract_x
 _atom_site_fract_y
 _atom_site_fract_z
 _atom_site_occupancy
 _atom_site_pbe_cm5_charge
 _atom_site_pbe_ddec_charge
 _atom_site_pbe_ddec_spin_density
 _atom_site_pbe_ddec_sum_bond_order
 _atom_site_pbe_magmom
Ni  Ni0  1  0.55096113  0.72315533  0.52567154  1  0.688803  0.641015  -1.767886  2.654169  -1.515
Ni  Ni1  1  0.44903932  0.27684015  0.47432866  1  0.688807  0.640936  1.76788  2.654299  1.515
H  H2  1  0.06457086  0.44330193  0.66015483  1  0.106066  0.129811  -9.3e-05  1.028107  0.0
H  H3  1  0.93543407  0.55668893  0.33983491  1  0.106062  0.129793  9.3e-05  1.028204  0.0
H  H4  1  0.30061279  0.61140955  0.66336360  1  0.144981  0.116456  -0.000192  1.007732  0.0
H  H5  1  0.69939132  0.38858482  0.33664020  1  0.144966  0.116415  0.000192  1.007712  0.0
H  H6  1  0.71759714  0.92673012  0.78993567  1  0.134149  0.100215  3.3e-05  1.006404  0.0
H  H7  1  0.28239904  0.07327441  0.21006042  1  0.134134  0.100213  -3.3e-05  1.006388  0.0
H  H8  1  0.41814235  0.63573180  0.96970621  1  0.108596  0.083625  -0.000133  1.031478  0.0
H  H9  1  0.58186029  0.36427506  0.03029761  1  0.108594  0.083651  0.000133  1.031439  0.0
H  H10  1  0.25479686  0.57029532  0.84635778  1  0.110311  0.083542  -2.8e-05  0.99959  0.0
H  H11  1  0.74520456  0.42971154  0.15364666  1  0.110279  0.083514  2.8e-05  0.999585  0.0
H  H12  1  0.14250577  0.82997504  0.87931809  1  0.091267  0.094908  -1.6e-05  1.012714  0.0
H  H13  1  0.85749814  0.17003184  0.12068832  1  0.091257  0.0949  1.6e-05  1.012686  0.0
H  H14  1  0.29653585  0.88284117  0.00877579  1  0.090539  0.086795  -1.2e-05  1.013434  0.0
H  H15  1  0.70346405  0.11716229  0.99122953  1  0.090541  0.08678  1.2e-05  1.013445  0.0
H  H16  1  0.02952839  0.61435838  0.94577850  1  0.085806  0.077197  -9e-06  0.990192  0.0
H  H17  1  0.97047138  0.38564392  0.05422261  1  0.085797  0.0772  9e-06  0.99023  0.0
H  H18  1  0.18190953  0.66407369  0.07488965  1  0.084133  0.074212  0.0  1.003254  0.0
H  H19  1  0.81808901  0.33592862  0.92511289  1  0.084147  0.074194  -0.0  1.003293  0.0
H  H20  1  0.91223085  0.86769570  0.98905447  1  0.088171  0.079166  6e-06  1.006683  0.0
H  H21  1  0.08776912  0.13230888  0.01094861  1  0.088183  0.079174  -6e-06  1.006642  0.0
H  H22  1  0.06327098  0.91771521  0.11841320  1  0.086567  0.077308  2e-06  0.996347  0.0
H  H23  1  0.93672997  0.08228598  0.88159193  1  0.086559  0.077277  -2e-06  0.996409  0.0
H  H24  1  0.95183576  0.70098180  0.18351869  1  0.086139  0.076008  -3.6e-05  1.023474  0.0
H  H25  1  0.04816144  0.29901937  0.81648348  1  0.086132  0.076013  3.6e-05  1.023508  0.0
H  H26  1  0.79862036  0.64882824  0.05352961  1  0.089946  0.084544  -2.4e-05  0.992508  0.0
H  H27  1  0.20137568  0.35117406  0.94647175  1  0.089953  0.084551  2.4e-05  0.992502  0.0
H  H28  1  0.83372723  0.96019187  0.21942485  1  0.113672  0.10915  -9.9e-05  1.010599  0.0
H  H29  1  0.16627139  0.03981156  0.78057626  1  0.113682  0.109144  9.9e-05  1.010602  0.0
H  H30  1  0.67249161  0.89308774  0.09392942  1  0.110845  0.089971  -0.000123  1.022587  0.0
H  H31  1  0.32750690  0.10691455  0.90607070  1  0.11084  0.089962  0.000123  1.022572  0.0
H  H32  1  0.79722833  0.88937291  0.40000743  1  0.146446  0.126004  -2e-06  1.010945  0.0
H  H33  1  0.20276780  0.11063052  0.59999331  1  0.146457  0.126026  2e-06  1.010926  0.0
H  H34  1  0.38102896  0.57388727  0.25594517  1  0.135253  0.103095  -0.000177  0.991669  0.0
H  H35  1  0.61897308  0.42611274  0.74405352  1  0.135258  0.103086  0.000177  0.991655  0.0
H  H36  1  0.86791403  0.99385966  0.60501980  1  0.295622  0.353567  -0.000392  0.993743  -0.001
H  H37  1  0.13208730  0.00613236  0.39497360  1  0.295621  0.353579  0.000392  0.993693  0.001
C  C38  1  0.78018292  0.17929616  0.56455425  1  0.225438  0.557601  -0.000609  4.154014  -0.002
C  C39  1  0.21982130  0.82070044  0.43544266  1  0.225438  0.557685  0.000608  4.154263  0.002
C  C40  1  0.80415400  0.34385603  0.57760053  1  0.066737  -0.003717  -0.000808  4.054097  -0.002
C  C41  1  0.19584992  0.65613715  0.42239423  1  0.06675  -0.003762  0.000808  4.054168  0.002
C  C42  1  0.93559800  0.45745194  0.62307446  1  -0.10437  -0.222275  -0.000993  3.957206  -0.001
C  C43  1  0.06440591  0.54254122  0.37691868  1  -0.104338  -0.222203  0.000992  3.957355  0.001
C  C44  1  0.86215664  0.59181141  0.60615910  1  0.066682  0.012442  0.0017  4.031225  0.003
C  C45  1  0.13784614  0.40818291  0.39383646  1  0.06662  0.012265  -0.0017  4.031375  -0.003
C  C46  1  0.92355945  0.75361653  0.63015429  1  0.203363  0.547385  0.000479  4.241843  0.001
C  C47  1  0.07643954  0.24637667  0.36984376  1  0.203501  0.547626  -0.000479  4.241833  -0.001
C  C48  1  0.40121942  0.68951534  0.71856944  1  0.16604  0.098448  0.001147  3.899671  0.002
C  C49  1  0.59878381  0.31048356  0.28143329  1  0.166134  0.098595  -0.001147  3.899395  -0.002
C  C50  1  0.61101552  0.85125959  0.78578542  1  0.142225  0.134142  -0.001109  3.988838  -0.002
C  C51  1  0.38898058  0.14874382  0.21421291  1  0.142155  0.133975  0.001109  3.989013  0.002
C  C52  1  0.33013567  0.67160850  0.90118000  1  -0.049735  -0.090594  -0.000584  3.90109  -0.001
C  C53  1  0.66986565  0.32839723  0.09882426  1  -0.049734  -0.090645  0.000584  3.901066  0.001
C  C54  1  0.21832450  0.78630906  0.94899776  1  -0.166723  -0.172612  -1.1e-05  3.930372  0.0
C  C55  1  0.78167805  0.21369666  0.05100587  1  -0.166684  -0.172542  1.1e-05  3.930281  0.0
C  C56  1  0.10507673  0.71152182  0.00727063  1  -0.164107  -0.133404  -2.6e-05  3.94445  0.0
C  C57  1  0.89492304  0.28848048  0.99273128  1  -0.164128  -0.133449  2.6e-05  3.944572  0.0
C  C58  1  0.98892173  0.82035538  0.05656985  1  -0.162056  -0.132101  -5e-05  3.937104  0.0
C  C59  1  0.01107669  0.17964578  0.94343090  1  -0.16202  -0.131992  5e-05  3.937074  0.0
C  C60  1  0.87534695  0.74558030  0.11432224  1  -0.16669  -0.169808  -6e-05  3.963258  0.0
C  C61  1  0.12464909  0.25442200  0.88567912  1  -0.166754  -0.169922  6e-05  3.963411  0.0
C  C62  1  0.76161073  0.85842519  0.16247339  1  -0.053577  -0.105833  -0.000856  3.870429  -0.001
C  C63  1  0.23838666  0.14157825  0.83752915  1  -0.053569  -0.10579  0.000856  3.870386  0.001
C  C64  1  0.69661339  0.81389900  0.34183668  1  0.167799  0.103113  0.000167  3.845581  0.0
C  C65  1  0.30338389  0.18610329  0.65816406  1  0.167765  0.103052  -0.000168  3.84557  0.0
C  C66  1  0.48660078  0.65362830  0.26563889  1  0.135834  0.115489  0.001184  4.022502  0.001
C  C67  1  0.51339754  0.34637172  0.73436086  1  0.135874  0.115559  -0.001184  4.022523  -0.001
N  N68  1  0.66248856  0.40923908  0.53729956  1  -0.242728  -0.160824  0.050523  3.625695  0.076
N  N69  1  0.33751301  0.59075526  0.46269904  1  -0.242786  -0.160895  -0.050524  3.625797  -0.076
N  N70  1  0.69754420  0.55707495  0.55426416  1  -0.244897  -0.163574  -0.050963  3.644027  -0.077
N  N71  1  0.30245861  0.44291938  0.44573381  1  -0.244858  -0.163472  0.050961  3.644106  0.077
N  N72  1  0.51717089  0.76458194  0.68665363  1  -0.346101  -0.299185  -0.038721  3.58528  -0.055
N  N73  1  0.48282830  0.23541353  0.31334558  1  -0.346085  -0.299187  0.038723  3.585265  0.055
N  N74  1  0.55976265  0.83274795  0.87630090  1  -0.21837  -0.260906  -0.003595  3.100722  -0.005
N  N75  1  0.44023393  0.16726114  0.12369833  1  -0.218281  -0.260758  0.003595  3.100634  0.005
N  N76  1  0.42603348  0.72863884  0.83137367  1  -0.13168  0.17369  -0.001035  3.718544  -0.001
N  N77  1  0.57396649  0.27136573  0.16862861  1  -0.13177  0.173656  0.001035  3.718528  0.001
N  N78  1  0.66604390  0.79314409  0.22882008  1  -0.130016  0.178183  -0.001267  3.718676  -0.002
N  N79  1  0.33395222  0.20685933  0.77117985  1  -0.130008  0.178212  0.001266  3.71863  0.002
N  N80  1  0.53233584  0.69057257  0.17839129  1  -0.220369  -0.263572  -0.002125  3.118264  -0.003
N  N81  1  0.46766151  0.30943084  0.82160803  1  -0.220386  -0.263592  0.002125  3.118249  0.003
N  N82  1  0.58458578  0.72642717  0.36812325  1  -0.345419  -0.305168  -0.037891  3.596337  -0.055
N  N83  1  0.41541389  0.27357399  0.63187687  1  -0.345406  -0.305143  0.037891  3.596238  0.055
O  O84  1  0.90814156  0.11009613  0.60976626  1  -0.324534  -0.477638  0.001993  2.315202  0.003
O  O85  1  0.09185849  0.88989587  0.39022293  1  -0.324519  -0.477616  -0.001993  2.315031  -0.003
O  O86  1  0.64060395  0.11184725  0.51413878  1  -0.273283  -0.470786  0.033885  2.267566  0.052
O  O87  1  0.35938892  0.88814707  0.48585853  1  -0.273245  -0.470793  -0.033878  2.267833  -0.052
O  O88  1  0.07206222  0.79830210  0.67584443  1  -0.316519  -0.529498  -0.00299  2.146345  -0.004
O  O89  1  0.92794332  0.20169454  0.32415991  1  -0.31663  -0.529658  0.00299  2.146505  0.004
O  O90  1  0.80681513  0.84274499  0.59890043  1  -0.310256  -0.545561  -0.03161  2.341588  -0.05
O  O91  1  0.19318885  0.15724823  0.40109996  1  -0.310303  -0.545639  0.031614  2.341563  0.05
