# generated using pymatgen
data_CuH8C12N3O8
_symmetry_space_group_name_H-M   'P 1'
_cell_length_a   8.14182472
_cell_length_b   11.10584839
_cell_length_c   14.25291066
_cell_angle_alpha   94.61893965
_cell_angle_beta   89.99829203
_cell_angle_gamma   90.00028502
_symmetry_Int_Tables_number   1
_chemical_formula_structural   CuH8C12N3O8
_chemical_formula_sum   'Cu4 H32 C48 N12 O32'
_cell_volume   1284.58930979
_cell_formula_units_Z   4
loop_
 _symmetry_equiv_pos_site_id
 _symmetry_equiv_pos_as_xyz
  1  'x, y, z'
loop_
 _atom_site_type_symbol
 _atom_site_label
 _atom_site_symmetry_multiplicity
 _atom_site_fract_x
 _atom_site_fract_y
 _atom_site_fract_z
 _atom_site_occupancy
 _atom_site_hle17_ddec_charge
 _atom_site_hle17_ddec_spin_density
 _atom_site_hle17_ddec_sum_bond_order
 _atom_site_hle17_magmom
 _atom_site_hse06_10hf_ddec_charge
 _atom_site_hse06_10hf_ddec_spin_density
 _atom_site_hse06_10hf_ddec_sum_bond_order
 _atom_site_hse06_10hf_magmom
 _atom_site_hse06_ddec_charge
 _atom_site_hse06_ddec_spin_density
 _atom_site_hse06_ddec_sum_bond_order
 _atom_site_hse06_magmom
 _atom_site_pbe_bader_charge
 _atom_site_pbe_bader_spin_density
 _atom_site_pbe_cm5_charge
 _atom_site_pbe_ddec_charge
 _atom_site_pbe_ddec_spin_density
 _atom_site_pbe_ddec_sum_bond_order
 _atom_site_pbe_magmom
Cu  Cu0  1  0.91868812  0.19418422  0.14850878  1  0.928995  -0.735198  1.768587  -0.526  0.920457  -0.818798  2.158817  -0.648  1.009592  -0.896016  2.093855  -0.739  1.117304  -0.58529  0.731558  0.860921  -0.7591  2.210771  -0.585
Cu  Cu1  1  0.41864787  0.30591088  0.35150902  1  0.929129  0.735149  1.768492  0.526  0.920551  0.818761  2.158564  0.648  1.009658  0.895982  2.093681  0.739  1.117146  0.585296  0.731708  0.861071  0.759085  2.210371  0.585
Cu  Cu2  1  0.08137645  0.80584457  0.85145379  1  0.92967  0.735223  1.767987  0.526  0.920906  0.818841  2.158622  0.648  1.010064  0.896075  2.093646  0.739  1.117685  0.585343  0.731522  0.86098  0.759179  2.210943  0.585
Cu  Cu3  1  0.58133317  0.69424845  0.64855614  1  0.929464  -0.735274  1.768438  -0.526  0.920917  -0.818877  2.158802  -0.648  1.010022  -0.896104  2.093854  -0.739  1.117711  -0.585326  0.731513  0.86127  -0.759192  2.210828  -0.585
H  H4  1  0.01749849  0.13461063  0.70082557  1  0.143169  0.000621  0.956737  0.001  0.139409  0.000392  1.034339  0.001  0.144037  0.000224  1.028418  0.0  0.172122  0.001103  0.12363  0.136073  0.00056  1.038484  0.001
H  H5  1  0.51752412  0.36539722  0.79912650  1  0.143126  -0.000621  0.956469  -0.001  0.139336  -0.000392  1.034103  -0.001  0.143999  -0.000223  1.028158  0.0  0.171638  -0.001103  0.123541  0.135997  -0.00056  1.038253  -0.001
H  H6  1  0.98246781  0.86545705  0.29913114  1  0.143284  -0.00062  0.956068  -0.001  0.139424  -0.000391  1.033802  -0.001  0.144088  -0.000223  1.027854  0.0  0.171672  -0.001102  0.123613  0.136083  -0.000559  1.037963  -0.001
H  H7  1  0.48246307  0.63455395  0.20081625  1  0.143095  0.00062  0.956379  0.001  0.139356  0.000392  1.034069  0.001  0.143974  0.000223  1.02816  0.0  0.17239  0.001101  0.123605  0.136037  0.000559  1.038203  0.001
H  H8  1  0.82707372  0.12739673  0.41835199  1  0.122001  0.000132  0.953463  0.001  0.125984  -5e-06  1.021345  0.0  0.130261  -3.9e-05  1.016217  0.0  0.128294  0.000265  0.117137  0.122785  5.4e-05  1.025104  0.0
H  H9  1  0.32709693  0.37260617  0.08167099  1  0.1219  -0.000131  0.953257  -0.001  0.125895  5e-06  1.021218  0.0  0.130153  4e-05  1.016114  0.0  0.128781  -0.000264  0.117093  0.122691  -5.3e-05  1.024991  0.0
H  H10  1  0.17286678  0.87258367  0.58171546  1  0.122125  -0.000131  0.952981  -0.001  0.126228  5e-06  1.020713  0.0  0.130468  4e-05  1.01563  0.0  0.128865  -0.000264  0.117288  0.123009  -5.3e-05  1.024501  0.0
H  H11  1  0.67290131  0.62741354  0.91830151  1  0.122112  0.000131  0.953083  0.001  0.126136  -5e-06  1.020984  0.0  0.130345  -3.9e-05  1.015936  0.0  0.128511  0.000265  0.117247  0.122919  5.3e-05  1.024771  0.0
H  H12  1  0.18755129  0.04124961  0.21776267  1  0.086433  -0.000848  0.977657  -0.001  0.092691  -0.000666  1.042997  -0.001  0.094578  -0.000478  1.041005  -0.001  0.157966  -0.001731  0.118093  0.091021  -0.000804  1.04474  -0.001
H  H13  1  0.68757626  0.45879492  0.28224901  1  0.086409  0.000849  0.977686  0.001  0.092582  0.000667  1.043176  0.001  0.094465  0.000479  1.041184  0.001  0.158272  0.001731  0.118025  0.090913  0.000804  1.04492  0.001
H  H14  1  0.81242238  0.95870153  0.78218639  1  0.086229  0.000848  0.9777  0.001  0.092551  0.000666  1.043074  0.001  0.094437  0.000479  1.041078  0.001  0.157517  0.001731  0.117928  0.090883  0.000804  1.044802  0.001
H  H15  1  0.31245882  0.54133461  0.71781349  1  0.086225  -0.000848  0.977694  -0.001  0.092608  -0.000665  1.043036  -0.001  0.094498  -0.000478  1.041034  -0.001  0.157544  -0.00173  0.117966  0.090938  -0.000803  1.044768  -0.001
H  H16  1  0.45275656  0.96583621  0.16200714  1  0.122841  -0.000395  0.951789  0.0  0.130798  -0.000402  1.01423  0.0  0.134162  -0.000271  1.01271  0.0  0.130873  -0.000985  0.112271  0.128209  -0.000507  1.015752  -0.001
H  H17  1  0.95276995  0.53414462  0.33801264  1  0.122803  0.000394  0.951896  0.0  0.130691  0.000402  1.014407  0.0  0.134052  0.000271  1.012889  0.0  0.130807  0.000985  0.112264  0.128102  0.000507  1.015941  0.001
H  H18  1  0.54721958  0.03412851  0.83793650  1  0.122797  0.000394  0.951743  0.0  0.130772  0.000402  1.014267  0.0  0.134133  0.00027  1.012751  0.0  0.129999  0.000985  0.11226  0.128178  0.000507  1.01581  0.001
H  H19  1  0.04723566  0.46585822  0.66208786  1  0.122726  -0.000394  0.951747  0.0  0.130711  -0.000402  1.014279  0.0  0.134073  -0.000271  1.012765  0.0  0.129795  -0.000986  0.112234  0.128114  -0.000507  1.015825  -0.001
H  H20  1  0.32760436  0.08900940  0.88884322  1  0.117225  -0.000251  0.97102  0.0  0.126745  -0.000323  1.032688  0.0  0.129991  -0.000241  1.031388  0.0  0.115667  -0.000674  0.109528  0.124346  -0.000379  1.033912  0.0
H  H21  1  0.82763057  0.41100731  0.61114662  1  0.117357  0.000252  0.971032  0.0  0.12685  0.000323  1.032669  0.0  0.13008  0.000241  1.031401  0.0  0.116015  0.000674  0.109551  0.124434  0.000379  1.033918  0.0
H  H22  1  0.67237669  0.91101941  0.11111515  1  0.117527  0.000252  0.970894  0.0  0.127028  0.000323  1.032478  0.0  0.130262  0.000241  1.031203  0.0  0.116407  0.000674  0.109703  0.124525  0.000379  1.033845  0.0
H  H23  1  0.17239837  0.58899588  0.38887883  1  0.117423  -0.000252  0.970827  0.0  0.12695  -0.000323  1.03242  0.0  0.130184  -0.000241  1.031149  0.0  0.116468  -0.000674  0.109691  0.124484  -0.000379  1.03374  0.0
H  H24  1  0.06772577  0.16501007  0.95968447  1  0.104344  -0.001092  0.985966  -0.002  0.108261  -0.000744  1.052826  -0.002  0.111623  -0.000462  1.049662  -0.001  0.181186  -0.001937  0.119842  0.105717  -0.001004  1.0551  -0.002
H  H25  1  0.56772518  0.33504528  0.54035140  1  0.104543  0.001093  0.985793  0.002  0.108437  0.000745  1.052675  0.002  0.111799  0.000463  1.049502  0.001  0.180693  0.001939  0.119901  0.105885  0.001005  1.05495  0.002
H  H26  1  0.93224299  0.83500604  0.04028569  1  0.104501  0.001092  0.985538  0.002  0.108245  0.000744  1.052625  0.002  0.111671  0.000462  1.049406  0.001  0.181599  0.001935  0.119747  0.105599  0.001004  1.055015  0.002
H  H27  1  0.43225954  0.66503264  0.45973157  1  0.10457  -0.001092  0.985899  -0.002  0.108339  -0.000743  1.0529  -0.002  0.111762  -0.000461  1.049706  -0.001  0.181233  -0.001934  0.119845  0.105717  -0.001003  1.055241  -0.002
H  H28  1  0.04127513  0.43027702  0.11503157  1  0.429375  2.6e-05  0.843379  0.0  0.402955  3.5e-05  0.911694  0.0  0.413249  3e-05  0.896333  0.0  0.619171  9.2e-05  0.302122  0.395816  3.1e-05  0.922319  0.0
H  H29  1  0.54126568  0.06974044  0.38497062  1  0.429355  -2.6e-05  0.843416  0.0  0.402916  -3.5e-05  0.91177  0.0  0.413212  -3e-05  0.896404  0.0  0.61919  -9.2e-05  0.30208  0.395768  -3.1e-05  0.922415  0.0
H  H30  1  0.95883364  0.56969456  0.88499251  1  0.429443  -2.6e-05  0.843465  0.0  0.402949  -3.5e-05  0.911789  0.0  0.413244  -3e-05  0.896424  0.0  0.619042  -9.2e-05  0.302053  0.39577  -3e-05  0.922474  0.0
H  H31  1  0.45881976  0.93032628  0.61499725  1  0.429929  2.6e-05  0.842779  0.0  0.403403  3.5e-05  0.911178  0.0  0.413708  3e-05  0.895794  0.0  0.619105  9.2e-05  0.30224  0.396223  3.1e-05  0.921875  0.0
H  H32  1  0.12335986  0.37474856  0.20329698  1  0.425735  6.1e-05  0.85681  0.0  0.403463  3.7e-05  0.916051  0.0  0.413887  7e-06  0.900538  0.0  0.633917  -4.7e-05  0.299354  0.396258  6.7e-05  0.926733  0.0
H  H33  1  0.62341441  0.12523725  0.29671155  1  0.425387  -6.1e-05  0.857092  0.0  0.403151  -3.7e-05  0.916419  0.0  0.413565  -7e-06  0.900927  0.0  0.632993  4.7e-05  0.299213  0.395947  -6.7e-05  0.927102  0.0
H  H34  1  0.87673050  0.62518604  0.79671204  1  0.425477  -6.1e-05  0.857327  0.0  0.403288  -3.7e-05  0.916306  0.0  0.413698  -7e-06  0.900823  0.0  0.63291  4.6e-05  0.299169  0.396064  -6.8e-05  0.927005  0.0
H  H35  1  0.37678526  0.87480040  0.70329020  1  0.425617  6.2e-05  0.857282  0.0  0.403421  3.7e-05  0.916166  0.0  0.413835  8e-06  0.900679  0.0  0.633796  -4.5e-05  0.299207  0.396197  6.8e-05  0.926867  0.0
C  C36  1  0.07426905  0.18977893  0.43525928  1  -0.20791  -0.002439  3.708361  -0.001  -0.195395  -0.002306  3.957133  -0.002  -0.217923  -0.002405  3.98246  -0.002  0.01453  -0.002018  -0.036467  -0.180686  -0.001929  3.939983  -0.001
C  C37  1  0.57429751  0.31021224  0.06476083  1  -0.208266  0.002444  3.709148  0.001  -0.195416  0.00231  3.957568  0.002  -0.217969  0.002409  3.982899  0.002  0.015079  0.002022  -0.036456  -0.180695  0.001931  3.940417  0.001
C  C38  1  0.92570340  0.81014849  0.56473805  1  -0.207713  0.002436  3.708577  0.001  -0.195259  0.002303  3.957251  0.002  -0.21781  0.002404  3.982579  0.002  0.015865  0.002012  -0.0365  -0.180527  0.001925  3.940081  0.001
C  C39  1  0.42573635  0.68985055  0.93527414  1  -0.207416  -0.002435  3.708579  -0.001  -0.194929  -0.002304  3.957152  -0.002  -0.217476  -0.002403  3.982468  -0.002  0.014719  -0.002012  -0.036294  -0.180197  -0.001925  3.939969  -0.001
C  C40  1  0.20818306  0.22101615  0.49942143  1  0.366115  -0.003471  3.791749  -0.009  0.344264  0.000826  4.065921  -0.002  0.372196  0.000658  4.079094  -0.001  0.793721  -0.001456  0.12264  0.325507  0.001072  4.055828  -0.003
C  C41  1  0.70820674  0.27895879  0.00059200  1  0.366228  0.003475  3.791488  0.009  0.344324  -0.000825  4.065583  0.002  0.372304  -0.000657  4.078739  0.001  0.792147  0.001454  0.122559  0.325567  -0.00107  4.055488  0.003
C  C42  1  0.79176727  0.77887599  0.50058551  1  0.365498  0.003481  3.792207  0.009  0.343757  -0.000822  4.066132  0.002  0.371741  -0.000656  4.079311  0.001  0.791568  0.001456  0.122456  0.324979  -0.001067  4.056016  0.003
C  C43  1  0.29179272  0.72110231  0.99941900  1  0.365592  -0.003473  3.792771  -0.009  0.343976  0.000827  4.066462  -0.002  0.371955  0.000659  4.079641  -0.001  0.79274  -0.00145  0.12248  0.325188  0.001076  4.056334  -0.003
C  C44  1  0.18226228  0.19047899  0.59546162  1  -0.042193  0.009393  3.589446  0.011  -0.048715  0.005325  3.847623  0.007  -0.062001  0.003324  3.867497  0.004  0.256619  0.00998  0.07003  -0.040302  0.006905  3.834322  0.008
C  C45  1  0.68228352  0.30950606  0.90453526  1  -0.04224  -0.009397  3.588318  -0.011  -0.048691  -0.005324  3.846425  -0.007  -0.062  -0.003323  3.866328  -0.004  0.255807  -0.00998  0.070116  -0.040274  -0.006904  3.833137  -0.008
C  C46  1  0.81770648  0.80947553  0.40453748  1  -0.042311  -0.009397  3.588774  -0.011  -0.048724  -0.005324  3.846743  -0.007  -0.062041  -0.003324  3.866642  -0.004  0.25635  -0.009977  0.070126  -0.040311  -0.006902  3.833459  -0.008
C  C47  1  0.31772209  0.69051178  0.09545115  1  -0.042389  0.009395  3.589137  0.011  -0.048905  0.005322  3.847322  0.007  -0.062213  0.003323  3.867192  0.004  0.256146  0.009975  0.070019  -0.040495  0.006902  3.834044  0.008
C  C48  1  0.03346448  0.14921500  0.62682563  1  -0.074211  0.000191  3.700585  0.0  -0.11862  0.000716  3.976865  0.001  -0.107602  0.000646  3.989074  0.001  0.053789  0.001203  -0.059886  -0.125536  0.000819  3.969149  0.001
C  C49  1  0.53349323  0.35077109  0.87314256  1  -0.074341  -0.000194  3.699895  0.0  -0.118602  -0.00072  3.976332  -0.001  -0.107614  -0.000649  3.988502  -0.001  0.053912  -0.00121  -0.059947  -0.125533  -0.000824  3.96862  -0.001
C  C50  1  0.96648218  0.85080017  0.37315219  1  -0.074129  -0.000192  3.699172  0.0  -0.118393  -0.000721  3.975651  -0.001  -0.107401  -0.000651  3.987839  -0.001  0.055437  -0.00121  -0.059774  -0.125337  -0.000824  3.967967  -0.001
C  C51  1  0.46650132  0.64919178  0.12681079  1  -0.07371  0.000189  3.699561  0.0  -0.118306  0.000718  3.976038  0.001  -0.107275  0.000647  3.988257  0.001  0.054594  0.001203  -0.059863  -0.125257  0.00082  3.968318  0.001
C  C52  1  0.90442478  0.13059534  0.56302026  1  0.036928  -0.0006  3.759679  0.0  0.022359  -0.000438  4.025578  0.0  0.010215  -0.000532  4.051408  -0.001  0.209559  -0.00041  0.060984  0.02584  -0.000321  4.005758  0.0
C  C53  1  0.40448087  0.36939423  0.93697762  1  0.036899  0.000598  3.759203  0.0  0.021914  0.000438  4.025757  0.0  0.009771  0.000534  4.051601  0.001  0.211324  0.000411  0.061014  0.025354  0.000322  4.005812  0.0
C  C54  1  0.09548626  0.86942417  0.43699503  1  0.036627  0.000596  3.759342  0.0  0.021573  0.00044  4.025894  0.0  0.009428  0.000534  4.051687  0.001  0.20996  0.000411  0.060789  0.025067  0.000321  4.005992  0.0
C  C55  1  0.59553580  0.63056313  0.06299430  1  0.036338  -0.000597  3.760131  0.0  0.021834  -0.000439  4.026106  0.0  0.009692  -0.000531  4.051914  -0.001  0.210509  -0.00041  0.060844  0.025286  -0.000321  4.006256  0.0
C  C56  1  0.92703903  0.14616417  0.46786111  1  -0.046281  -0.00064  3.734644  -0.001  -0.085543  -0.00015  3.996744  0.0  -0.074711  4.2e-05  4.013577  0.0  0.039346  -0.00036  -0.066127  -0.09235  -0.000238  3.985852  0.0
C  C57  1  0.42706961  0.35383336  0.03215100  1  -0.045745  0.000638  3.733931  0.001  -0.084993  0.000149  3.996136  0.0  -0.074141  -4.4e-05  4.012969  0.0  0.038638  0.000358  -0.065964  -0.091819  0.000237  3.985252  0.0
C  C58  1  0.07292604  0.85381554  0.53216140  1  -0.04606  0.000643  3.733647  0.001  -0.085168  0.000152  3.995787  0.0  -0.074284  -4.2e-05  4.012615  0.0  0.038281  0.000363  -0.065953  -0.091998  0.000241  3.984896  0.0
C  C59  1  0.57295811  0.64618264  0.96784091  1  -0.046156  -0.000643  3.734013  -0.001  -0.085442  -0.000151  3.996061  0.0  -0.074553  4.1e-05  4.012912  0.0  0.038773  -0.000364  -0.066065  -0.09227  -0.000241  3.985179  0.0
C  C60  1  0.08319142  0.20905501  0.33327169  1  0.676303  0.000512  3.832401  0.001  0.634629  0.000736  4.125532  0.001  0.677045  0.000698  4.118543  0.001  1.542714  0.001422  0.219541  0.605585  0.000965  4.128866  0.001
C  C61  1  0.58321020  0.29092620  0.16675338  1  0.675684  -0.000509  3.832979  -0.001  0.633903  -0.000732  4.126221  -0.001  0.676312  -0.000696  4.119264  -0.001  1.543114  -0.001419  0.219113  0.60485  -0.000963  4.129546  -0.001
C  C62  1  0.91684367  0.79085440  0.66671182  1  0.676491  -0.000518  3.832888  -0.001  0.63496  -0.000742  4.125925  -0.001  0.677368  -0.000702  4.118951  -0.001  1.543045  -0.00143  0.219367  0.605877  -0.000973  4.129236  -0.001
C  C63  1  0.41685682  0.70913198  0.83330234  1  0.676537  0.000523  3.832705  0.001  0.634956  0.000748  4.125774  0.001  0.677362  0.000708  4.118789  0.001  1.542167  0.001441  0.219292  0.605874  0.000983  4.129079  0.001
C  C64  1  0.22387868  0.05236435  0.14582954  1  0.156237  0.006807  3.66847  0.007  0.124454  0.000167  3.928953  0.001  0.135975  0.001296  3.94431  0.002  0.422288  -8.3e-05  0.048857  0.1169  -0.000736  3.918904  0.0
C  C65  1  0.72387879  0.44762599  0.35417508  1  0.156239  -0.006809  3.668437  -0.007  0.124467  -0.000168  3.928945  -0.001  0.135992  -0.001298  3.944299  -0.002  0.42236  7.9e-05  0.048872  0.116907  0.000734  3.918899  0.0
C  C66  1  0.77609623  0.94760395  0.85412276  1  0.156174  -0.006812  3.668995  -0.007  0.124241  -0.000168  3.929522  -0.001  0.135762  -0.001298  3.944884  -0.002  0.421673  8.3e-05  0.048827  0.116672  0.000733  3.919426  0.0
C  C67  1  0.27610348  0.55238251  0.64587387  1  0.156339  0.006812  3.668765  0.007  0.124415  0.000168  3.929233  0.001  0.135932  0.001297  3.944595  0.002  0.421699  -8.3e-05  0.048921  0.116859  -0.000732  3.919147  0.0
C  C68  1  0.37414619  0.00835542  0.11249292  1  -0.13483  -0.011866  3.641324  -0.012  -0.151867  -0.003915  3.884583  -0.005  -0.15991  -0.003735  3.903877  -0.004  0.043591  -0.005826  -0.076822  -0.147164  -0.004041  3.872571  -0.005
C  C69  1  0.87413605  0.49163491  0.38751380  1  -0.134838  0.011865  3.6417  0.012  -0.151771  0.003914  3.884923  0.005  -0.159814  0.003736  3.904221  0.004  0.043183  0.005826  -0.07688  -0.147084  0.004041  3.872935  0.005
C  C70  1  0.62582626  0.99161741  0.88745476  1  -0.134652  0.011868  3.641372  0.012  -0.151778  0.003913  3.884636  0.005  -0.159818  0.003734  3.903937  0.004  0.044455  0.00582  -0.076719  -0.147103  0.00404  3.872663  0.005
C  C71  1  0.12582411  0.50836630  0.61255081  1  -0.134683  -0.011871  3.641048  -0.012  -0.151844  -0.003914  3.884372  -0.005  -0.159879  -0.003735  3.903659  -0.004  0.044472  -0.005822  -0.076801  -0.147165  -0.004042  3.872384  -0.005
C  C72  1  0.41948498  0.02107711  0.01882529  1  0.093805  0.009202  3.743156  0.01  0.106505  0.002369  3.970574  0.003  0.111921  0.002617  3.990948  0.003  -0.062853  0.003287  0.011067  0.102736  0.002168  3.957297  0.002
C  C73  1  0.91947227  0.47893402  0.48117858  1  0.093833  -0.009199  3.743619  -0.01  0.106521  -0.002369  3.970963  -0.003  0.111937  -0.002618  3.991334  -0.003  -0.062677  -0.003288  0.011087  0.102742  -0.002169  3.957692  -0.002
C  C74  1  0.58048378  0.97891650  0.98112375  1  0.093391  -0.0092  3.743568  -0.01  0.10628  -0.002368  3.970819  -0.003  0.111688  -0.002616  3.991201  -0.003  -0.02347  -0.003286  0.010793  0.102491  -0.002167  3.957555  -0.002
C  C75  1  0.08047438  0.52109071  0.51887985  1  0.093375  0.009202  3.743199  0.01  0.106258  0.002368  3.970504  0.003  0.111671  0.002617  3.99087  0.003  -0.02314  0.003288  0.010872  0.10248  0.002168  3.957226  0.002
C  C76  1  0.30425799  0.07610709  0.96254224  1  -0.162156  -0.012834  3.693923  -0.013  -0.184348  -0.004561  3.948715  -0.005  -0.193146  -0.004126  3.968102  -0.005  -0.043058  -0.007114  -0.083274  -0.17892  -0.004881  3.936325  -0.005
C  C77  1  0.80424786  0.42390778  0.53745589  1  -0.162372  0.01283  3.694429  0.013  -0.184495  0.004563  3.94914  0.005  -0.193295  0.004127  3.968525  0.005  -0.043711  0.007118  -0.083324  -0.17906  0.004882  3.936778  0.006
C  C78  1  0.69571814  0.92390187  0.03741061  1  -0.162395  0.012832  3.694365  0.013  -0.184545  0.004562  3.948954  0.005  -0.193342  0.004126  3.968345  0.005  -0.044593  0.007115  -0.083418  -0.179082  0.004881  3.936678  0.005
C  C79  1  0.19572336  0.57610166  0.46258680  1  -0.162228  -0.012833  3.694121  -0.013  -0.184405  -0.004561  3.948744  -0.005  -0.19319  -0.004125  3.968128  -0.005  -0.044665  -0.007116  -0.083427  -0.178951  -0.004881  3.936422  -0.005
C  C80  1  0.15739176  0.11973386  0.00121100  1  0.126363  0.006643  3.672749  0.007  0.097691  9.7e-05  3.932411  0.001  0.106983  0.001345  3.949794  0.002  0.464238  -0.000353  0.040269  0.091469  -0.000957  3.921446  0.0
C  C81  1  0.65738324  0.38027726  0.49879428  1  0.126468  -0.00664  3.672468  -0.007  0.097805  -9.5e-05  3.932094  -0.001  0.107119  -0.001344  3.949433  -0.002  0.465002  0.000349  0.040313  0.091571  0.000957  3.921145  0.0
C  C82  1  0.84258806  0.88026875  0.99874845  1  0.126423  -0.006637  3.671922  -0.007  0.097943  -9.3e-05  3.93141  -0.001  0.107169  -0.001342  3.948794  -0.002  0.465459  0.000354  0.040318  0.091822  0.000961  3.920338  0.0
C  C83  1  0.34259903  0.61973128  0.50124696  1  0.126133  0.006638  3.672487  0.007  0.097594  9.4e-05  3.932144  0.001  0.106825  0.001343  3.94948  0.002  0.465625  -0.000351  0.040207  0.09143  -0.000958  3.921196  0.0
N  N84  1  0.31322445  0.20343034  0.66536692  1  0.533465  -0.000995  3.879141  -0.001  0.55457  -0.000351  4.186379  -0.001  0.578988  -0.000286  4.192191  0.0  0.371201  -0.000396  0.057604  0.538066  -0.000325  4.182477  -0.001
N  N85  1  0.81325772  0.29656924  0.83461619  1  0.533403  0.000996  3.878632  0.001  0.554421  0.000354  4.186019  0.001  0.578827  0.000287  4.191862  0.0  0.372907  0.000401  0.057411  0.537917  0.000328  4.182119  0.001
N  N86  1  0.68675291  0.79656675  0.33461252  1  0.533444  0.000998  3.878673  0.001  0.554396  0.000354  4.186109  0.001  0.578807  0.000288  4.19195  0.0  0.372469  0.000402  0.057343  0.537908  0.000329  4.182198  0.001
N  N87  1  0.18677368  0.70344230  0.16536420  1  0.533328  -0.000995  3.879646  -0.001  0.554375  -0.000353  4.186982  -0.001  0.578779  -0.000286  4.192829  0.0  0.371407  -0.000397  0.057513  0.537884  -0.000326  4.18307  -0.001
N  N88  1  0.74531472  0.09604942  0.59658736  1  0.467981  -0.000601  3.953805  -0.001  0.514815  -0.000251  4.230473  0.0  0.535872  -0.000144  4.243008  0.0  0.343809  -0.000621  0.047206  0.515092  -0.000362  4.200202  0.0
N  N89  1  0.24537601  0.40394735  0.90341731  1  0.467864  0.000601  3.954241  0.001  0.514654  0.000252  4.231199  0.0  0.535684  0.000144  4.243797  0.0  0.342309  0.000622  0.047221  0.515236  0.000363  4.200481  0.0
N  N90  1  0.25457543  0.90398989  0.40344397  1  0.468038  0.000601  3.954723  0.001  0.514739  0.000251  4.231677  0.0  0.535844  0.000143  4.244151  0.0  0.341362  0.000623  0.047079  0.515093  0.000363  4.201251  0.0
N  N91  1  0.75462223  0.59600097  0.09655753  1  0.468135  -0.000601  3.954729  -0.001  0.514777  -0.00025  4.231612  0.0  0.53584  -0.000144  4.244139  0.0  0.342219  -0.000621  0.047003  0.515166  -0.000362  4.201244  0.0
N  N92  1  0.11784666  0.10971388  0.09222552  1  -0.318316  -0.07608  3.316551  -0.094  -0.275059  -0.049569  3.622764  -0.066  -0.304542  -0.04087  3.638935  -0.057  -1.23377  -0.079911  -0.347122  -0.256914  -0.053804  3.613236  -0.068
N  N93  1  0.61782690  0.39028820  0.40777987  1  -0.318379  0.076084  3.316274  0.094  -0.27513  0.049579  3.622537  0.066  -0.3046  0.040886  3.638682  0.057  -1.234071  0.079905  -0.34719  -0.256983  0.053807  3.61298  0.068
N  N94  1  0.88213929  0.89026796  0.90772977  1  -0.318388  0.076074  3.316291  0.094  -0.274959  0.049563  3.622375  0.066  -0.304452  0.040863  3.638588  0.057  -1.235057  0.079874  -0.346854  -0.256702  0.053787  3.612734  0.068
N  N95  1  0.38213203  0.60973026  0.59226552  1  -0.318409  -0.076077  3.31646  -0.094  -0.275128  -0.049563  3.62264  -0.066  -0.304601  -0.040856  3.638852  -0.057  -1.234915  -0.079897  -0.346869  -0.256932  -0.0538  3.613012  -0.068
O  O96  1  0.96913525  0.16080870  0.28138357  1  -0.572819  -0.056382  2.053842  -0.074  -0.542152  -0.039381  2.32893  -0.057  -0.582831  -0.031514  2.317298  -0.048  -1.120411  -0.066875  -0.31138  -0.513825  -0.043726  2.33637  -0.061
O  O97  1  0.46911178  0.33914094  0.21862821  1  -0.572593  0.056377  2.054244  0.074  -0.541945  0.039385  2.329487  0.057  -0.58262  0.031521  2.317854  0.048  -1.120136  0.066851  -0.311398  -0.513631  0.043719  2.336915  0.061
O  O98  1  0.03092563  0.83908270  0.71858684  1  -0.573032  0.056348  2.0544  0.074  -0.542534  0.039359  2.329826  0.057  -0.583225  0.031501  2.318192  0.048  -1.12014  0.066799  -0.311396  -0.514125  0.043683  2.337257  0.061
O  O99  1  0.53088646  0.66085677  0.78141021  1  -0.573136  -0.056344  2.054115  -0.074  -0.542486  -0.03935  2.329338  -0.057  -0.583156  -0.031493  2.317688  -0.048  -1.120209  -0.066814  -0.311477  -0.51415  -0.043689  2.336782  -0.061
O  O100  1  0.19809534  0.27171239  0.30001957  1  -0.600801  0.069271  2.136052  0.09  -0.570808  0.042652  2.422399  0.061  -0.61169  0.032237  2.409347  0.048  -1.132886  0.075462  -0.316555  -0.542212  0.049676  2.430601  0.068
O  O101  1  0.69813928  0.22830224  0.20000769  1  -0.600263  -0.069268  2.13584  -0.09  -0.570316  -0.042652  2.422269  -0.061  -0.611199  -0.032237  2.409234  -0.048  -1.133428  -0.075476  -0.316299  -0.541752  -0.04968  2.430589  -0.068
O  O102  1  0.80196431  0.72820059  0.69997470  1  -0.600763  -0.06922  2.136009  -0.09  -0.570997  -0.042624  2.422532  -0.061  -0.611864  -0.032214  2.409477  -0.048  -1.13363  -0.07545  -0.316532  -0.542383  -0.049656  2.430763  -0.068
O  O103  1  0.30200880  0.77182912  0.80004792  1  -0.600855  0.069226  2.135777  0.09  -0.571124  0.042626  2.422382  0.061  -0.612013  0.032216  2.409337  0.048  -1.132555  0.075435  -0.316429  -0.54246  0.049649  2.43066  0.068
O  O104  1  0.34270237  0.27027289  0.47609035  1  -0.503025  0.105966  2.192085  0.14  -0.495998  0.064581  2.493866  0.094  -0.543  0.046275  2.494239  0.071  -1.07666  0.119262  -0.298058  -0.462672  0.077581  2.492368  0.108
O  O105  1  0.84270084  0.22966589  0.02392562  1  -0.502827  -0.105931  2.191882  -0.14  -0.496042  -0.06457  2.494085  -0.094  -0.542953  -0.046272  2.494166  -0.071  -1.076225  -0.119244  -0.29792  -0.462694  -0.077566  2.492602  -0.108
O  O106  1  0.65729832  0.72955589  0.52393769  1  -0.502771  -0.105932  2.192293  -0.14  -0.495968  -0.064581  2.494438  -0.094  -0.542847  -0.046282  2.494489  -0.071  -1.076644  -0.119224  -0.298128  -0.462639  -0.077563  2.493036  -0.108
O  O107  1  0.15730845  0.77038808  0.97606247  1  -0.503066  0.105955  2.192315  0.14  -0.49619  0.064586  2.494277  0.094  -0.543103  0.046279  2.494351  0.071  -1.076932  0.119228  -0.298096  -0.462794  0.077568  2.492874  0.108
O  O108  1  0.42235819  0.27974517  0.65686832  1  -0.346129  0.002199  1.806608  0.003  -0.325133  0.000657  2.026305  0.001  -0.337596  0.000282  2.021318  0.0  -0.475433  0.00191  -0.114255  -0.31643  0.001352  2.029689  0.002
O  O109  1  0.92239322  0.22025353  0.84310771  1  -0.346121  -0.002193  1.806311  -0.003  -0.325026  -0.000659  2.025962  -0.001  -0.337553  -0.000282  2.021022  0.0  -0.476738  -0.001904  -0.114256  -0.316335  -0.001348  2.029371  -0.002
O  O110  1  0.57759337  0.72027803  0.34312968  1  -0.346175  -0.002201  1.806341  -0.003  -0.325007  -0.000659  2.025983  -0.001  -0.337536  -0.000284  2.021039  0.0  -0.476718  -0.00191  -0.11426  -0.316306  -0.001352  2.029385  -0.002
O  O111  1  0.07761730  0.77973197  0.15683659  1  -0.346201  0.002204  1.806389  0.003  -0.325073  0.00066  2.025987  0.001  -0.337535  0.000284  2.020997  0.0  -0.475951  0.001914  -0.114235  -0.316365  0.001355  2.029373  0.002
O  O112  1  0.30718627  0.13648423  0.73143506  1  -0.375062  -0.000698  1.739584  -0.001  -0.359035  -0.000374  1.956168  -0.001  -0.373935  -0.000398  1.951139  -0.001  -0.486929  -0.000483  -0.137485  -0.349012  -0.000344  1.95985  0.0
O  O113  1  0.80724822  0.36350723  0.76854400  1  -0.375146  0.000702  1.739652  0.001  -0.358997  0.000378  1.956132  0.001  -0.373808  0.000398  1.951011  0.001  -0.487054  0.000488  -0.137388  -0.348935  0.000347  1.959775  0.0
O  O114  1  0.69276407  0.86348222  0.26852623  1  -0.375208  0.000705  1.739401  0.001  -0.359101  0.000378  1.955974  0.001  -0.373939  0.000401  1.950881  0.001  -0.487133  0.000492  -0.137391  -0.34908  0.000349  1.959663  0.0
O  O115  1  0.19280528  0.63651872  0.23144505  1  -0.374935  -0.000702  1.740007  -0.001  -0.358916  -0.000376  1.956591  -0.001  -0.373812  -0.000399  1.951563  -0.001  -0.486714  -0.000487  -0.137484  -0.348918  -0.000346  1.9603  0.0
O  O116  1  0.72436283  0.09642609  0.68292624  1  -0.341246  -0.000871  1.808308  -0.001  -0.329684  -0.00037  2.022663  -0.001  -0.342143  -0.000309  2.021016  0.0  -0.482041  -0.000713  -0.12568  -0.326354  -0.000441  2.017186  -0.001
O  O117  1  0.22442084  0.40357791  0.81707820  1  -0.340848  0.000872  1.808303  0.001  -0.329377  0.000371  2.022888  0.001  -0.341825  0.000311  2.021258  0.0  -0.482497  0.000715  -0.125524  -0.326143  0.000443  2.017261  0.001
O  O118  1  0.27549294  0.90361685  0.31710182  1  -0.34113  0.000872  1.808818  0.001  -0.329444  0.000371  2.023141  0.001  -0.341895  0.000311  2.021452  0.0  -0.481398  0.000716  -0.125596  -0.326163  0.000443  2.017656  0.001
O  O119  1  0.77553564  0.59638756  0.18289916  1  -0.340944  -0.000871  1.808813  -0.001  -0.329345  -0.000372  2.023207  -0.001  -0.34177  -0.00031  2.021517  0.0  -0.481548  -0.000714  -0.125385  -0.326069  -0.000442  2.017719  -0.001
O  O120  1  0.63514575  0.06786336  0.53749805  1  -0.376983  -0.000716  1.777085  -0.001  -0.364113  -0.000368  1.98967  0.0  -0.376926  -0.00029  1.986463  0.0  -0.4955  -0.000692  -0.144819  -0.360814  -0.000426  1.985436  -0.001
O  O121  1  0.13522214  0.43213335  0.96251785  1  -0.377189  0.000716  1.777098  0.001  -0.364122  0.000369  1.989613  0.0  -0.376915  0.000289  1.986374  0.0  -0.494061  0.000694  -0.144939  -0.36093  0.000427  1.98525  0.001
O  O122  1  0.36472721  0.93217862  0.46254257  1  -0.376962  0.000714  1.776835  0.001  -0.363954  0.000369  1.989486  0.0  -0.376862  0.00029  1.986303  0.0  -0.493893  0.000692  -0.144735  -0.360654  0.000426  1.9852  0.001
O  O123  1  0.86479207  0.56780406  0.03746961  1  -0.377097  -0.000715  1.776943  -0.001  -0.364133  -0.000368  1.989576  0.0  -0.376975  -0.00029  1.98636  0.0  -0.494916  -0.000691  -0.144831  -0.360877  -0.000425  1.985326  -0.001
O  O124  1  0.02008631  0.38484910  0.16959923  1  -0.835356  0.00165  1.897556  0.001  -0.80348  0.000942  2.097961  0.0  -0.822581  0.001093  2.063642  0.001  -1.221172  0.001367  -0.593557  -0.788915  0.000688  2.121752  0.0
O  O125  1  0.52011142  0.11513683  0.33038264  1  -0.835204  -0.001649  1.897391  -0.001  -0.803379  -0.000942  2.097822  0.0  -0.822459  -0.001093  2.06355  -0.001  -1.220139  -0.001366  -0.593522  -0.788833  -0.000689  2.121588  0.0
O  O126  1  0.98000159  0.61511889  0.83041899  1  -0.835451  -0.001646  1.898064  -0.001  -0.803483  -0.000938  2.098264  0.0  -0.822588  -0.00109  2.063959  -0.001  -1.219934  -0.001361  -0.593377  -0.788857  -0.000684  2.122123  0.0
O  O127  1  0.48002439  0.88486771  0.66954747  1  -0.835965  0.001647  1.897808  0.001  -0.803979  0.000937  2.097946  0.0  -0.823077  0.00109  2.063592  0.001  -1.220861  0.001362  -0.593511  -0.789386  0.000684  2.121793  0.0
