# generated using pymatgen
data_CoH12Ru6C18(NO4)6
_symmetry_space_group_name_H-M   'P 1'
_cell_length_a   10.97322884
_cell_length_b   10.97311642
_cell_length_c   10.97311537
_cell_angle_alpha   109.47070250
_cell_angle_beta   109.47141293
_cell_angle_gamma   109.47175819
_symmetry_Int_Tables_number   1
_chemical_formula_structural   CoH12Ru6C18(NO4)6
_chemical_formula_sum   'Co1 H12 Ru6 C18 N6 O24'
_cell_volume   1017.11800652
_cell_formula_units_Z   1
loop_
 _symmetry_equiv_pos_site_id
 _symmetry_equiv_pos_as_xyz
  1  'x, y, z'
loop_
 _atom_site_type_symbol
 _atom_site_label
 _atom_site_symmetry_multiplicity
 _atom_site_fract_x
 _atom_site_fract_y
 _atom_site_fract_z
 _atom_site_occupancy
 _atom_site_pbe_cm5_charge
 _atom_site_pbe_ddec_charge
 _atom_site_pbe_ddec_spin_density
 _atom_site_pbe_ddec_sum_bond_order
 _atom_site_pbe_magmom
Co  Co0  1  0.99999900  0.99999970  0.99999971  1  0.538707  0.185262  0.027807  4.928389  0.017
H  H1  1  0.29146056  0.70878798  0.00024739  1  0.146986  0.092896  -0.001215  0.922414  -0.001
H  H2  1  0.70854674  0.41734884  0.70880048  1  0.146979  0.092867  -0.001215  0.922483  -0.001
H  H3  1  0.70853865  0.29121206  0.99975214  1  0.146998  0.092912  -0.001215  0.922434  -0.001
H  H4  1  0.29120986  0.99974471  0.70853742  1  0.147  0.092927  -0.001215  0.922378  -0.001
H  H5  1  0.70854212  0.70878920  0.41732990  1  0.146988  0.092896  -0.001215  0.922424  -0.001
H  H6  1  0.29147028  0.58268714  0.29121797  1  0.146969  0.092837  -0.001215  0.922617  -0.001
H  H7  1  0.29145861  0.29121149  0.58267004  1  0.146992  0.09291  -0.001215  0.922362  -0.001
H  H8  1  0.70853977  0.99975249  0.29121103  1  0.146996  0.09291  -0.001215  0.922434  -0.001
H  H9  1  0.58267560  0.29146349  0.29120828  1  0.146964  0.092888  0.001239  0.922443  0.001
H  H10  1  0.99974822  0.29120025  0.70854525  1  0.147  0.092899  0.001239  0.922396  0.001
H  H11  1  0.00025355  0.70878098  0.29146912  1  0.14693  0.092809  0.001239  0.922511  0.001
H  H12  1  0.41732519  0.70878540  0.70853836  1  0.147014  0.092947  0.001239  0.92241  0.001
Ru  Ru13  1  0.40878681  0.40878595  0.99999765  1  0.796427  0.810247  1.41601  3.987232  1.301
Ru  Ru14  1  0.40879756  0.00001822  0.40879516  1  0.796373  0.809978  1.416014  3.987332  1.301
Ru  Ru15  1  0.59121146  0.59121262  0.99999872  1  0.796433  0.810241  1.415975  3.987207  1.301
Ru  Ru16  1  0.59122051  0.00001769  0.59122027  1  0.796357  0.80995  1.415964  3.987414  1.301
Ru  Ru17  1  0.99999993  0.59119921  0.59121694  1  0.796399  0.810046  -1.454196  3.987316  -1.301
Ru  Ru18  1  0.99999823  0.40878073  0.40879717  1  0.796415  0.810099  -1.454205  3.987249  -1.301
C  C19  1  0.35278493  0.64730830  0.00009245  1  0.159734  0.437164  -0.009951  4.095367  -0.008
C  C20  1  0.64722694  0.29454467  0.64731598  1  0.159657  0.436883  -0.009955  4.0953  -0.008
C  C21  1  0.64721250  0.35268981  0.99990307  1  0.159689  0.4371  -0.009952  4.09547  -0.008
C  C22  1  0.35269461  0.99991334  0.64721938  1  0.159742  0.437076  -0.009953  4.095408  -0.008
C  C23  1  0.64721627  0.64731066  0.29452590  1  0.159745  0.437149  -0.009953  4.095294  -0.008
C  C24  1  0.35278982  0.70549002  0.35269886  1  0.159861  0.437364  -0.009949  4.095618  -0.008
C  C25  1  0.35278294  0.35268847  0.70547363  1  0.159696  0.43706  -0.009951  4.095366  -0.008
C  C26  1  0.64721201  0.99990123  0.35268718  1  0.159704  0.437028  -0.009952  4.095332  -0.008
C  C27  1  0.70547996  0.35278248  0.35269468  1  0.159802  0.437147  0.009806  4.095594  0.008
C  C28  1  0.99991011  0.35268428  0.64722405  1  0.159624  0.436926  0.009809  4.09529  0.008
C  C29  1  0.00008805  0.64729566  0.35279006  1  0.159834  0.437302  0.009802  4.095776  0.008
C  C30  1  0.29452085  0.64730874  0.64721046  1  0.159696  0.437028  0.009805  4.095454  0.008
C  C31  1  0.14583503  0.14583668  0.00000154  1  0.05717  0.082291  0.029334  3.803576  0.027
C  C32  1  0.14583336  0.00000044  0.14583553  1  0.057169  0.08227  0.029333  3.803547  0.027
C  C33  1  0.85416306  0.85416245  0.99999911  1  0.057167  0.082199  0.029331  3.803826  0.027
C  C34  1  0.85416411  0.00000044  0.85416377  1  0.057135  0.082225  0.029327  3.803774  0.027
C  C35  1  0.99999911  0.85416150  0.85416150  1  0.057286  0.082277  -0.027993  3.80382  -0.025
C  C36  1  0.99999867  0.14583751  0.14583842  1  0.057295  0.082244  -0.027991  3.803926  -0.025
N  N37  1  0.23807985  0.23807963  0.00000382  1  -0.387013  -0.344881  0.001088  3.362678  -0.013
N  N38  1  0.23807828  0.00000399  0.23807930  1  -0.387  -0.344824  0.00109  3.362573  -0.013
N  N39  1  0.76192114  0.76192326  0.99999972  1  -0.386996  -0.344781  0.001086  3.362846  -0.013
N  N40  1  0.76192555  0.00000531  0.76192524  1  -0.386993  -0.344809  0.001087  3.362799  -0.013
N  N41  1  0.00000202  0.76191870  0.76192191  1  -0.387018  -0.344759  -0.002264  3.362691  0.013
N  N42  1  0.99999953  0.23807690  0.23808108  1  -0.387039  -0.344737  -0.002265  3.36281  0.013
O  O43  1  0.29661550  0.52484306  0.00003556  1  -0.292473  -0.409674  0.025923  2.448708  0.027
O  O44  1  0.52482050  0.22824611  0.52484845  1  -0.292373  -0.40941  0.025939  2.44857  0.027
O  O45  1  0.52480581  0.29657649  0.99996123  1  -0.29245  -0.409643  0.025923  2.448662  0.027
O  O46  1  0.29658943  0.99998004  0.52481639  1  -0.292481  -0.409623  0.02592  2.448902  0.027
O  O47  1  0.70338490  0.70342296  0.22822972  1  -0.292454  -0.409648  0.025921  2.448587  0.027
O  O48  1  0.29661910  0.77178638  0.29659154  1  -0.292495  -0.409756  0.025909  2.448954  0.027
O  O49  1  0.47519105  0.70342162  0.00003485  1  -0.292475  -0.409685  0.025922  2.448708  0.027
O  O50  1  0.47516339  0.99997794  0.70339251  1  -0.292466  -0.409629  0.025922  2.448843  0.027
O  O51  1  0.47519042  0.47515381  0.77176853  1  -0.292465  -0.409666  0.025925  2.448689  0.027
O  O52  1  0.70339710  0.22824648  0.70342386  1  -0.292352  -0.409433  0.025938  2.44864  0.027
O  O53  1  0.70338155  0.99996000  0.47515340  1  -0.292434  -0.409551  0.025921  2.448718  0.027
O  O54  1  0.52480838  0.52484376  0.22822947  1  -0.292494  -0.409737  0.02592  2.448778  0.027
O  O55  1  0.47519459  0.77178676  0.47516807  1  -0.292535  -0.409785  0.025911  2.448879  0.027
O  O56  1  0.70338290  0.47515478  0.99996092  1  -0.292477  -0.409669  0.025921  2.448753  0.027
O  O57  1  0.52480566  0.99995989  0.29657535  1  -0.292427  -0.409504  0.025924  2.448572  0.027
O  O58  1  0.29661390  0.29657643  0.77176828  1  -0.292428  -0.409565  0.025926  2.448621  0.027
O  O59  1  0.77177530  0.47518443  0.47516300  1  -0.292478  -0.409604  -0.026768  2.448803  -0.027
O  O60  1  0.99997175  0.47515128  0.70339395  1  -0.292386  -0.409442  -0.026784  2.448579  -0.027
O  O61  1  0.00002676  0.70340480  0.47519314  1  -0.292505  -0.409698  -0.026752  2.449005  -0.027
O  O62  1  0.77177359  0.29660974  0.29658753  1  -0.292448  -0.409548  -0.026767  2.448812  -0.027
O  O63  1  0.99997155  0.29657632  0.52481888  1  -0.292379  -0.409428  -0.026783  2.448554  -0.027
O  O64  1  0.22822518  0.52484448  0.52480433  1  -0.292456  -0.409549  -0.026765  2.448602  -0.027
O  O65  1  0.00002407  0.52482947  0.29661671  1  -0.292502  -0.409645  -0.026754  2.448798  -0.027
O  O66  1  0.22822690  0.70342009  0.70337980  1  -0.292441  -0.409572  -0.026765  2.448713  -0.027
