# generated using pymatgen
data_AlH7C10NO5F
_symmetry_space_group_name_H-M   'P 1'
_cell_length_a   6.67284162
_cell_length_b   8.78506149
_cell_length_c   16.89669075
_cell_angle_alpha   102.95240666
_cell_angle_beta   84.42999370
_cell_angle_gamma   74.82096934
_symmetry_Int_Tables_number   1
_chemical_formula_structural   AlH7C10NO5F
_chemical_formula_sum   'Al2 H14 C20 N2 O10 F2'
_cell_volume   918.76536117
_cell_formula_units_Z   2
loop_
 _symmetry_equiv_pos_site_id
 _symmetry_equiv_pos_as_xyz
  1  'x, y, z'
loop_
 _atom_site_type_symbol
 _atom_site_label
 _atom_site_symmetry_multiplicity
 _atom_site_fract_x
 _atom_site_fract_y
 _atom_site_fract_z
 _atom_site_occupancy
 _atom_site_pbe_bader_charge
 _atom_site_pbe_bader_spin_density
 _atom_site_pbe_cm5_charge
 _atom_site_pbe_ddec_charge
 _atom_site_pbe_ddec_spin_density
 _atom_site_pbe_ddec_sum_bond_order
 _atom_site_pbe_magmom
Al  Al0  1  0.00002438  0.49999683  0.50001783  1  2.504482  0  0.400908  1.646266  0  2.574373  0
Al  Al1  1  0.50003866  0.49997625  0.49998432  1  2.502678  0  0.40076  1.64801  0  2.582128  0
H  H2  1  0.17798912  0.63507943  0.59936545  1  0.633718  0  0.356274  0.435714  0  0.845576  0
H  H3  1  0.82210833  0.36505021  0.40059762  1  0.633737  0  0.356113  0.435728  0  0.845213  0
H  H4  1  0.61175111  0.55106000  0.27274449  1  0.129952  0  0.111024  0.119077  0  1.013427  0
H  H5  1  0.67724629  0.55567722  0.12519161  1  0.085482  0  0.105416  0.108892  0  1.029042  0
H  H6  1  0.08717404  0.45517586  0.09326696  1  0.118746  0  0.117348  0.14295  0  0.993727  0
H  H7  1  0.91273344  0.54477850  0.90673221  1  0.119081  0  0.117459  0.143108  0  0.993632  0
H  H8  1  0.32255647  0.44449128  0.87480616  1  0.085796  0  0.105468  0.10904  0  1.029287  0
H  H9  1  0.38812570  0.44900429  0.72725612  1  0.129064  0  0.110977  0.118956  0  1.01339  0
H  H10  1  0.81738045  0.99543272  0.59462931  1  0.057978  0  0.089827  0.124616  0  1.007645  0
H  H11  1  0.62651673  0.18353024  0.59812483  1  0.011664  0  0.092884  0.131277  0  1.025001  0
H  H12  1  0.82896652  0.09027711  0.51294338  1  0.101783  0  0.103282  0.152044  0  0.994212  0
H  H13  1  0.17115980  0.90968670  0.48706715  1  0.102075  0  0.103275  0.151946  0  0.994706  0
H  H14  1  0.37357555  0.81647284  0.40188047  1  0.012824  0  0.092902  0.131181  0  1.024909  0
H  H15  1  0.18266899  0.00458885  0.40541235  1  0.056181  0  0.08991  0.124642  0  1.007252  0
C  C16  1  0.64852088  0.79209301  0.51591634  1  1.566217  0  0.267861  0.640427  0  4.075195  0
C  C17  1  0.70982610  0.50218811  0.64450346  1  1.607766  0  0.270528  0.656905  0  4.091647  0
C  C18  1  0.35157333  0.20789090  0.48411287  1  1.566106  0  0.268031  0.640444  0  4.075459  0
C  C19  1  0.29019241  0.49776995  0.35547771  1  1.607347  0  0.270451  0.656883  0  4.091792  0
C  C20  1  0.31509883  0.50141636  0.26707734  1  -0.007213  0  -0.01365  -0.151559  0  3.932693  0
C  C21  1  0.49810575  0.53079672  0.23258153  1  0.024781  0  -0.073624  -0.051085  0  3.971305  0
C  C22  1  0.53560743  0.53257756  0.15091414  1  -0.008165  0  -0.088845  -0.161414  0  3.958163  0
C  C23  1  0.38771208  0.50344083  0.09990751  1  0.351328  0  0.094417  0.202096  0  4.047942  0
C  C24  1  0.20219813  0.47719579  0.13256873  1  -0.005332  0  -0.089519  -0.271855  0  3.937972  0
C  C25  1  0.16926517  0.47582897  0.21478231  1  0.471677  0  0.112831  0.294806  0  4.026511  0
C  C26  1  0.79770587  0.52278022  0.86742642  1  -0.036655  0  -0.089737  -0.272167  0  3.938144  0
C  C27  1  0.61216484  0.49658474  0.90008562  1  0.38223  0  0.094404  0.202114  0  4.048267  0
C  C28  1  0.46423679  0.46751433  0.84908709  1  -0.008559  0  -0.088886  -0.161474  0  3.95884  0
C  C29  1  0.50178798  0.46926222  0.76741683  1  0.025368  0  -0.073519  -0.050922  0  3.97152  0
C  C30  1  0.68485048  0.49857142  0.73291280  1  -0.007264  0  -0.013605  -0.151632  0  3.932321  0
C  C31  1  0.83068404  0.52413072  0.78521465  1  0.472529  0  0.112897  0.295076  0  4.026351  0
C  C32  1  0.58455564  0.96928665  0.51735375  1  0.019067  0  -0.001453  -0.005019  0  3.846979  0
C  C33  1  0.41553268  0.03069761  0.48268171  1  -0.049138  0  -0.00139  -0.004714  0  3.847115  0
C  C34  1  0.72130081  0.06476894  0.55819081  1  -0.051594  0  -0.242817  -0.396785  0  3.978903  0
C  C35  1  0.27878680  0.93522880  0.44183647  1  -0.050844  0  -0.243061  -0.396814  0  3.97904  0
N  N36  1  0.41007387  0.49861962  0.01530609  1  -0.469493  0  -0.143167  -0.12678  0  3.251685  0
N  N37  1  0.58977721  0.50142363  0.98469098  1  -0.50759  0  -0.143306  -0.127616  0  3.252046  0
O  O38  1  0.84561971  0.72340073  0.50895485  1  -1.25663  0  -0.236786  -0.590228  0  2.332844  0
O  O39  1  0.55312633  0.48982909  0.60872403  1  -1.254642  0  -0.230564  -0.589026  0  2.362143  0
O  O40  1  0.49514826  0.27743640  0.47662967  1  -1.26372  0  -0.237322  -0.598143  0  2.37315  0
O  O41  1  0.11977239  0.48223125  0.38835856  1  -1.251127  0  -0.231742  -0.589189  0  2.354168  0
O  O42  1  0.15447756  0.27660190  0.49109253  1  -1.257749  0  -0.236721  -0.589997  0  2.332936  0
O  O43  1  0.44695213  0.51010161  0.39122845  1  -1.254968  0  -0.230534  -0.588979  0  2.3618  0
O  O44  1  0.50495629  0.72251209  0.52334227  1  -1.264063  0  -0.237183  -0.59813  0  2.373335  0
O  O45  1  0.88025733  0.51772674  0.61163700  1  -1.251799  0  -0.231812  -0.589272  0  2.354441  0
O  O46  1  0.21383135  0.57450085  0.54197670  1  -1.430921  0  -0.446734  -0.993955  0  2.204477  0
O  O47  1  0.78627114  0.42546371  0.45801231  1  -1.431004  0  -0.446641  -0.994153  0  2.204239  0
F  F48  1  0.98863457  0.44635816  0.24253227  1  -0.630152  0  -0.086302  -0.13063  0  1.374685  0
F  F49  1  0.01131417  0.55357071  0.75747495  1  -0.631033  0  -0.086325  -0.130658  0  1.374899  0
