# generated using pymatgen
data_Zn3H36C52(NO)10
_symmetry_space_group_name_H-M   'P 1'
_cell_length_a   9.16335669
_cell_length_b   11.29202074
_cell_length_c   12.54100000
_cell_angle_alpha   66.52816365
_cell_angle_beta   85.91136256
_cell_angle_gamma   85.09336008
_symmetry_Int_Tables_number   1
_chemical_formula_structural   Zn3H36C52(NO)10
_chemical_formula_sum   'Zn3 H36 C52 N10 O10'
_cell_volume   1184.93306341
_cell_formula_units_Z   1
loop_
 _symmetry_equiv_pos_site_id
 _symmetry_equiv_pos_as_xyz
  1  'x, y, z'
loop_
 _atom_site_type_symbol
 _atom_site_label
 _atom_site_symmetry_multiplicity
 _atom_site_fract_x
 _atom_site_fract_y
 _atom_site_fract_z
 _atom_site_occupancy
 _atom_site_hle17_bader_spin_density
 _atom_site_hle17_ddec_charge
 _atom_site_hle17_ddec_spin_density
 _atom_site_hle17_ddec_sum_bond_order
 _atom_site_hle17_magmom
 _atom_site_hse06_10hf_bader_spin_density
 _atom_site_hse06_10hf_ddec_charge
 _atom_site_hse06_10hf_ddec_spin_density
 _atom_site_hse06_10hf_ddec_sum_bond_order
 _atom_site_hse06_10hf_magmom
 _atom_site_hse06_bader_spin_density
 _atom_site_hse06_ddec_charge
 _atom_site_hse06_ddec_spin_density
 _atom_site_hse06_ddec_sum_bond_order
 _atom_site_hse06_magmom
 _atom_site_pbe_bader_charge
 _atom_site_pbe_bader_spin_density
 _atom_site_pbe_cm5_charge
 _atom_site_pbe_ddec_charge
 _atom_site_pbe_ddec_spin_density
 _atom_site_pbe_ddec_sum_bond_order
 _atom_site_pbe_magmom
Zn  Zn0  1  0.99999881  0.49999911  0.99999990  1  0  1.086493  0  1.842293  0  0  0.922135  0  2.283631  0  0  0.967051  0  2.229943  0  1.321616  0  0.659426  0.890114  0  2.320339  0
Zn  Zn1  1  0.69944965  0.54140968  0.84548672  1  0  1.091123  0  1.831536  0  0  0.911738  0  2.316638  0  0  0.959998  0  2.254054  0  1.274662  0  0.673631  0.878632  0  2.358116  0
Zn  Zn2  1  0.30055072  0.45858758  0.15451217  1  0  1.091134  0  1.831501  0  0  0.911762  0  2.316588  0  0  0.960022  0  2.254004  0  1.274677  0  0.67363  0.878654  0  2.358069  0
H  H3  1  0.95600088  0.68923325  0.53265550  1  0  0.097998  0  0.944673  0  0  0.10961  0  1.004923  0  0  0.112964  0  1.002545  0  0.090355  0  0.102371  0.107267  0  1.006465  0
H  H4  1  0.04399587  0.31076885  0.46734583  1  0  0.097986  0  0.944762  0  0  0.109605  0  1.004995  0  0  0.112958  0  1.002617  0  0.090228  0  0.102369  0.107261  0  1.006538  0
H  H5  1  0.12813774  0.73262883  0.35861545  1  0  0.074106  0  0.959411  0  0  0.090419  0  1.014028  0  0  0.093241  0  1.012565  0  0.035795  0  0.094379  0.088255  0  1.015421  0
H  H6  1  0.87185791  0.26737327  0.64138434  1  0  0.074108  0  0.959444  0  0  0.090449  0  1.014024  0  0  0.093268  0  1.012562  0  0.035799  0  0.094383  0.088283  0  1.015419  0
H  H7  1  0.34533834  0.58170005  0.36959858  1  0  0.089457  0  0.957049  0  0  0.100941  0  1.016325  0  0  0.103206  0  1.015115  0  0.071898  0  0.100286  0.099121  0  1.017387  0
H  H8  1  0.65465936  0.41830398  0.63039722  1  0  0.089415  0  0.9571  0  0  0.100914  0  1.01636  0  0  0.103178  0  1.015155  0  0.072328  0  0.100267  0.099131  0  1.017382  0
H  H9  1  0.39740297  0.39459119  0.55478981  1  0  0.095506  0  0.953978  0  0  0.10287  0  1.02143  0  0  0.106066  0  1.020267  0  0.068569  0  0.099344  0.100791  0  1.021918  0
H  H10  1  0.60259596  0.60541091  0.44520663  1  0  0.095509  0  0.954025  0  0  0.102879  0  1.021461  0  0  0.106074  0  1.020297  0  0.068548  0  0.099334  0.100799  0  1.021948  0
H  H11  1  0.50273066  0.18735843  0.96153593  1  0  0.087554  0  0.992781  0  0  0.095763  0  1.060588  0  0  0.098596  0  1.0592  0  0.093328  0  0.096552  0.093836  0  1.061456  0
H  H12  1  0.49727040  0.81264463  0.03846243  1  0  0.087534  0  0.992811  0  0  0.095761  0  1.060597  0  0  0.098593  0  1.059209  0  0.093317  0  0.096553  0.093833  0  1.061466  0
H  H13  1  0.34848011  0.99846400  0.01821935  1  0  0.086946  0  0.956562  0  0  0.100003  0  1.01354  0  0  0.102822  0  1.012619  0  0.057283  0  0.099287  0.098066  0  1.014261  0
H  H14  1  0.65152108  0.00153713  0.98178050  1  0  0.086943  0  0.956556  0  0  0.099999  0  1.013538  0  0  0.102819  0  1.012615  0  0.057287  0  0.09929  0.098062  0  1.014259  0
H  H15  1  0.12485633  0.01927747  0.90574146  1  0  0.079123  0  0.961293  0  0  0.091189  0  1.020645  0  0  0.093805  0  1.019706  0  0.082722  0  0.096536  0.089453  0  1.021059  0
H  H16  1  0.87514828  0.98072173  0.09425571  1  0  0.079153  0  0.961211  0  0  0.091183  0  1.020598  0  0  0.093798  0  1.01966  0  0.082737  0  0.096507  0.089446  0  1.021013  0
H  H17  1  0.06692121  0.22338760  0.73678264  1  0  0.087073  0  0.967657  0  0  0.097696  0  1.030219  0  0  0.100291  0  1.029612  0  0.076252  0  0.098412  0.095875  0  1.030724  0
H  H18  1  0.93308566  0.77661063  0.26321317  1  0  0.087084  0  0.967616  0  0  0.097705  0  1.030187  0  0  0.100301  0  1.029579  0  0.076292  0  0.098432  0.095884  0  1.030694  0
H  H19  1  0.15761755  0.22835400  0.04049505  1  0  0.081811  0  0.962063  0  0  0.088628  0  1.029686  0  0  0.090514  0  1.029124  0  0.113354  0  0.113659  0.087272  0  1.029953  0
H  H20  1  0.84238057  0.77164422  0.95950680  1  0  0.081742  0  0.962142  0  0  0.088583  0  1.029733  0  0  0.090473  0  1.029166  0  0.113312  0  0.113643  0.087226  0  1.03  0
H  H21  1  0.15507216  0.00169287  0.19253494  1  0  0.10191  0  0.941487  0  0  0.11508  0  0.994295  0  0  0.117911  0  0.994404  0  0.082128  0  0.108278  0.11292  0  0.994852  0
H  H22  1  0.84492698  0.99830632  0.80746810  1  0  0.101892  0  0.941418  0  0  0.11506  0  0.994239  0  0  0.11789  0  0.994348  0  0.082071  0  0.10825  0.1129  0  0.994797  0
H  H23  1  0.97774431  0.95601353  0.36638767  1  0  0.110219  0  0.928289  0  0  0.120878  0  0.988295  0  0  0.124185  0  0.985422  0  0.107473  0  0.113691  0.118244  0  0.990804  0
H  H24  1  0.02225469  0.04398760  0.63361468  1  0  0.110232  0  0.928298  0  0  0.120896  0  0.988285  0  0  0.124207  0  0.985408  0  0.107798  0  0.113718  0.118263  0  0.990791  0
H  H25  1  0.81883380  0.35663118  0.21050700  1  0  0.097117  0  0.96667  0  0  0.101844  0  1.036277  0  0  0.105271  0  1.033283  0  0.157427  0  0.121191  0.098981  0  1.039242  0
H  H26  1  0.18116534  0.64336801  0.78949365  1  0  0.097134  0  0.966608  0  0  0.101842  0  1.03625  0  0  0.105291  0  1.03323  0  0.157427  0  0.121192  0.098978  0  1.039215  0
H  H27  1  0.74390553  0.79320465  0.65150091  1  0  0.100375  0  0.934402  0  0  0.106368  0  1.001657  0  0  0.109907  0  0.997976  0  0.164667  0  0.123661  0.104207  0  1.003603  0
H  H28  1  0.25609573  0.20679551  0.34849929  1  0  0.100357  0  0.934412  0  0  0.106362  0  1.001655  0  0  0.109894  0  0.997975  0  0.164674  0  0.123656  0.104199  0  1.003606  0
H  H29  1  0.41685567  0.07026002  0.69620995  1  0  0.112814  0  0.928004  0  0  0.122303  0  0.988791  0  0  0.12516  0  0.98693  0  0.133274  0  0.114026  0.120115  0  0.990226  0
H  H30  1  0.58314244  0.92973821  0.30379190  1  0  0.112813  0  0.928029  0  0  0.122295  0  0.988807  0  0  0.125154  0  0.986949  0  0.133341  0  0.11401  0.120108  0  0.990243  0
H  H31  1  0.31768184  0.88743671  0.87101238  1  0  0.101804  0  0.96268  0  0  0.11474  0  1.017  0  0  0.116854  0  1.01788  0  0.073141  0  0.108177  0.113249  0  1.016565  0
H  H32  1  0.68231627  0.11256152  0.12899027  1  0  0.101816  0  0.962717  0  0  0.114764  0  1.01702  0  0  0.116878  0  1.017899  0  0.07317  0  0.108193  0.113273  0  1.016585  0
H  H33  1  0.43622571  0.66595480  0.92681856  1  0  0.088344  0  0.947364  0  0  0.094999  0  1.01621  0  0  0.098405  0  1.012298  0  0.129549  0  0.11632  0.092524  0  1.01904  0
H  H34  1  0.56377671  0.33404439  0.07318192  1  0  0.088351  0  0.947287  0  0  0.094999  0  1.016149  0  0  0.098403  0  1.012239  0  0.129465  0  0.11632  0.092524  0  1.01898  0
H  H35  1  0.64826157  0.31347454  0.35238192  1  0  0.325467  0  0.906532  0  0  0.302815  0  0.972245  0  0  0.311282  0  0.965259  0  0.572954  0  0.327015  0.296733  0  0.977497  0
H  H36  1  0.35173640  0.68652562  0.64761845  1  0  0.325468  0  0.906536  0  0  0.302822  0  0.972246  0  0  0.31129  0  0.96526  0  0.57296  0  0.327026  0.296741  0  0.977498  0
H  H37  1  0.72474370  0.54085539  0.04610208  1  0  0.390658  0  0.903928  0  0  0.36716  0  0.966466  0  0  0.374481  0  0.956116  0  0.580399  0  0.278844  0.361926  0  0.973796  0
H  H38  1  0.27525537  0.45914478  0.95389584  1  0  0.39064  0  0.903941  0  0  0.367138  0  0.966497  0  0  0.37446  0  0.956146  0  0.58037  0  0.278832  0.361904  0  0.973826  0
C  C39  1  0.98188553  0.50610700  0.74589811  1  0  0.65565  0  3.900016  0  0  0.602421  0  4.195032  0  0  0.637516  0  4.187358  0  1.566762  0  0.209834  0.578842  0  4.199226  0
C  C40  1  0.01811471  0.49389220  0.25410089  1  0  0.65552  0  3.900121  0  0  0.602384  0  4.195037  0  0  0.637481  0  4.187358  0  1.566761  0  0.209841  0.578804  0  4.199234  0
C  C41  1  0.08363934  0.52208094  0.64243263  1  0  -0.118112  0  3.722421  0  0  -0.099852  0  3.958623  0  0  -0.109482  0  3.981687  0  -0.059645  0  -0.020677  -0.093745  0  3.943026  0
C  C42  1  0.91636185  0.47792019  0.35756722  1  0  -0.118016  0  3.722294  0  0  -0.09984  0  3.958535  0  0  -0.10947  0  3.981597  0  -0.059621  0  -0.020721  -0.093732  0  3.942939  0
C  C43  1  0.05475575  0.62672949  0.53663122  1  0  -0.065571  0  3.746119  0  0  -0.094032  0  4.005288  0  0  -0.09284  0  4.026407  0  -0.009868  0  -0.087586  -0.094366  0  3.990387  0
C  C44  1  0.94524421  0.37327357  0.46336880  1  0  -0.065548  0  3.746183  0  0  -0.093994  0  4.00535  0  0  -0.092803  0  4.026472  0  -0.00976  0  -0.087575  -0.094327  0  3.990444  0
C  C45  1  0.14980972  0.64984833  0.43985249  1  0  -0.076963  0  3.780257  0  0  -0.096465  0  4.043302  0  0  -0.100062  0  4.06432  0  -0.035396  0  -0.097599  -0.094097  0  4.029164  0
C  C46  1  0.85018812  0.35015377  0.56014559  1  0  -0.077023  0  3.780309  0  0  -0.096537  0  4.043342  0  0  -0.100127  0  4.064364  0  -0.035523  0  -0.097597  -0.094169  0  4.029215  0
C  C47  1  0.27321312  0.56620398  0.44620711  1  0  -0.023556  0  3.739128  0  0  -0.041198  0  3.994876  0  0  -0.038738  0  4.012813  0  -0.032691  0  -0.082786  -0.042764  0  3.982554  0
C  C48  1  0.72678363  0.43379812  0.55378944  1  0  -0.023535  0  3.739208  0  0  -0.041205  0  3.994985  0  0  -0.038748  0  4.012923  0  -0.032917  0  -0.082798  -0.0428  0  3.982653  0
C  C49  1  0.30223902  0.46132230  0.55024914  1  0  -0.114361  0  3.712553  0  0  -0.133571  0  3.961148  0  0  -0.13834  0  3.981868  0  -0.050897  0  -0.089814  -0.130475  0  3.946415  0
C  C50  1  0.69775991  0.53867980  0.44974889  1  0  -0.114299  0  3.712555  0  0  -0.133509  0  3.961128  0  0  -0.138276  0  3.981846  0  -0.050919  0  -0.089799  -0.130413  0  3.946405  0
C  C51  1  0.21021061  0.43914083  0.64982967  1  0  0.057068  0  3.740918  0  0  0.064302  0  3.972024  0  0  0.066763  0  3.994299  0  0.035162  0  0.002551  0.063019  0  3.956755  0
C  C52  1  0.78978956  0.56085934  0.35017058  1  0  0.056985  0  3.740921  0  0  0.064242  0  3.972027  0  0  0.066702  0  3.994302  0  0.035164  0  0.002591  0.062958  0  3.956756  0
C  C53  1  0.24648918  0.32241678  0.75633033  1  0  0.082688  0  3.720574  0  0  0.089203  0  3.951362  0  0  0.092942  0  3.972106  0  0.000755  0  0.012747  0.086757  0  3.93741  0
C  C54  1  0.75350996  0.67758242  0.24366873  1  0  0.082797  0  3.720624  0  0  0.089316  0  3.951399  0  0  0.093056  0  3.972143  0  0.000727  0  0.012773  0.086871  0  3.937446  0
C  C55  1  0.36977205  0.31134733  0.82176767  1  0  -0.115163  0  3.711364  0  0  -0.098071  0  3.943524  0  0  -0.106732  0  3.964671  0  -0.031889  0  -0.019787  -0.092559  0  3.929799  0
C  C56  1  0.63022812  0.68865284  0.17823018  1  0  -0.115267  0  3.711497  0  0  -0.098176  0  3.94367  0  0  -0.10684  0  3.964818  0  -0.031905  0  -0.01979  -0.092663  0  3.929945  0
C  C57  1  0.45608884  0.42575843  0.80422449  1  0  0.6422  0  3.925662  0  0  0.594395  0  4.219916  0  0  0.628477  0  4.211667  0  1.558933  0  0.206907  0.57118  0  4.225  0
C  C58  1  0.54391235  0.57424270  0.19577376  1  0  0.642302  0  3.925569  0  0  0.594491  0  4.219828  0  0  0.628575  0  4.211575  0  1.558934  0  0.206925  0.571277  0  4.22491  0
C  C59  1  0.40619727  0.19321577  0.91359762  1  0  -0.079832  0  3.769524  0  0  -0.103085  0  4.019109  0  0  -0.102183  0  4.039569  0  -0.063194  0  -0.09279  -0.103548  0  4.005217  0
C  C60  1  0.59380392  0.80678536  0.08640223  1  0  -0.07977  0  3.769476  0  0  -0.103041  0  4.019072  0  0  -0.102133  0  4.039524  0  -0.063209  0  -0.092791  -0.103501  0  4.005171  0
C  C61  1  0.31949838  0.08828572  0.94497205  1  0  -0.096193  0  3.803428  0  0  -0.109364  0  4.057836  0  0  -0.11316  0  4.079153  0  -0.05837  0  -0.100968  -0.106962  0  4.043526  0
C  C62  1  0.68050500  0.91171541  0.05502769  1  0  -0.096231  0  3.80346  0  0  -0.10941  0  4.05787  0  0  -0.113207  0  4.079188  0  -0.05828  0  -0.101  -0.107007  0  4.04356  0
C  C63  1  0.19524146  0.09994720  0.88211215  1  0  -0.063238  0  3.793153  0  0  -0.077698  0  4.045338  0  0  -0.077011  0  4.064754  0  -0.109316  0  -0.091115  -0.077655  0  4.031608  0
C  C64  1  0.80476315  0.90005200  0.11788662  1  0  -0.063232  0  3.793148  0  0  -0.077645  0  4.045309  0  0  -0.07696  0  4.064727  0  -0.109126  0  -0.091062  -0.077604  0  4.03158  0
C  C65  1  0.16180075  0.21481876  0.78763347  1  0  -0.104594  0  3.721891  0  0  -0.123796  0  3.969129  0  0  -0.127922  0  3.989486  0  -0.025429  0  -0.088016  -0.121204  0  3.955174  0
C  C66  1  0.83820523  0.78517656  0.21236264  1  0  -0.104678  0  3.7219  0  0  -0.12389  0  3.969142  0  0  -0.128016  0  3.989497  0  -0.025695  0  -0.088081  -0.121298  0  3.955187  0
C  C67  1  0.08145152  0.20312246  0.11581390  1  0  0.12836  0  3.694642  0  0  0.093524  0  3.949217  0  0  0.101285  0  3.967097  0  0.490789  0  0.048312  0.089344  0  3.936724  0
C  C68  1  0.91854755  0.79687770  0.88418800  1  0  0.128408  0  3.694702  0  0  0.093577  0  3.949255  0  0  0.101334  0  3.967134  0  0.490974  0  0.048353  0.089398  0  3.936761  0
C  C69  1  0.07921172  0.07750745  0.20103266  1  0  -0.133664  0  3.764451  0  0  -0.145013  0  4.022454  0  0  -0.153553  0  4.045457  0  -0.037427  0  -0.085982  -0.139774  0  4.007903  0
C  C70  1  0.92078735  0.92249272  0.79897004  1  0  -0.133556  0  3.764342  0  0  -0.144914  0  4.022335  0  0  -0.153454  0  4.045339  0  -0.037584  0  -0.085918  -0.139675  0  4.007785  0
C  C71  1  0.98152983  0.05192089  0.29660908  1  0  -0.017586  0  3.668382  0  0  -0.049362  0  3.921658  0  0  -0.044649  0  3.938074  0  -0.04602  0  -0.057467  -0.052864  0  3.910727  0
C  C72  1  0.01846924  0.94807928  0.70339363  1  0  -0.0177  0  3.668455  0  0  -0.049437  0  3.921748  0  0  -0.044728  0  3.938161  0  -0.046321  0  -0.057531  -0.05294  0  3.910818  0
C  C73  1  0.88512957  0.15283544  0.30273778  1  0  -0.048618  0  3.790742  0  0  -0.025445  0  4.027712  0  0  -0.031907  0  4.050003  0  -0.008555  0  0.001389  -0.021459  0  4.012446  0
C  C74  1  0.11487053  0.84716569  0.69726373  1  0  -0.048606  0  3.790689  0  0  -0.025503  0  4.02779  0  0  -0.031965  0  4.050086  0  -0.008573  0  0.001369  -0.021521  0  4.012523  0
C  C75  1  0.89263965  0.27501731  0.21196105  1  0  0.10416  0  3.654239  0  0  0.06425  0  3.900912  0  0  0.070854  0  3.918347  0  0.511705  0  0.053354  0.060109  0  3.890135  0
C  C76  1  0.10735840  0.72498188  0.78804045  1  0  0.104197  0  3.654108  0  0  0.064289  0  3.900889  0  0  0.070877  0  3.918309  0  0.511746  0  0.053371  0.06015  0  3.890114  0
C  C77  1  0.77839274  0.13032217  0.39937133  1  0  0.312377  0  3.797868  0  0  0.276771  0  4.069176  0  0  0.290283  0  4.086475  0  0.972249  0  0.223504  0.26822  0  4.057139  0
C  C78  1  0.22160742  0.86967799  0.60063052  1  0  0.312414  0  3.797799  0  0  0.276809  0  4.069187  0  0  0.29032  0  4.086489  0  0.972295  0  0.223521  0.268267  0  4.057143  0
C  C79  1  0.64836233  0.04353004  0.55385902  1  0  0.274513  0  3.835328  0  0  0.253563  0  4.11271  0  0  0.26315  0  4.131549  0  0.969602  0  0.204947  0.247168  0  4.100337  0
C  C80  1  0.35163784  0.95647012  0.44614282  1  0  0.274467  0  3.835305  0  0  0.25357  0  4.112647  0  0  0.263157  0  4.131489  0  0.96959  0  0.204931  0.247175  0  4.100274  0
C  C81  1  0.58835481  0.94556802  0.65989656  1  0  -0.031289  0  3.775468  0  0  -0.008187  0  4.005725  0  0  -0.013485  0  4.027864  0  -0.01148  0  0.004153  -0.004524  0  3.991085  0
C  C82  1  0.41164303  0.05443408  0.34010392  1  0  -0.031158  0  3.775513  0  0  -0.008126  0  4.00583  0  0  -0.013426  0  4.027968  0  -0.011451  0  0.004245  -0.004462  0  3.991188  0
C  C83  1  0.65007618  0.81838008  0.69842572  1  0  0.115387  0  3.641634  0  0  0.07134  0  3.892807  0  0  0.07909  0  3.908425  0  0.483411  0  0.057264  0.066247  0  3.882909  0
C  C84  1  0.34992405  0.18161911  0.30157488  1  0  0.115464  0  3.641584  0  0  0.071418  0  3.892767  0  0  0.07918  0  3.908396  0  0.483368  0  0.057273  0.066325  0  3.882867  0
C  C85  1  0.46751205  0.97227962  0.72363502  1  0  -0.025754  0  3.661645  0  0  -0.056223  0  3.909331  0  0  -0.051716  0  3.926343  0  -0.036364  0  -0.058755  -0.058613  0  3.897349  0
C  C86  1  0.53248832  0.02771765  0.27636786  1  0  -0.02585  0  3.661818  0  0  -0.056282  0  3.909493  0  0  -0.051778  0  3.926513  0  -0.036459  0  -0.058794  -0.058674  0  3.897512  0
C  C87  1  0.41261067  0.87113677  0.82041030  1  0  -0.122404  0  3.762296  0  0  -0.133958  0  4.017761  0  0  -0.142242  0  4.041561  0  0.017724  0  -0.085199  -0.129229  0  4.002701  0
C  C88  1  0.58738854  0.12886146  0.17959150  1  0  -0.122406  0  3.762433  0  0  -0.133972  0  4.017886  0  0  -0.142255  0  4.041685  0  0.017678  0  -0.085184  -0.129241  0  4.002827  0
C  C89  1  0.47870705  0.74713723  0.85247597  1  0  0.131247  0  3.682906  0  0  0.093905  0  3.942162  0  0  0.101607  0  3.95881  0  0.440956  0  0.045601  0.08874  0  3.93222  0
C  C90  1  0.52129325  0.25286100  0.14752576  1  0  0.131265  0  3.682936  0  0  0.093925  0  3.942187  0  0  0.101631  0  3.958835  0  0.44121  0  0.045576  0.08876  0  3.932245  0
N  N91  1  0.99017386  0.29974486  0.12215898  1  0  -0.305758  0  3.277603  0  0  -0.227002  0  3.537359  0  0  -0.244365  0  3.552614  0  -1.228495  0  -0.315835  -0.215468  0  3.526349  0
N  N92  1  0.00982521  0.70025530  0.87784213  1  0  -0.305802  0  3.277598  0  0  -0.227052  0  3.53738  0  0  -0.244417  0  3.552644  0  -1.228543  0  -0.315882  -0.215519  0  3.52637  0
N  N93  1  0.76536536  0.01803248  0.49093058  1  0  -0.46385  0  2.925258  0  0  -0.435723  0  3.194922  0  0  -0.451667  0  3.207843  0  -1.134603  0  -0.333462  -0.425044  0  3.185792  0
N  N94  1  0.23463357  0.98196962  0.50907064  1  0  -0.463813  0  2.925152  0  0  -0.435682  0  3.19481  0  0  -0.451628  0  3.207732  0  -1.134623  0  -0.333431  -0.425007  0  3.185678  0
N  N95  1  0.67286823  0.21856823  0.40892790  1  0  -0.219321  0  3.441625  0  0  -0.155089  0  3.679534  0  0  -0.170936  0  3.698986  0  -0.821541  0  -0.254666  -0.144037  0  3.666407  0
N  N96  1  0.32713084  0.78143193  0.59107320  1  0  -0.21927  0  3.441528  0  0  -0.155071  0  3.679506  0  0  -0.17091  0  3.698937  0  -0.821574  0  -0.254636  -0.144015  0  3.666362  0
N  N97  1  0.58887769  0.16533174  0.50648238  1  0  -0.251593  0  2.837211  0  0  -0.246893  0  3.10631  0  0  -0.254508  0  3.122274  0  -0.641751  0  -0.219304  -0.24213  0  3.095838  0
N  N98  1  0.41112036  0.83466745  0.49351912  1  0  -0.251669  0  2.837229  0  0  -0.246967  0  3.10633  0  0  -0.254582  0  3.122294  0  -0.641712  0  -0.219353  -0.242204  0  3.095855  0
N  N99  1  0.59679908  0.72216011  0.79249289  1  0  -0.343076  0  3.352626  0  0  -0.259308  0  3.640406  0  0  -0.278027  0  3.652754  0  -1.272632  0  -0.333426  -0.247596  0  3.63314  0
N  N100  1  0.40320218  0.27784006  0.20750650  1  0  -0.343213  0  3.352719  0  0  -0.259445  0  3.6405  0  0  -0.278165  0  3.652839  0  -1.272711  0  -0.333479  -0.24773  0  3.633235  0
O  O101  1  0.02643950  0.44270360  0.84754212  1  0  -0.632784  0  2.031567  0  0  -0.571443  0  2.283376  0  0  -0.597597  0  2.273132  0  -1.188368  0  -0.311714  -0.553391  0  2.290001  0
O  O102  1  0.97356176  0.55729656  0.15245807  1  0  -0.632731  0  2.031674  0  0  -0.571405  0  2.283424  0  0  -0.597558  0  2.273173  0  -1.188374  0  -0.311715  -0.553354  0  2.290049  0
O  O103  1  0.85332583  0.56345088  0.72213799  1  0  -0.650533  0  2.071446  0  0  -0.575377  0  2.347546  0  0  -0.604367  0  2.332575  0  -1.177241  0  -0.325369  -0.554965  0  2.356082  0
O  O104  1  0.14667543  0.43654928  0.27786221  1  0  -0.650471  0  2.071437  0  0  -0.575371  0  2.347528  0  0  -0.604363  0  2.332555  0  -1.177255  0  -0.325344  -0.554957  0  2.356061  0
O  O105  1  0.39966651  0.53843893  0.75404925  1  0  -0.623162  0  2.027597  0  0  -0.576352  0  2.26195  0  0  -0.59985  0  2.254624  0  -1.204737  0  -0.310769  -0.560101  0  2.267106  0
O  O106  1  0.60033570  0.46156317  0.24595020  1  0  -0.623184  0  2.027548  0  0  -0.576385  0  2.261916  0  0  -0.599881  0  2.254583  0  -1.204757  0  -0.310778  -0.560133  0  2.267074  0
O  O107  1  0.58343051  0.39873728  0.84976410  1  0  -0.652525  0  2.030845  0  0  -0.578625  0  2.298432  0  0  -0.606797  0  2.280616  0  -1.171951  0  -0.331459  -0.558447  0  2.309179  0
O  O108  1  0.41657054  0.60126579  0.15023427  1  0  -0.652551  0  2.030694  0  0  -0.578643  0  2.298267  0  0  -0.606814  0  2.280447  0  -1.171932  0  -0.331466  -0.558463  0  2.309009  0
O  O109  1  0.77599101  0.50175196  0.99660516  1  0  -0.966803  0  1.876262  0  0  -0.878627  0  2.165747  0  0  -0.908303  0  2.130535  0  -1.216246  0  -0.591383  -0.857122  0  2.189332  0
O  O110  1  0.22400929  0.49824627  0.00339498  1  0  -0.966796  0  1.87625  0  0  -0.878622  0  2.165741  0  0  -0.908298  0  2.13053  0  -1.216217  0  -0.591375  -0.857114  0  2.189326  0
