# generated using pymatgen
data_CuH16C16(N5O2)2
_symmetry_space_group_name_H-M   'P 1'
_cell_length_a   7.99974052
_cell_length_b   13.01440990
_cell_length_c   13.01460680
_cell_angle_alpha   79.90056350
_cell_angle_beta   79.78473099
_cell_angle_gamma   79.78487596
_symmetry_Int_Tables_number   1
_chemical_formula_structural   CuH16C16(N5O2)2
_chemical_formula_sum   'Cu2 H32 C32 N20 O8'
_cell_volume   1297.79303989
_cell_formula_units_Z   2
loop_
 _symmetry_equiv_pos_site_id
 _symmetry_equiv_pos_as_xyz
  1  'x, y, z'
loop_
 _atom_site_type_symbol
 _atom_site_label
 _atom_site_symmetry_multiplicity
 _atom_site_fract_x
 _atom_site_fract_y
 _atom_site_fract_z
 _atom_site_occupancy
 _atom_site_hle17_ddec_charge
 _atom_site_hle17_ddec_spin_density
 _atom_site_hle17_ddec_sum_bond_order
 _atom_site_hle17_magmom
 _atom_site_hse06_10hf_ddec_charge
 _atom_site_hse06_10hf_ddec_spin_density
 _atom_site_hse06_10hf_ddec_sum_bond_order
 _atom_site_hse06_10hf_magmom
 _atom_site_hse06_ddec_charge
 _atom_site_hse06_ddec_spin_density
 _atom_site_hse06_ddec_sum_bond_order
 _atom_site_hse06_magmom
 _atom_site_pbe_cm5_charge
 _atom_site_pbe_ddec_charge
 _atom_site_pbe_ddec_spin_density
 _atom_site_pbe_ddec_sum_bond_order
 _atom_site_pbe_magmom
Cu  Cu0  1  0.99999965  0.00000019  0.00000141  1  0.882547  0.72412  1.746839  0.51  0.860418  0.806217  2.132399  0.622  0.950263  0.878335  2.065165  0.703  0.751299  0.803948  0.75411  2.180237  0.569
Cu  Cu1  1  0.49999814  0.00000044  0.99999824  1  0.882335  -0.72412  1.74709  -0.51  0.860353  -0.806226  2.132574  -0.622  0.950126  -0.878327  2.065455  -0.703  0.75133  0.80395  -0.75411  2.180302  -0.569
H  H2  1  0.07765685  0.27179491  0.99981710  1  0.118984  0.00034  0.943049  0.001  0.124871  2.5e-05  1.014548  0.0  0.126851  2.1e-05  1.014267  0.0  0.119111  0.12348  2.2e-05  1.014923  0.0
H  H3  1  0.42233274  0.00017839  0.72821924  1  0.119017  -0.00035  0.943056  -0.001  0.124794  -2.5e-05  1.014698  0.0  0.126791  -2.1e-05  1.014362  0.0  0.119104  0.123448  -2.2e-05  1.014971  0.0
H  H4  1  0.92233647  0.72820412  0.00019314  1  0.11892  0.000347  0.943179  0.001  0.124792  2.5e-05  1.014658  0.0  0.126776  2.1e-05  1.01437  0.0  0.119091  0.123423  2.2e-05  1.014981  0.0
H  H5  1  0.57766594  0.99982469  0.27178363  1  0.119023  -0.000341  0.943107  -0.001  0.12485  -2.5e-05  1.01468  0.0  0.126813  -2.1e-05  1.014386  0.0  0.119093  0.123479  -2.2e-05  1.015003  0.0
H  H6  1  0.05995533  0.25411865  0.13919241  1  0.131799  0.000369  0.904935  0.0  0.146452  0.000229  0.958516  0.0  0.148743  0.000204  0.95688  0.0  0.125161  0.144858  0.00023  0.959751  0.0
H  H7  1  0.44004005  0.86079767  0.74588646  1  0.131788  -0.000372  0.905151  0.0  0.146417  -0.000229  0.958676  0.0  0.148704  -0.000204  0.957041  0.0  0.125151  0.144824  -0.00023  0.959913  0.0
H  H8  1  0.94004833  0.74587962  0.86081452  1  0.131709  0.000373  0.904913  0.0  0.146329  0.000229  0.958525  0.0  0.148625  0.000203  0.956881  0.0  0.125131  0.144736  0.00023  0.959756  0.0
H  H9  1  0.55995518  0.13920389  0.25411395  1  0.131921  -0.000372  0.905096  0.0  0.146562  -0.000229  0.958619  0.0  0.148837  -0.000204  0.956972  0.0  0.12521  0.144967  -0.00023  0.959851  0.0
H  H10  1  0.23119670  0.39038734  0.20945652  1  0.129102  3.4e-05  0.924585  0.0  0.143738  1.2e-05  0.975898  0.0  0.146733  8e-06  0.973752  0.0  0.133324  0.141504  1.5e-05  0.977587  0.0
H  H11  1  0.26881648  0.79053887  0.60960782  1  0.129058  -3e-05  0.924581  0.0  0.143691  -1.2e-05  0.975906  0.0  0.146687  -8e-06  0.97376  0.0  0.133293  0.141457  -1.5e-05  0.977594  0.0
H  H12  1  0.76881670  0.60961262  0.79054293  1  0.129052  3e-05  0.924561  0.0  0.143687  1.2e-05  0.975879  0.0  0.146686  8e-06  0.973726  0.0  0.13327  0.141444  1.5e-05  0.977593  0.0
H  H13  1  0.73119291  0.20946192  0.39038963  1  0.129065  -3.3e-05  0.924576  0.0  0.143705  -1.3e-05  0.975857  0.0  0.146701  -8e-06  0.973741  0.0  0.133303  0.141471  -1.5e-05  0.977577  0.0
H  H14  1  0.38061362  0.58054878  0.18821463  1  0.087024  9.7e-05  0.905726  0.0  0.103554  7.9e-05  0.958668  0.0  0.104159  5e-05  0.958918  0.0  0.115451  0.102841  0.000104  0.959172  0.0
H  H15  1  0.11940022  0.81179211  0.41944878  1  0.087142  -9.5e-05  0.905584  0.0  0.10374  -7.9e-05  0.958511  0.0  0.104351  -5e-05  0.958758  0.0  0.115515  0.103037  -0.000104  0.959005  0.0
H  H16  1  0.61939411  0.41945360  0.81178198  1  0.087038  9.7e-05  0.905752  0.0  0.103569  7.9e-05  0.95869  0.0  0.104174  4.9e-05  0.958953  0.0  0.11546  0.102727  0.000104  0.959123  0.0
H  H17  1  0.88061007  0.18821021  0.58055064  1  0.087025  -9.7e-05  0.905676  0.0  0.103382  -7.9e-05  0.959407  0.0  0.104197  -5e-05  0.958925  0.0  0.115472  0.102903  -0.000104  0.959154  0.0
H  H18  1  0.44439557  0.63594376  0.05540390  1  0.114833  -5.8e-05  0.918716  0.0  0.126089  -2.1e-05  0.980322  0.0  0.126878  -1.6e-05  0.981344  0.0  0.125022  0.125199  -2.6e-05  0.980352  0.0
H  H19  1  0.05562174  0.94460796  0.36405513  1  0.114873  6.6e-05  0.918843  0.0  0.126188  2.1e-05  0.980387  0.0  0.126976  1.5e-05  0.981417  0.0  0.125051  0.125301  2.6e-05  0.980423  0.0
H  H20  1  0.55559838  0.36405786  0.94459357  1  0.114824  -6.2e-05  0.918674  0.0  0.126078  -2.1e-05  0.9803  0.0  0.126866  -1.6e-05  0.98133  0.0  0.12503  0.125043  -2.6e-05  0.980294  0.0
H  H21  1  0.94438658  0.05539201  0.63594410  1  0.114767  6.2e-05  0.918763  0.0  0.125895  2.1e-05  0.98106  0.0  0.126911  1.5e-05  0.981321  0.0  0.125025  0.125232  2.6e-05  0.980336  0.0
H  H22  1  0.03183074  0.64834922  0.26123336  1  0.112709  0.000567  0.943303  0.001  0.128135  0.000494  0.992627  0.001  0.130557  0.000368  0.992018  0.0  0.12511  0.126216  0.000598  0.993511  0.001
H  H23  1  0.46818172  0.73876944  0.35164583  1  0.112634  -0.000564  0.943196  -0.001  0.128046  -0.000494  0.992558  -0.001  0.130466  -0.000369  0.99195  0.0  0.125119  0.126132  -0.000598  0.993441  -0.001
H  H24  1  0.96817161  0.35164921  0.73876523  1  0.112652  0.000568  0.943266  0.001  0.128065  0.000494  0.992616  0.001  0.130485  0.000368  0.992014  0.0  0.125054  0.125936  0.000598  0.993529  0.001
H  H25  1  0.53181628  0.26122597  0.64834680  1  0.112719  -0.000566  0.943235  -0.001  0.128045  -0.000494  0.9929  -0.001  0.130567  -0.000368  0.991959  0.0  0.125151  0.126226  -0.000598  0.993458  -0.001
H  H26  1  0.85525110  0.85051892  0.21247177  1  0.106744  -9e-06  0.970409  0.0  0.116421  0.000197  1.02978  0.0  0.11853  0.000136  1.02894  0.0  0.118955  0.114794  0.000251  1.030438  0.001
H  H27  1  0.64474798  0.78752978  0.14947749  1  0.106792  1e-05  0.970424  0.0  0.116484  -0.000197  1.029739  0.0  0.11859  -0.000136  1.028899  0.0  0.118959  0.114841  -0.000251  1.030443  -0.001
H  H28  1  0.14474491  0.14947947  0.78752982  1  0.106763  -1.2e-05  0.97043  0.0  0.116448  0.000197  1.029747  0.0  0.118558  0.000136  1.028934  0.0  0.118967  0.114742  0.000251  1.030521  0.001
H  H29  1  0.35524441  0.21246254  0.85051239  1  0.106677  8e-06  0.970549  0.0  0.116399  -0.000197  1.029823  0.0  0.118507  -0.000137  1.029014  0.0  0.118901  0.11476  -0.000252  1.030552  -0.001
H  H30  1  0.30244559  0.80584768  0.98659210  1  0.118104  7e-06  0.982956  0.0  0.123615  7e-05  1.0499  0.0  0.126934  6.5e-05  1.045892  0.0  0.137431  0.12087  6.9e-05  1.053286  0.0
H  H31  1  0.19756691  0.01341418  0.19415546  1  0.118107  -9e-06  0.983059  0.0  0.12363  -6.9e-05  1.049959  0.0  0.126949  -6.5e-05  1.045951  0.0  0.137436  0.120893  -6.9e-05  1.053349  0.0
H  H32  1  0.69755454  0.19415465  0.01340842  1  0.118073  8e-06  0.982944  0.0  0.123579  7e-05  1.049888  0.0  0.126899  6.5e-05  1.045888  0.0  0.137418  0.120667  6.9e-05  1.053292  0.0
H  H33  1  0.80244249  0.98658658  0.80584353  1  0.118115  -9e-06  0.983033  0.0  0.123506  -6.9e-05  1.050366  0.0  0.126955  -6.5e-05  1.045922  0.0  0.137425  0.120891  -6.9e-05  1.053314  0.0
C  C34  1  0.31135227  0.19333049  0.06129609  1  0.658465  0.003619  3.873027  0.008  0.617722  -0.000206  4.184687  0.003  0.653189  0.000329  4.179531  0.002  0.204125  0.593821  -0.000804  4.187141  0.003
C  C35  1  0.18863815  0.93869052  0.80667135  1  0.658362  -0.003627  3.873407  -0.008  0.617532  0.000207  4.185073  -0.003  0.652989  -0.000328  4.179936  -0.002  0.204051  0.593633  0.000804  4.187519  -0.003
C  C36  1  0.68864785  0.80667187  0.93870289  1  0.658656  0.003628  3.872951  0.008  0.617854  -0.000205  4.184629  0.003  0.653327  0.00033  4.179477  0.003  0.204225  0.593956  -0.000803  4.187078  0.003
C  C37  1  0.81136040  0.06130784  0.19333150  1  0.658412  -0.003616  3.873234  -0.008  0.617599  0.000206  4.184906  -0.003  0.653042  -0.000328  4.179739  -0.002  0.20409  0.593695  0.000804  4.187346  -0.003
C  C38  1  0.14517849  0.27457108  0.06508645  1  -0.174393  -0.011224  3.606366  -0.012  -0.243937  -0.006633  3.850178  -0.007  -0.246038  -0.004579  3.856172  -0.005  -0.049605  -0.242513  -0.008272  3.846185  -0.009
C  C39  1  0.35481687  0.93490564  0.72543472  1  -0.174584  0.011243  3.606885  0.012  -0.243884  0.006633  3.850305  0.007  -0.245949  0.004581  3.856299  0.005  -0.049625  -0.242474  0.008273  3.846389  0.009
C  C40  1  0.85481950  0.72542958  0.93491995  1  -0.174146  -0.011246  3.606308  -0.012  -0.243587  -0.006634  3.850034  -0.007  -0.245679  -0.004579  3.856022  -0.005  -0.049527  -0.242157  -0.008274  3.846009  -0.009
C  C41  1  0.64517945  0.06509668  0.27456698  1  -0.174727  0.011227  3.60684  0.012  -0.244123  0.006634  3.85045  0.007  -0.246128  0.004581  3.85633  0.005  -0.049628  -0.242692  0.008274  3.846438  0.009
C  C42  1  0.22958055  0.42782124  0.12841169  1  -0.100112  -0.000467  3.665734  0.0  -0.163053  -0.000525  3.920578  -0.001  -0.159792  -0.000334  3.93614  0.0  0.022963  -0.165067  -0.000738  3.910136  -0.001
C  C43  1  0.27043328  0.87158914  0.57217879  1  -0.100118  0.000434  3.665604  0.0  -0.163073  0.000523  3.92044  0.001  -0.159816  0.000338  3.936018  0.0  0.022904  -0.165075  0.000738  3.909999  0.001
C  C44  1  0.77042328  0.57217632  0.87159072  1  -0.100075  -0.000429  3.665849  0.0  -0.163019  -0.000523  3.920666  -0.001  -0.15975  -0.000336  3.936229  0.0  0.022951  -0.165104  -0.000738  3.910315  -0.001
C  C45  1  0.72957630  0.12841084  0.42781953  1  -0.100215  0.000455  3.665718  0.0  -0.163166  0.000523  3.920538  0.001  -0.159894  0.000338  3.936137  0.0  0.022896  -0.165166  0.000738  3.910129  0.001
C  C46  1  0.27378314  0.52261895  0.07373855  1  0.114475  -0.000281  3.802312  0.0  0.108085  -0.000175  4.093349  0.0  0.105911  -8.2e-05  4.118485  0.0  0.076268  0.109036  -0.00028  4.07756  0.0
C  C47  1  0.22622924  0.92627148  0.47738064  1  0.114524  0.000312  3.801983  0.0  0.108198  0.000178  4.092991  0.0  0.106024  7.9e-05  4.118148  0.0  0.076397  0.109147  0.000281  4.077218  0.0
C  C48  1  0.72621230  0.47738178  0.92626427  1  0.114464  -0.000313  3.802279  0.0  0.108087  -0.000177  4.0933  0.0  0.105918  -8e-05  4.11843  0.0  0.076342  0.108922  -0.00028  4.07732  0.0
C  C49  1  0.77377939  0.07373244  0.52261793  1  0.114592  0.000297  3.802042  0.0  0.107786  0.000175  4.094826  0.0  0.106081  8e-05  4.11826  0.0  0.076371  0.109207  0.000281  4.077332  0.0
C  C50  1  0.33624025  0.60861168  0.11162565  1  -0.057712  0.000799  3.661833  0.001  -0.111213  0.000606  3.915165  0.001  -0.113169  0.000469  3.923042  0.001  -0.038078  -0.113969  0.000718  3.907544  0.001
C  C51  1  0.16378299  0.88838398  0.39138432  1  -0.058044  -0.000819  3.662195  -0.001  -0.111736  -0.000606  3.915626  -0.001  -0.113691  -0.000468  3.923523  -0.001  -0.038304  -0.1145  -0.000718  3.908011  -0.001
C  C52  1  0.66376189  0.39138758  0.88837053  1  -0.057717  0.000803  3.661741  0.001  -0.111245  0.000606  3.915094  0.001  -0.113206  0.000469  3.922997  0.001  -0.038108  -0.112827  0.000718  3.90677  0.001
C  C53  1  0.83622420  0.11162067  0.60861737  1  -0.057813  -0.000799  3.661931  -0.001  -0.117658  -0.000608  3.912293  -0.001  -0.113504  -0.000469  3.923414  -0.001  -0.038217  -0.114327  -0.000718  3.907912  -0.001
C  C54  1  0.06047707  0.71185897  0.19811760  1  -0.095676  0.003277  3.701954  0.003  -0.127037  0.001886  3.964281  0.002  -0.1326  0.001648  3.977559  0.002  -0.005444  -0.127697  0.002055  3.952195  0.002
C  C55  1  0.43953874  0.80188703  0.28813534  1  -0.095353  -0.003291  3.7013  -0.003  -0.126719  -0.001886  3.963651  -0.002  -0.132265  -0.001648  3.976934  -0.002  -0.005417  -0.127385  -0.002055  3.951571  -0.002
C  C56  1  0.93952693  0.28813788  0.80188106  1  -0.09558  0.003256  3.701805  0.003  -0.12694  0.001886  3.964142  0.002  -0.132489  0.001647  3.97742  0.002  -0.005386  -0.126359  0.002055  3.951449  0.002
C  C57  1  0.56045310  0.19810757  0.71185885  1  -0.095608  -0.003281  3.701547  -0.003  -0.13335  -0.001886  3.959379  -0.002  -0.132543  -0.001648  3.97717  -0.002  -0.005518  -0.127655  -0.002055  3.951819  -0.002
C  C58  1  0.97347202  0.81144721  0.17263958  1  0.003599  0.000341  3.753738  0.0  -0.024379  0.001127  4.016115  0.001  -0.02047  0.000464  4.038325  0.0  -0.002248  -0.027221  0.001592  4.002886  0.001
C  C59  1  0.52653809  0.82736859  0.18854798  1  0.003238  -0.000333  3.7535  0.0  -0.024723  -0.001128  4.015906  -0.001  -0.020814  -0.000464  4.03811  0.0  -0.002337  -0.027572  -0.001593  4.002672  -0.001
C  C60  1  0.02652780  0.18855117  0.82736237  1  0.003508  0.000363  3.753602  0.0  -0.024471  0.001127  4.01597  0.001  -0.020553  0.000464  4.038187  0.0  -0.002282  -0.027508  0.001592  4.00255  0.001
C  C61  1  0.47346176  0.17262441  0.81144636  1  0.003331  -0.000335  3.753741  0.0  -0.02534  -0.001128  4.018354  -0.001  -0.020755  -0.000463  4.03831  0.0  -0.002293  -0.027521  -0.001592  4.002912  -0.001
C  C62  1  0.20101063  0.79219100  0.05271406  1  0.164698  -0.00484  3.608124  -0.005  0.115228  -0.001083  3.879894  -0.001  0.124945  -0.001724  3.888233  -0.002  0.14709  0.104891  -0.000597  3.871553  -0.001
C  C63  1  0.29899281  0.94729562  0.20780770  1  0.164457  0.004846  3.608164  0.005  0.114995  0.001083  3.879883  0.001  0.12473  0.001725  3.888198  0.002  0.147051  0.104633  0.000596  3.871585  0.001
C  C64  1  0.79898931  0.20781211  0.94728713  1  0.164796  -0.004826  3.607934  -0.005  0.115316  -0.001082  3.879687  -0.001  0.12504  -0.001723  3.888036  -0.002  0.14715  0.106216  -0.000597  3.870602  -0.001
C  C65  1  0.70100845  0.05270206  0.79218882  1  0.164291  0.00484  3.60825  0.005  0.108612  0.00108  3.875931  0.001  0.124588  0.001724  3.88827  0.002  0.147026  0.104486  0.000596  3.871686  0.001
N  N66  1  0.06226103  0.86042519  0.08156155  1  -0.365764  0.065822  3.350468  0.081  -0.321069  0.047094  3.665587  0.061  -0.353388  0.039971  3.686702  0.055  -0.383895  -0.301839  0.050581  3.654737  0.064
N  N67  1  0.43773926  0.91844489  0.13957088  1  -0.365267  -0.065828  3.350009  -0.081  -0.320601  -0.047092  3.665076  -0.061  -0.3529  -0.039975  3.686205  -0.055  -0.383741  -0.30136  -0.050583  3.654199  -0.064
N  N68  1  0.93773223  0.13957400  0.91843945  1  -0.365725  0.065807  3.350197  0.081  -0.32104  0.047093  3.665292  0.061  -0.353342  0.03997  3.686433  0.055  -0.383857  -0.301993  0.05058  3.654179  0.064
N  N69  1  0.56226255  0.08155046  0.86042364  1  -0.365089  -0.065816  3.350096  -0.081  -0.32107  -0.047091  3.667615  -0.061  -0.352731  -0.039972  3.686294  -0.055  -0.383628  -0.301208  -0.050578  3.654329  -0.064
N  N70  1  0.20399122  0.70151021  0.12176264  1  -0.020268  0.001472  3.533812  0.002  0.042626  0.001142  3.790348  0.001  0.049871  0.00087  3.785653  0.001  -0.239471  0.052406  0.00133  3.772604  0.002
N  N71  1  0.29602975  0.87824547  0.29848872  1  -0.020149  -0.00147  3.533848  -0.002  0.042796  -0.001143  3.790408  -0.001  0.050007  -0.000871  3.785739  -0.001  -0.23939  0.052572  -0.00133  3.77267  -0.002
N  N72  1  0.79601200  0.29848982  0.87823406  1  -0.02032  0.001475  3.533695  0.002  0.042585  0.001142  3.790211  0.001  0.049833  0.00087  3.785545  0.001  -0.239518  0.050533  0.001331  3.77243  0.002
N  N73  1  0.70397457  0.12175531  0.70151006  1  -0.020007  -0.001481  3.533662  -0.002  0.064228  -0.001136  3.760727  -0.001  0.05017  -0.00087  3.785552  -0.001  -0.239422  0.052715  -0.00133  3.772527  -0.002
N  N74  1  0.18236613  0.38086367  0.05551284  1  0.087799  -0.001524  3.619656  -0.002  0.200328  -0.000819  3.805588  -0.001  0.192924  -0.000479  3.828668  -0.001  -0.134551  0.205003  -0.001167  3.790219  -0.001
N  N75  1  0.31762831  0.94448451  0.61914425  1  0.087838  0.001545  3.619905  0.002  0.2003  0.000823  3.805756  0.001  0.192884  0.000475  3.828858  0.001  -0.13457  0.20498  0.001167  3.790393  0.001
N  N76  1  0.81762551  0.61913701  0.94449348  1  0.087612  -0.001537  3.619842  -0.002  0.200173  -0.000819  3.805686  -0.001  0.192715  -0.000479  3.828874  -0.001  -0.134599  0.204842  -0.001167  3.790324  -0.001
N  N77  1  0.68236420  0.05551780  0.38085864  1  0.087916  0.001558  3.619925  0.002  0.200398  0.000827  3.805729  0.001  0.192948  0.000472  3.828883  0.001  -0.134581  0.205078  0.001167  3.790395  0.001
N  N78  1  0.19804656  0.44209871  0.95938962  1  -0.123767  -0.000173  2.867962  0.0  -0.142823  -0.000407  3.162814  -0.001  -0.141369  -0.000263  3.172121  0.0  -0.110115  -0.143616  -0.000571  3.156459  -0.001
N  N79  1  0.30195538  0.04061119  0.55791333  1  -0.123752  0.000172  2.867909  0.0  -0.142795  0.000406  3.16274  0.001  -0.141346  0.000265  3.172086  0.0  -0.110042  -0.143569  0.000571  3.156386  0.001
N  N80  1  0.80193706  0.55790358  0.04061579  1  -0.123706  -0.000187  2.867931  0.0  -0.142762  -0.000407  3.162753  -0.001  -0.141297  -0.000263  3.172064  0.0  -0.110061  -0.143554  -0.000571  3.156386  -0.001
N  N81  1  0.69803947  0.95939192  0.44208841  1  -0.123776  0.00014  2.867981  0.0  -0.1428  0.000405  3.162783  0.001  -0.141344  0.000265  3.172136  0.0  -0.110068  -0.143571  0.000571  3.156423  0.001
N  N82  1  0.25245094  0.52832250  0.97074471  1  -0.248467  -0.00161  2.969288  -0.002  -0.244922  -0.000695  3.28031  -0.001  -0.247809  -0.000402  3.29049  0.0  -0.223202  -0.242615  -0.00101  3.273339  -0.001
N  N83  1  0.24755027  0.02926806  0.47168551  1  -0.248464  0.001592  2.969085  0.002  -0.244934  0.000692  3.280039  0.001  -0.247823  0.000403  3.290259  0.0  -0.223288  -0.242609  0.00101  3.273073  0.001
N  N84  1  0.74753267  0.47167982  0.02925916  1  -0.248441  -0.001584  2.969256  -0.002  -0.244914  -0.000694  3.28028  -0.001  -0.247804  -0.000403  3.290458  0.0  -0.223238  -0.242656  -0.00101  3.273321  -0.001
N  N85  1  0.75245055  0.97073666  0.52831380  1  -0.248501  0.001608  2.96917  0.002  -0.24502  0.000691  3.280316  0.001  -0.247863  0.000404  3.29036  0.0  -0.223264  -0.24265  0.00101  3.273171  0.001
O  O86  1  0.44210159  0.21406491  0.08808350  1  -0.604666  -0.000609  1.928059  -0.002  -0.569857  -0.000184  2.157089  -0.001  -0.593814  0.000584  2.148663  0.0  -0.319701  -0.553156  -0.000957  2.162281  -0.002
O  O87  1  0.05788521  0.91190475  0.78593712  1  -0.604495  0.000613  1.928155  0.002  -0.569705  0.000184  2.157216  0.001  -0.593663  -0.000584  2.148799  0.0  -0.319676  -0.552975  0.000958  2.162378  0.002
O  O88  1  0.55789959  0.78593830  0.91191216  1  -0.604795  -0.000615  1.928008  -0.002  -0.569999  -0.000183  2.15708  -0.001  -0.593952  0.000583  2.148649  0.0  -0.31981  -0.553271  -0.000958  2.162248  -0.002
O  O89  1  0.94210800  0.08809991  0.21406610  1  -0.60455  0.00061  1.928191  0.002  -0.569744  0.000184  2.15723  0.001  -0.593703  -0.000585  2.148815  0.0  -0.319716  -0.55302  0.000958  2.162399  0.002
O  O90  1  0.29433243  0.10836608  0.02850006  1  -0.598745  -0.099883  2.087415  -0.13  -0.578831  -0.066067  2.394903  -0.094  -0.622936  -0.051302  2.385924  -0.077  -0.319365  -0.549403  -0.075432  2.401083  -0.103
O  O91  1  0.20566030  0.97149148  0.89163029  1  -0.598744  0.09989  2.087594  0.13  -0.578763  0.066069  2.3951  0.094  -0.622885  0.051301  2.386114  0.077  -0.319291  -0.549339  0.075435  2.401274  0.103
O  O92  1  0.70567248  0.89163225  0.97150365  1  -0.598832  -0.09989  2.0875  -0.13  -0.578882  -0.066074  2.394935  -0.094  -0.622993  -0.051306  2.385994  -0.077  -0.319332  -0.549439  -0.075444  2.401132  -0.103
O  O93  1  0.79433659  0.02850847  0.10837173  1  -0.5988  0.099887  2.08756  0.13  -0.578786  0.066071  2.395024  0.094  -0.622912  0.051302  2.386041  0.077  -0.319311  -0.549381  0.075438  2.40122  0.103
