# generated using pymatgen
data_CuH14C18(N3O)2
_symmetry_space_group_name_H-M   'P 1'
_cell_length_a   9.69303804
_cell_length_b   13.83131954
_cell_length_c   15.57387217
_cell_angle_alpha   101.96010343
_cell_angle_beta   90.00018427
_cell_angle_gamma   89.99937066
_symmetry_Int_Tables_number   1
_chemical_formula_structural   CuH14C18(N3O)2
_chemical_formula_sum   'Cu4 H56 C72 N24 O8'
_cell_volume   2042.62527133
_cell_formula_units_Z   4
loop_
 _symmetry_equiv_pos_site_id
 _symmetry_equiv_pos_as_xyz
  1  'x, y, z'
loop_
 _atom_site_type_symbol
 _atom_site_label
 _atom_site_symmetry_multiplicity
 _atom_site_fract_x
 _atom_site_fract_y
 _atom_site_fract_z
 _atom_site_occupancy
 _atom_site_pbe_bader_charge
 _atom_site_pbe_bader_spin_density
 _atom_site_pbe_cm5_charge
 _atom_site_pbe_ddec_charge
 _atom_site_pbe_ddec_spin_density
 _atom_site_pbe_ddec_sum_bond_order
 _atom_site_pbe_magmom
Cu  Cu0  1  0.35833757  0.04026964  0.91641870  1  0.971278  -0.51982  0.787895  0.556806  -0.71764  2.576832  -0.519
Cu  Cu1  1  0.85833782  0.95973112  0.58357696  1  0.971344  0.519823  0.78791  0.55675  0.717642  2.577092  0.519
Cu  Cu2  1  0.64165628  0.95972708  0.08358214  1  0.97126  -0.519825  0.787893  0.55689  -0.717649  2.576811  -0.519
Cu  Cu3  1  0.14166119  0.04027223  0.41642310  1  0.971324  0.519828  0.787916  0.556789  0.717648  2.577007  0.519
H  H4  1  0.51868116  0.18004022  0.80510428  1  0.090296  -0.001393  0.122339  0.086602  -0.000664  1.002432  -0.001
H  H5  1  0.01868296  0.81996164  0.69489283  1  0.090293  0.001393  0.122346  0.086604  0.000664  1.00249  0.001
H  H6  1  0.48130959  0.81995799  0.19489745  1  0.090254  -0.001393  0.122343  0.086617  -0.000664  1.002488  -0.001
H  H7  1  0.98131502  0.18004165  0.30510337  1  0.090281  0.001393  0.122326  0.086603  0.000664  1.002449  0.001
H  H8  1  0.69334573  0.13678051  0.68419018  1  0.127743  -0.000954  0.12693  0.102342  -0.000503  0.986617  -0.001
H  H9  1  0.19334437  0.86322155  0.81580923  1  0.127791  0.000955  0.126912  0.102287  0.000504  0.98664  0.001
H  H10  1  0.30664606  0.86322065  0.31581142  1  0.127672  -0.000955  0.126917  0.102392  -0.000504  0.986582  -0.001
H  H11  1  0.80665155  0.13677881  0.18418774  1  0.127731  0.000955  0.126901  0.10231  0.000504  0.98659  0.001
H  H12  1  0.72688903  0.85390089  0.73583546  1  0.137102  -0.001204  0.120455  0.093069  -0.000785  1.009101  -0.001
H  H13  1  0.22688117  0.14610089  0.76416204  1  0.137023  0.001204  0.120438  0.09305  0.000785  1.009011  0.001
H  H14  1  0.27310585  0.14610021  0.26416164  1  0.136931  -0.001204  0.12046  0.093035  -0.000785  1.009135  -0.001
H  H15  1  0.77311268  0.85390181  0.23584433  1  0.137118  0.001203  0.120469  0.093072  0.000785  1.00905  0.001
H  H16  1  0.44649868  0.71479705  0.93656253  1  0.103318  -2.3e-05  0.097118  0.120502  -1e-06  1.037276  0.0
H  H17  1  0.94648883  0.28520084  0.56343280  1  0.103497  2.4e-05  0.097132  0.120492  1e-06  1.037269  0.0
H  H18  1  0.55350446  0.28520037  0.06343522  1  0.103405  -2.3e-05  0.097127  0.120518  -1e-06  1.037271  0.0
H  H19  1  0.05351637  0.71480103  0.43656700  1  0.103572  2.3e-05  0.097151  0.12051  1e-06  1.037301  0.0
H  H20  1  0.08108838  0.91671639  0.11386819  1  0.100017  9e-06  0.096067  0.121014  1.8e-05  1.031941  0.0
H  H21  1  0.58108440  0.08328466  0.38612375  1  0.09983  -9e-06  0.096039  0.121045  -1.8e-05  1.031981  0.0
H  H22  1  0.91891682  0.08327961  0.88613445  1  0.099957  8e-06  0.096043  0.121056  1.8e-05  1.031976  0.0
H  H23  1  0.41891770  0.91671940  0.61387451  1  0.099847  -8e-06  0.09604  0.121079  -1.8e-05  1.032035  0.0
H  H24  1  0.03303735  0.26593361  0.10370506  1  0.123481  -0.001269  0.123158  0.100023  -0.000784  0.971227  -0.001
H  H25  1  0.53303451  0.73406938  0.39629483  1  0.123429  0.001269  0.123158  0.100007  0.000784  0.971247  0.001
H  H26  1  0.96696889  0.73405883  0.89630594  1  0.122957  -0.00127  0.123153  0.099944  -0.000785  0.971155  -0.001
H  H27  1  0.46696863  0.26593756  0.60369879  1  0.123508  0.001269  0.123184  0.100044  0.000785  0.971224  0.001
H  H28  1  0.26511003  0.41854007  0.95020507  1  0.102762  -0.001059  0.119701  0.090033  -0.000591  0.99888  -0.001
H  H29  1  0.76511608  0.58146364  0.54979284  1  0.102837  0.001059  0.1197  0.090024  0.000591  0.998859  0.001
H  H30  1  0.73487763  0.58146045  0.04980348  1  0.103143  -0.001059  0.119662  0.089988  -0.000591  0.998905  -0.001
H  H31  1  0.23488500  0.41853960  0.45019950  1  0.102723  0.001059  0.119681  0.090025  0.000591  0.998853  0.001
H  H32  1  0.39491973  0.26338132  0.88792206  1  0.072068  -0.001462  0.119786  0.085811  -0.000699  1.01464  -0.001
H  H33  1  0.89492880  0.73661916  0.61207362  1  0.072108  0.001462  0.11982  0.085842  0.000699  1.014638  0.001
H  H34  1  0.60505555  0.73661684  0.11207646  1  0.071907  -0.001463  0.119821  0.0858  -0.0007  1.01477  -0.001
H  H35  1  0.10506402  0.26338419  0.38792709  1  0.072035  0.001462  0.119803  0.0858  0.000699  1.014615  0.001
H  H36  1  0.39303474  0.57765085  0.99746240  1  0.021835  -2.9e-05  0.086213  0.116383  -1.2e-05  1.01284  0.0
H  H37  1  0.89302551  0.42234519  0.50253058  1  0.022047  3e-05  0.086214  0.116387  1.2e-05  1.012709  0.0
H  H38  1  0.60697872  0.42234659  0.00253664  1  0.021951  -2.9e-05  0.086179  0.116347  -1.2e-05  1.012765  0.0
H  H39  1  0.10698898  0.57765513  0.49746446  1  0.022029  3e-05  0.086139  0.116297  1.2e-05  1.012814  0.0
H  H40  1  0.21922306  0.56716086  0.03288557  1  0.047536  -7.2e-05  0.092745  0.128885  -4.1e-05  1.012794  0.0
H  H41  1  0.71921296  0.43284141  0.46710942  1  0.047116  7.3e-05  0.092794  0.128933  4.1e-05  1.012887  0.0
H  H42  1  0.78078833  0.43283588  0.96711655  1  0.047132  -7.2e-05  0.092805  0.128982  -4.1e-05  1.012981  0.0
H  H43  1  0.28079740  0.56716261  0.53288627  1  0.046998  7.2e-05  0.09278  0.128952  4.1e-05  1.012914  0.0
H  H44  1  0.34849509  0.60932001  0.11067621  1  0.046737  -0.000246  0.088076  0.119158  -0.000127  0.996274  0.0
H  H45  1  0.84848732  0.39067608  0.38931539  1  0.046746  0.000246  0.088065  0.119143  0.000127  0.996231  0.0
H  H46  1  0.65151836  0.39067965  0.88932449  1  0.046895  -0.000246  0.088068  0.119186  -0.000127  0.996184  0.0
H  H47  1  0.15152614  0.60932052  0.61067644  1  0.046966  0.000246  0.088085  0.119189  0.000127  0.996298  0.0
H  H48  1  0.01332448  0.78141632  0.17600362  1  0.031678  4.6e-05  0.083409  0.118106  3.2e-05  1.040694  0.0
H  H49  1  0.51331598  0.21858744  0.32398738  1  0.031746  -4.6e-05  0.083389  0.118044  -3.2e-05  1.040803  0.0
H  H50  1  0.98668279  0.21857812  0.82399233  1  0.031526  4.6e-05  0.083406  0.11805  3.2e-05  1.040837  0.0
H  H51  1  0.48668200  0.78141966  0.67601783  1  0.031727  -4.7e-05  0.083457  0.11815  -3.3e-05  1.040726  0.0
H  H52  1  0.15695290  0.71368991  0.20141891  1  0.035625  -0.000108  0.088702  0.124928  -6.4e-05  0.991992  0.0
H  H53  1  0.65694734  0.28631207  0.29857527  1  0.036153  0.000108  0.088689  0.124877  6.4e-05  0.991971  0.0
H  H54  1  0.84304714  0.28630233  0.79857794  1  0.035366  -0.000108  0.08872  0.124925  -6.4e-05  0.991985  0.0
H  H55  1  0.34304651  0.71369721  0.70142775  1  0.036026  0.000108  0.088735  0.12492  6.4e-05  0.991875  0.0
H  H56  1  0.04703606  0.66071649  0.11421970  1  0.03853  -4.4e-05  0.088698  0.124912  -1.4e-05  1.010243  0.0
H  H57  1  0.54702908  0.33928854  0.38577480  1  0.038462  4.4e-05  0.088693  0.12488  1.4e-05  1.010151  0.0
H  H58  1  0.95296811  0.33928015  0.88577535  1  0.03826  -4.4e-05  0.088673  0.124818  -1.4e-05  1.010156  0.0
H  H59  1  0.45296993  0.66071638  0.61423260  1  0.03804  4.4e-05  0.088687  0.124841  1.4e-05  1.010092  0.0
C  C60  1  0.56441762  0.10674121  0.78947302  1  0.526933  -0.000577  0.068885  0.079082  -0.001164  3.91214  -0.001
C  C61  1  0.06441524  0.89325884  0.71052451  1  0.526067  0.000577  0.068877  0.079051  0.001164  3.911968  0.001
C  C62  1  0.43557314  0.89325622  0.21052537  1  0.527347  -0.000578  0.068927  0.079064  -0.001165  3.912277  -0.001
C  C63  1  0.93557861  0.10674450  0.28947491  1  0.526897  0.000578  0.068836  0.078986  0.001165  3.912052  0.001
C  C64  1  0.66256127  0.08328660  0.72296513  1  0.538791  -0.004284  0.069026  0.089566  -0.003051  3.884968  -0.004
C  C65  1  0.16255887  0.91671644  0.77703568  1  0.538921  0.004284  0.069067  0.089691  0.003051  3.884849  0.004
C  C66  1  0.33743464  0.91671385  0.27703828  1  0.538714  -0.004284  0.069034  0.089529  -0.003051  3.885061  -0.004
C  C67  1  0.83743911  0.08328393  0.22296258  1  0.539328  0.004284  0.069082  0.089696  0.003051  3.884893  0.004
C  C68  1  0.68012813  0.92712631  0.74981840  1  0.5246  -0.002297  0.06062  0.048455  -0.001649  3.898377  -0.001
C  C69  1  0.18012444  0.07287507  0.75017830  1  0.52488  0.002298  0.060603  0.048559  0.001649  3.898459  0.001
C  C70  1  0.31986160  0.07287329  0.25017716  1  0.524263  -0.002298  0.060592  0.048533  -0.001649  3.898316  -0.001
C  C71  1  0.81986735  0.92712615  0.24982781  1  0.524275  0.002299  0.060576  0.048569  0.001649  3.898343  0.001
C  C72  1  0.57885441  0.94837465  0.81430899  1  0.460902  0.00143  0.120734  0.09127  0.001033  3.919923  0.001
C  C73  1  0.07885485  0.05162604  0.68568932  1  0.460845  -0.00143  0.120828  0.091351  -0.001033  3.920003  -0.001
C  C74  1  0.42114048  0.05162499  0.18568914  1  0.461328  0.001432  0.120705  0.091131  0.001035  3.919847  0.001
C  C75  1  0.92114416  0.94837809  0.31431409  1  0.461  -0.001431  0.120771  0.091264  -0.001034  3.91993  -0.001
C  C76  1  0.52760186  0.87071392  0.86104219  1  1.434033  0.001304  0.209395  0.406812  -0.000675  4.235648  0.001
C  C77  1  0.02760084  0.12928936  0.63895583  1  1.434065  -0.001303  0.2095  0.407061  0.000676  4.235526  -0.001
C  C78  1  0.47238684  0.12928940  0.13895594  1  1.433832  0.001302  0.209505  0.407103  -0.000676  4.235417  0.001
C  C79  1  0.97239611  0.87071331  0.36104861  1  1.434212  -0.001303  0.209446  0.40696  0.000677  4.235534  -0.001
C  C80  1  0.34639487  0.85597963  0.96783459  1  0.357624  -0.003189  0.075907  0.149343  -0.00319  4.078724  -0.001
C  C81  1  0.84638915  0.14401899  0.53215938  1  0.357415  0.003192  0.075926  0.149322  0.003191  4.078577  0.001
C  C82  1  0.65360724  0.14401557  0.03216277  1  0.357743  -0.003192  0.075981  0.149549  -0.003192  4.078866  -0.001
C  C83  1  0.15361296  0.85598434  0.46783939  1  0.357753  0.003191  0.075932  0.149248  0.003192  4.078582  0.001
C  C84  1  0.36649875  0.75789483  0.97617330  1  -0.014548  -0.003721  -0.11354  -0.248192  -0.002956  3.98452  -0.003
C  C85  1  0.86649144  0.24210436  0.52382017  1  -0.014233  0.003721  -0.113599  -0.248253  0.002956  3.984208  0.003
C  C86  1  0.63350438  0.24210038  0.02382470  1  -0.014687  -0.003722  -0.113608  -0.248368  -0.002957  3.984574  -0.003
C  C87  1  0.13351479  0.75789747  0.47617706  1  -0.014572  0.003722  -0.113693  -0.248325  0.002956  3.984318  0.003
C  C88  1  0.28674870  0.71681508  0.03443242  1  -0.062533  -0.001658  -0.028131  0.092681  -0.001086  3.994703  -0.001
C  C89  1  0.78673888  0.28318367  0.46555824  1  -0.062614  0.001659  -0.027988  0.092941  0.001086  3.994385  0.001
C  C90  1  0.71326062  0.28318017  0.96556816  1  -0.062542  -0.001659  -0.028079  0.092819  -0.001086  3.994585  -0.001
C  C91  1  0.21326838  0.71682035  0.53443744  1  -0.062525  0.001659  -0.02799  0.092925  0.001086  3.994296  0.001
C  C92  1  0.18211555  0.77393038  0.08430905  1  0.005774  -0.000842  -0.024226  0.093847  -0.000549  3.993926  -0.001
C  C93  1  0.68210844  0.22606695  0.41568180  1  0.005533  0.000842  -0.024267  0.093637  0.000549  3.994147  0.001
C  C94  1  0.81789068  0.22606038  0.91568754  1  0.005784  -0.000842  -0.024311  0.09371  -0.000549  3.993975  -0.001
C  C95  1  0.31789779  0.77393861  0.58431865  1  0.005658  0.000842  -0.024283  0.093646  0.000549  3.994036  0.001
C  C96  1  0.16029394  0.87151455  0.07543135  1  -0.038012  -0.004623  -0.110937  -0.238858  -0.003572  3.957946  -0.004
C  C97  1  0.66028326  0.12848664  0.42456077  1  -0.038055  0.004624  -0.110914  -0.238884  0.003572  3.958176  0.004
C  C98  1  0.83971435  0.12847920  0.92456833  1  -0.038188  -0.004625  -0.110871  -0.238855  -0.003572  3.957976  -0.004
C  C99  1  0.33971782  0.87151818  0.57543955  1  -0.038136  0.004624  -0.110924  -0.238956  0.003572  3.958438  0.004
C  C100  1  0.24171891  0.91415062  0.01869268  1  0.379457  -0.002833  0.082948  0.168624  -0.003098  4.041588  -0.001
C  C101  1  0.74171435  0.08584777  0.48130040  1  0.379404  0.002832  0.082871  0.168598  0.003099  4.041531  0.001
C  C102  1  0.75828629  0.08584170  0.98130932  1  0.379643  -0.002834  0.082884  0.168534  -0.003099  4.041565  -0.001
C  C103  1  0.25829085  0.91415557  0.51869902  1  0.379423  0.002833  0.082899  0.168673  0.0031  4.0415  0.001
C  C104  1  0.15667789  0.08512233  0.05150667  1  1.420036  0.001486  0.215661  0.421054  -0.000617  4.206875  0.001
C  C105  1  0.65667557  0.91487673  0.44848828  1  1.420095  -0.001485  0.215702  0.42105  0.000617  4.206854  -0.001
C  C106  1  0.84332937  0.91486777  0.94849494  1  1.41995  0.001482  0.215801  0.421178  -0.000617  4.206526  0.001
C  C107  1  0.34333170  0.08512953  0.55150907  1  1.419922  -0.001484  0.215778  0.421245  0.000616  4.206727  -0.001
C  C108  1  0.18520786  0.17946369  0.02121166  1  0.503164  0.001894  0.128796  0.10029  0.001373  3.906762  0.002
C  C109  1  0.68520821  0.82053813  0.47878576  1  0.503578  -0.001895  0.128814  0.100338  -0.001372  3.90661  -0.002
C  C110  1  0.81478909  0.82053015  0.97879446  1  0.503172  0.001893  0.128803  0.100217  0.001373  3.906508  0.002
C  C111  1  0.31479080  0.17946741  0.52121276  1  0.503368  -0.001894  0.12876  0.100307  -0.001372  3.906783  -0.002
C  C112  1  0.11404484  0.26716052  0.05539107  1  0.552392  -0.001979  0.069799  0.059855  -0.001514  3.898381  -0.001
C  C113  1  0.61404124  0.73284261  0.44460900  1  0.55236  0.001979  0.069862  0.059928  0.001513  3.898183  0.001
C  C114  1  0.88595520  0.73283186  0.94461607  1  0.552677  -0.001979  0.069894  0.060171  -0.001514  3.89808  -0.001
C  C115  1  0.38595468  0.26716441  0.55538977  1  0.552302  0.001979  0.069866  0.059907  0.001514  3.898172  0.001
C  C116  1  0.24115426  0.34987248  0.97110047  1  0.554167  -0.003972  0.051954  0.040115  -0.002908  3.968845  -0.003
C  C117  1  0.74116014  0.65012991  0.52889652  1  0.553039  0.003973  0.052042  0.04024  0.002908  3.968845  0.003
C  C118  1  0.75883134  0.65012429  0.02890422  1  0.553452  -0.003973  0.052028  0.040327  -0.002908  3.968861  -0.003
C  C119  1  0.25883990  0.34987336  0.47109839  1  0.553955  0.003972  0.052008  0.040232  0.002907  3.968872  0.003
C  C120  1  0.31302602  0.26362234  0.93576399  1  0.459482  0.000201  0.053217  0.048118  -0.000659  3.944718  0.0
C  C121  1  0.81302763  0.73637954  0.56423498  1  0.459476  -0.000201  0.053192  0.04809  0.000659  3.944757  0.0
C  C122  1  0.68695855  0.73637512  0.06423762  1  0.459807  0.000202  0.053154  0.048044  -0.000659  3.944935  0.0
C  C123  1  0.18696622  0.26362604  0.43576675  1  0.459621  -0.000202  0.053187  0.048063  0.000659  3.944787  0.0
C  C124  1  0.31346460  0.61244762  0.04394267  1  -0.088982  -0.000634  -0.239458  -0.401597  -0.000474  3.994208  0.0
C  C125  1  0.81345515  0.38755096  0.45604993  1  -0.088763  0.000633  -0.239503  -0.401656  0.000473  3.994169  0.0
C  C126  1  0.68654782  0.38754984  0.95605829  1  -0.088766  -0.000634  -0.239441  -0.401663  -0.000474  3.99432  0.0
C  C127  1  0.18655314  0.61244861  0.54394369  1  -0.088859  0.000633  -0.239428  -0.401634  0.000474  3.994373  0.0
C  C128  1  0.09537957  0.73065290  0.14692696  1  -0.058551  -0.000607  -0.245257  -0.400047  -0.00044  3.977458  0.0
C  C129  1  0.59537146  0.26934806  0.35306628  1  -0.059114  0.000608  -0.245225  -0.399839  0.00044  3.977279  0.0
C  C130  1  0.90462563  0.26934008  0.85307002  1  -0.057708  -0.000607  -0.245237  -0.399866  -0.000439  3.977366  0.0
C  C131  1  0.40462755  0.73065757  0.64693931  1  -0.058602  0.000608  -0.245339  -0.399953  0.00044  3.977087  0.0
N  N132  1  0.52178045  0.03977562  0.83425317  1  -1.195352  -0.060604  -0.32387  -0.21171  -0.04386  3.594074  -0.054
N  N133  1  0.02177885  0.96022768  0.66574355  1  -1.194569  0.060605  -0.323864  -0.21176  0.043862  3.594204  0.054
N  N134  1  0.47821134  0.96022404  0.16574689  1  -1.195632  -0.060607  -0.323927  -0.211747  -0.043862  3.594318  -0.054
N  N135  1  0.97821913  0.03977640  0.33425663  1  -1.195048  0.060607  -0.32384  -0.21172  0.043864  3.594229  0.054
N  N136  1  0.42112530  0.90527533  0.91395379  1  -1.244532  -0.138855  -0.400967  -0.439302  -0.094172  3.673232  -0.116
N  N137  1  0.92112270  0.09472496  0.58604190  1  -1.24424  0.13886  -0.401013  -0.439426  0.094176  3.673133  0.116
N  N138  1  0.57887474  0.09472353  0.08604163  1  -1.244189  -0.13887  -0.401003  -0.439546  -0.094182  3.673126  -0.116
N  N139  1  0.07887941  0.90527918  0.41396215  1  -1.244332  0.138865  -0.400993  -0.439294  0.094176  3.672996  0.116
N  N140  1  0.23443211  0.01088536  0.00704072  1  -1.221856  -0.145384  -0.39435  -0.412231  -0.098739  3.616136  -0.121
N  N141  1  0.73442884  0.98911459  0.49295454  1  -1.221582  0.145378  -0.39433  -0.412138  0.098737  3.616109  0.121
N  N142  1  0.76556793  0.98910991  0.99296115  1  -1.221911  -0.145377  -0.394456  -0.412456  -0.098737  3.616105  -0.121
N  N143  1  0.26557223  0.01088948  0.50704436  1  -1.221525  0.14538  -0.394369  -0.412336  0.098739  3.616107  0.121
N  N144  1  0.28442066  0.17845046  0.96017313  1  -1.216383  -0.059527  -0.327637  -0.209066  -0.043013  3.606454  -0.053
N  N145  1  0.78442389  0.82155088  0.53982376  1  -1.216866  0.059526  -0.327693  -0.209138  0.043012  3.606545  0.053
N  N146  1  0.71557216  0.82154406  0.03982861  1  -1.216134  -0.059522  -0.327621  -0.208969  -0.043011  3.606493  -0.053
N  N147  1  0.21557408  0.17845394  0.46017591  1  -1.216384  0.059522  -0.327684  -0.209151  0.04301  3.606605  0.053
N  N148  1  0.72008709  0.99365996  0.70338486  1  -1.186635  0.000471  -0.310559  -0.204172  0.000688  3.496498  0.002
N  N149  1  0.22008160  0.00634188  0.79661328  1  -1.186848  -0.000472  -0.31065  -0.204358  -0.000688  3.496611  -0.002
N  N150  1  0.27990883  0.00634117  0.29661482  1  -1.186488  0.000472  -0.310586  -0.204208  0.000688  3.49657  0.002
N  N151  1  0.77991432  0.99366076  0.20338922  1  -1.187215  -0.00047  -0.310619  -0.20436  -0.000688  3.496401  -0.002
N  N152  1  0.14080042  0.35229091  0.03085850  1  -1.154066  0.002265  -0.301874  -0.217894  0.001555  3.271659  0.002
N  N153  1  0.64080035  0.64771277  0.46914236  1  -1.152859  -0.002266  -0.301984  -0.218027  -0.001555  3.271697  -0.002
N  N154  1  0.85919962  0.64770598  0.96915457  1  -1.153792  0.002265  -0.301979  -0.218234  0.001555  3.271701  0.002
N  N155  1  0.35920072  0.35229269  0.53085100  1  -1.154065  -0.002265  -0.301954  -0.21801  -0.001555  3.271562  -0.002
O  O156  1  0.58267500  0.78692559  0.84711204  1  -1.140046  -0.024359  -0.317129  -0.490903  -0.016253  2.08935  -0.02
O  O157  1  0.08266448  0.21306986  0.65288280  1  -1.140317  0.024355  -0.317142  -0.49094  0.01625  2.089549  0.02
O  O158  1  0.41731679  0.21306587  0.15288146  1  -1.140108  -0.024348  -0.317107  -0.490895  -0.016246  2.089653  -0.02
O  O159  1  0.91733453  0.78693499  0.34711945  1  -1.140334  0.02435  -0.317065  -0.490846  0.016247  2.089706  0.02
O  O160  1  0.07255789  0.08382836  0.11239061  1  -1.145877  -0.024975  -0.310299  -0.503686  -0.016664  2.139767  -0.021
O  O161  1  0.57255420  0.91617208  0.38760570  1  -1.146061  0.024972  -0.310379  -0.503785  0.016662  2.139774  0.021
O  O162  1  0.92744422  0.91615591  0.88761577  1  -1.14612  -0.02496  -0.310354  -0.50366  -0.016653  2.139853  -0.021
O  O163  1  0.42744791  0.08383566  0.61239255  1  -1.146066  0.024966  -0.310338  -0.503749  0.016658  2.139661  0.021
