# generated using pymatgen
data_LaH7C8O9
_symmetry_space_group_name_H-M   'P 1'
_cell_length_a   7.14735319
_cell_length_b   8.13254479
_cell_length_c   9.38262571
_cell_angle_alpha   67.70031998
_cell_angle_beta   86.35250114
_cell_angle_gamma   83.61786092
_symmetry_Int_Tables_number   1
_chemical_formula_structural   LaH7C8O9
_chemical_formula_sum   'La2 H14 C16 O18'
_cell_volume   501.32497079
_cell_formula_units_Z   2
loop_
 _symmetry_equiv_pos_site_id
 _symmetry_equiv_pos_as_xyz
  1  'x, y, z'
loop_
 _atom_site_type_symbol
 _atom_site_label
 _atom_site_symmetry_multiplicity
 _atom_site_fract_x
 _atom_site_fract_y
 _atom_site_fract_z
 _atom_site_occupancy
 _atom_site_hle17_bader_spin_density
 _atom_site_hle17_ddec_charge
 _atom_site_hle17_ddec_spin_density
 _atom_site_hle17_ddec_sum_bond_order
 _atom_site_hle17_magmom
 _atom_site_hse06_10hf_bader_spin_density
 _atom_site_hse06_10hf_ddec_charge
 _atom_site_hse06_10hf_ddec_spin_density
 _atom_site_hse06_10hf_ddec_sum_bond_order
 _atom_site_hse06_10hf_magmom
 _atom_site_hse06_bader_spin_density
 _atom_site_hse06_ddec_charge
 _atom_site_hse06_ddec_spin_density
 _atom_site_hse06_ddec_sum_bond_order
 _atom_site_hse06_magmom
 _atom_site_pbe_bader_spin_density
 _atom_site_pbe_cm5_charge
 _atom_site_pbe_ddec_charge
 _atom_site_pbe_ddec_spin_density
 _atom_site_pbe_ddec_sum_bond_order
 _atom_site_pbe_magmom
La  La0  1  0.24687208  0.50907038  0.86146862  1  0  2.164074  0  1.748402  0  0  2.037678  0  2.276442  0  0  2.142775  0  2.16987  0  0  1.411034  1.958187  0  2.351963  0
La  La1  1  0.75312770  0.49092926  0.13853186  1  0  2.164076  0  1.748413  0  0  2.037677  0  2.276455  0  0  2.142772  0  2.169886  0  0  1.41104  1.958184  0  2.351978  0
H  H2  1  0.32288881  0.59437722  0.36215318  1  0  0.118306  0  0.907109  0  0  0.128143  0  0.961735  0  0  0.131803  0  0.95966  0  0  0.126685  0.125518  0  0.963474  0
H  H3  1  0.67711096  0.40562242  0.63784730  1  0  0.118308  0  0.907118  0  0  0.128148  0  0.961742  0  0  0.131808  0  0.959668  0  0  0.126687  0.125524  0  0.96348  0
H  H4  1  0.36056905  0.94415401  0.08535358  1  0  0.108324  0  0.905392  0  0  0.119726  0  0.959108  0  0  0.122323  0  0.957949  0  0  0.119078  0.117858  0  0.960052  0
H  H5  1  0.63943072  0.05584562  0.91464584  1  0  0.108322  0  0.905394  0  0  0.119721  0  0.95911  0  0  0.122318  0  0.957952  0  0  0.119078  0.117853  0  0.960055  0
H  H6  1  0.25268700  0.95949159  0.39896059  1  0  0.114051  0  0.907529  0  0  0.124859  0  0.961171  0  0  0.128049  0  0.959873  0  0  0.120402  0.122644  0  0.962245  0
H  H7  1  0.74731417  0.04050804  0.60103876  1  0  0.114065  0  0.907514  0  0  0.124869  0  0.961164  0  0  0.128059  0  0.959866  0  0  0.120406  0.122654  0  0.962238  0
H  H8  1  0.95926357  0.83212473  0.24898061  1  0  0.115535  0  0.941645  0  0  0.120044  0  1.003832  0  0  0.124404  0  1.00098  0  0  0.115368  0.116634  0  1.006407  0
H  H9  1  0.04073761  0.16787491  0.75101980  1  0  0.115535  0  0.941622  0  0  0.120046  0  1.003809  0  0  0.124407  0  1.000955  0  0  0.115372  0.116636  0  1.006384  0
H  H10  1  0.58424092  0.72702538  0.77824008  1  0  0.424509  0  0.881028  0  0  0.395307  0  0.943805  0  0  0.405642  0  0.928999  0  0  0.303516  0.387886  0  0.954413  0
H  H11  1  0.41575885  0.27297425  0.22175934  1  0  0.424514  0  0.881025  0  0  0.39531  0  0.943805  0  0  0.405644  0  0.929  0  0  0.303522  0.387888  0  0.954414  0
H  H12  1  0.43067670  0.86444119  0.67739401  1  0  0.437973  0  0.858771  0  0  0.407068  0  0.922314  0  0  0.418209  0  0.90617  0  0  0.302351  0.399137  0  0.93376  0
H  H13  1  0.56932307  0.13555844  0.32260541  1  0  0.437987  0  0.858739  0  0  0.407085  0  0.922285  0  0  0.418225  0  0.906141  0  0  0.302351  0.399153  0  0.933731  0
H  H14  1  0.76416993  0.81308222  0.45121460  1  0  0.400817  0  0.900491  0  0  0.36478  0  0.985754  0  0  0.378221  0  0.968873  0  0  0.303068  0.355478  0  0.995125  0
H  H15  1  0.23583124  0.18691742  0.54878581  1  0  0.400737  0  0.900588  0  0  0.364746  0  0.985776  0  0  0.378187  0  0.968917  0  0  0.303053  0.355443  0  0.995147  0
C  C16  1  0.23278546  0.62881012  0.14172936  1  0  0.734627  0  3.79075  0  0  0.685646  0  4.089615  0  0  0.723194  0  4.081273  0  0  0.239147  0.659515  0  4.094622  0
C  C17  1  0.76721431  0.37118952  0.85827112  1  0  0.734635  0  3.790808  0  0  0.685651  0  4.089679  0  0  0.7232  0  4.081336  0  0  0.239157  0.659521  0  4.094685  0
C  C18  1  0.55816001  0.84082160  0.26688812  1  0  0.722934  0  3.79472  0  0  0.667902  0  4.103015  0  0  0.703326  0  4.09339  0  0  0.241426  0.643683  0  4.108831  0
C  C19  1  0.44183964  0.15917938  0.73311298  1  0  0.722893  0  3.79477  0  0  0.667867  0  4.103066  0  0  0.703292  0  4.093443  0  0  0.241407  0.643649  0  4.10888  0
C  C20  1  0.11690690  0.14550730  0.19916559  1  0  0.726905  0  3.814114  0  0  0.674942  0  4.124221  0  0  0.711341  0  4.115292  0  0  0.235009  0.64984  0  4.129587  0
C  C21  1  0.88309288  0.85449234  0.80083489  1  0  0.72694  0  3.814176  0  0  0.674989  0  4.124259  0  0  0.711388  0  4.115329  0  0  0.235056  0.649887  0  4.129625  0
C  C22  1  0.03123469  0.70726553  0.48964223  1  0  0.719159  0  3.724828  0  0  0.667999  0  4.029028  0  0  0.703234  0  4.019464  0  0  0.253066  0.643494  0  4.035663  0
C  C23  1  0.96876509  0.29273411  0.51035825  1  0  0.719084  0  3.724876  0  0  0.667909  0  4.029104  0  0  0.703144  0  4.019543  0  0  0.253032  0.643404  0  4.035738  0
C  C24  1  0.25345798  0.70231167  0.26416332  1  0  -0.136969  0  3.547515  0  0  -0.147692  0  3.783311  0  0  -0.152701  0  3.79232  0  0  -0.06914  -0.144471  0  3.77783  0
C  C25  1  0.74654179  0.29768796  0.73583610  1  0  -0.137015  0  3.547568  0  0  -0.147744  0  3.783367  0  0  -0.152755  0  3.792378  0  0  -0.069161  -0.144524  0  3.777888  0
C  C26  1  0.35866308  0.87476915  0.21126322  1  0  -0.138839  0  3.556557  0  0  -0.153546  0  3.800981  0  0  -0.157064  0  3.809279  0  0  -0.074756  -0.151024  0  3.795323  0
C  C27  1  0.64133670  0.12523049  0.78873727  1  0  -0.138821  0  3.556572  0  0  -0.153521  0  3.800991  0  0  -0.157037  0  3.809285  0  0  -0.074751  -0.150998  0  3.795332  0
C  C28  1  0.20238477  0.95819908  0.29099300  1  0  -0.132651  0  3.526835  0  0  -0.142886  0  3.763193  0  0  -0.147199  0  3.771637  0  0  -0.07494  -0.140158  0  3.757986  0
C  C29  1  0.79761501  0.04180055  0.70900642  1  0  -0.132694  0  3.526876  0  0  -0.142929  0  3.763226  0  0  -0.147242  0  3.77167  0  0  -0.074961  -0.140204  0  3.758024  0
C  C30  1  0.08296750  0.79721026  0.32145288  1  0  -0.156696  0  3.544735  0  0  -0.16862  0  3.778176  0  0  -0.173595  0  3.786607  0  0  -0.079655  -0.165225  0  3.77328  0
C  C31  1  0.91703227  0.20278937  0.67854654  1  0  -0.156636  0  3.544724  0  0  -0.168553  0  3.778169  0  0  -0.173526  0  3.786598  0  0  -0.079642  -0.165158  0  3.773275  0
O  O32  1  0.38343702  0.59953387  0.06971169  1  0  -0.73327  0  2.02062  0  0  -0.679669  0  2.279655  0  0  -0.716939  0  2.271794  0  0  -0.377398  -0.652445  0  2.284084  0
O  O33  1  0.61656275  0.40046576  0.93028773  1  0  -0.733255  0  2.020615  0  0  -0.679658  0  2.27966  0  0  -0.716928  0  2.271799  0  0  -0.377397  -0.652436  0  2.284089  0
O  O34  1  0.23380357  0.25195695  0.11217405  1  0  -0.731196  0  2.065441  0  0  -0.677995  0  2.325835  0  0  -0.712011  0  2.315856  0  0  -0.378037  -0.6531  0  2.331491  0
O  O35  1  0.76619621  0.74804269  0.88782643  1  0  -0.731212  0  2.065447  0  0  -0.67801  0  2.325827  0  0  -0.712032  0  2.31586  0  0  -0.37805  -0.653115  0  2.331481  0
O  O36  1  0.67033246  0.73495444  0.22442940  1  0  -0.705583  0  2.035555  0  0  -0.664511  0  2.310889  0  0  -0.698621  0  2.299873  0  0  -0.400444  -0.639643  0  2.317367  0
O  O37  1  0.32966718  0.26504653  0.77556958  1  0  -0.705568  0  2.035579  0  0  -0.664504  0  2.310925  0  0  -0.698611  0  2.299904  0  0  -0.400449  -0.639636  0  2.317402  0
O  O38  1  0.94353252  0.18611289  0.21482521  1  0  -0.664482  0  1.974194  0  0  -0.623821  0  2.227621  0  0  -0.655996  0  2.21944  0  0  -0.357416  -0.600614  0  2.232505  0
O  O39  1  0.05646726  0.81388676  0.78517633  1  0  -0.664488  0  1.97424  0  0  -0.623844  0  2.227674  0  0  -0.656019  0  2.219492  0  0  -0.357432  -0.600636  0  2.232556  0
O  O40  1  0.47150395  0.73442595  0.71879820  1  0  -0.877392  0  1.842233  0  0  -0.837022  0  2.038861  0  0  -0.863871  0  2.007326  0  0  -0.64404  -0.817387  0  2.06074  0
O  O41  1  0.52849582  0.26557368  0.28120122  1  0  -0.877402  0  1.842201  0  0  -0.837039  0  2.038815  0  0  -0.863889  0  2.00728  0  0  -0.644048  -0.817403  0  2.060695  0
O  O42  1  0.15387952  0.61306791  0.58254404  1  0  -0.636457  0  2.004645  0  0  -0.594282  0  2.259751  0  0  -0.624864  0  2.250642  0  0  -0.343325  -0.572163  0  2.265502  0
O  O43  1  0.84612025  0.38693172  0.41745538  1  0  -0.636414  0  2.004648  0  0  -0.59424  0  2.259767  0  0  -0.62482  0  2.250659  0  0  -0.343299  -0.57212  0  2.265516  0
O  O44  1  0.07337104  0.59903919  0.10897456  1  0  -0.731449  0  2.075852  0  0  -0.682888  0  2.34496  0  0  -0.720173  0  2.336099  0  0  -0.376691  -0.655457  0  2.349785  0
O  O45  1  0.92662874  0.40096045  0.89102593  1  0  -0.731457  0  2.075886  0  0  -0.682909  0  2.345026  0  0  -0.720196  0  2.336167  0  0  -0.376701  -0.655478  0  2.349849  0
O  O46  1  0.60525880  0.91261284  0.35700001  1  0  -0.608006  0  2.041884  0  0  -0.542297  0  2.261231  0  0  -0.567105  0  2.24745  0  0  -0.290759  -0.525288  0  2.269857  0
O  O47  1  0.39474097  0.08738680  0.64300047  1  0  -0.60795  0  2.04189  0  0  -0.54227  0  2.26122  0  0  -0.567079  0  2.247446  0  0  -0.290746  -0.525262  0  2.269847  0
O  O48  1  0.85957345  0.73515311  0.53841724  1  0  -0.534238  0  2.114654  0  0  -0.478862  0  2.339239  0  0  -0.502374  0  2.323881  0  0  -0.303546  -0.462892  0  2.348145  0
O  O49  1  0.14042619  0.26484786  0.46158174  1  0  -0.534166  0  2.114699  0  0  -0.478802  0  2.339233  0  0  -0.502316  0  2.323893  0  0  -0.303527  -0.462832  0  2.348137  0
