# generated using pymatgen
data_Pr2Cu3H24(C4O5)6
_symmetry_space_group_name_H-M   'P 1'
_cell_length_a   14.32013616
_cell_length_b   15.17729447
_cell_length_c   15.17730199
_cell_angle_alpha   120.00033031
_cell_angle_beta   89.99991979
_cell_angle_gamma   90.00000072
_symmetry_Int_Tables_number   1
_chemical_formula_structural   Pr2Cu3H24(C4O5)6
_chemical_formula_sum   'Pr4 Cu6 H48 C48 O60'
_cell_volume   2856.70417402
_cell_formula_units_Z   2
loop_
 _symmetry_equiv_pos_site_id
 _symmetry_equiv_pos_as_xyz
  1  'x, y, z'
loop_
 _atom_site_type_symbol
 _atom_site_label
 _atom_site_symmetry_multiplicity
 _atom_site_fract_x
 _atom_site_fract_y
 _atom_site_fract_z
 _atom_site_occupancy
 _atom_site_pbe_bader_charge
 _atom_site_pbe_bader_spin_density
 _atom_site_pbe_cm5_charge
 _atom_site_pbe_ddec_charge
 _atom_site_pbe_ddec_spin_density
 _atom_site_pbe_ddec_sum_bond_order
 _atom_site_pbe_magmom
Pr  Pr0  1  0.24999922  0.33333327  0.66666740  1  2.283226  -0.000657  1.507755  2.034557  -0.001473  2.16402  -0.001
Pr  Pr1  1  0.25000017  0.66666680  0.33333288  1  2.283158  -0.000656  1.507719  2.034511  -0.001473  2.164058  -0.001
Pr  Pr2  1  0.75000100  0.66666724  0.33333310  1  2.283182  -0.000657  1.507726  2.034525  -0.001473  2.164049  -0.001
Pr  Pr3  1  0.74999936  0.33333239  0.66666630  1  2.283132  -0.000656  1.507743  2.034544  -0.001473  2.164072  -0.001
Cu  Cu4  1  0.00000033  0.99999965  0.49999970  1  1.119745  0.586857  0.733447  0.961464  0.743199  2.04493  0.588
Cu  Cu5  1  0.99999996  0.49999970  0.99999916  1  1.119297  0.586854  0.73339  0.961389  0.743202  2.045076  0.588
Cu  Cu6  1  0.00000033  0.50000028  0.50000088  1  1.120384  0.586836  0.733456  0.961459  0.743201  2.04489  0.588
Cu  Cu7  1  0.50000009  0.49999910  0.99999910  1  1.119752  0.586856  0.733441  0.961458  0.743197  2.044916  0.588
Cu  Cu8  1  0.49999977  0.00000009  0.49999992  1  1.119293  0.586854  0.733415  0.961467  0.743202  2.045002  0.588
Cu  Cu9  1  0.49999977  0.49999979  0.49999940  1  1.120371  0.586836  0.733428  0.961453  0.743202  2.044924  0.588
H  H10  1  0.84542198  0.35691207  0.20690416  1  0.088582  -0.000206  0.116883  0.103448  -0.000288  0.948665  0.0
H  H11  1  0.75026360  0.37052085  0.29000882  1  0.077725  -0.000105  0.110715  0.093053  -0.000126  0.996121  0.0
H  H12  1  0.84542235  0.84999448  0.64308799  1  0.073467  -0.000205  0.116896  0.103469  -0.000288  0.948679  0.0
H  H13  1  0.75026405  0.91949032  0.62947869  1  0.082173  -0.000105  0.110699  0.093065  -0.000126  0.996122  0.0
H  H14  1  0.84541993  0.79309637  0.15000822  1  0.074896  -0.000204  0.116881  0.103444  -0.000288  0.948676  0.0
H  H15  1  0.75026306  0.70998914  0.08051188  1  0.070902  -0.000103  0.110723  0.093054  -0.000126  0.996131  0.0
H  H16  1  0.84542224  0.64308710  0.79309545  1  0.088587  -0.000206  0.116882  0.103457  -0.000288  0.948687  0.0
H  H17  1  0.75026469  0.62947879  0.70999058  1  0.07737  -0.000105  0.110718  0.093074  -0.000126  0.996137  0.0
H  H18  1  0.84542117  0.15000649  0.35691114  1  0.073448  -0.000205  0.116887  0.103431  -0.000288  0.948687  0.0
H  H19  1  0.75026424  0.08051007  0.37051995  1  0.082168  -0.000105  0.110709  0.093057  -0.000126  0.996096  0.0
H  H20  1  0.84542010  0.20690413  0.84999271  1  0.074906  -0.000204  0.116886  0.103457  -0.000288  0.948676  0.0
H  H21  1  0.75026244  0.29001078  0.91948855  1  0.070871  -0.000103  0.110709  0.093051  -0.000126  0.996115  0.0
H  H22  1  0.65457801  0.20690426  0.35691208  1  0.088584  -0.000206  0.116882  0.103444  -0.000288  0.948668  0.0
H  H23  1  0.74973631  0.29000885  0.37052075  1  0.077007  -0.000105  0.110714  0.093048  -0.000126  0.996125  0.0
H  H24  1  0.65457904  0.64308897  0.84999355  1  0.073452  -0.000205  0.116881  0.103426  -0.000288  0.948694  0.0
H  H25  1  0.74973591  0.62947952  0.91948921  1  0.082174  -0.000105  0.110714  0.093064  -0.000126  0.996099  0.0
H  H26  1  0.65457978  0.15000709  0.79309579  1  0.074901  -0.000204  0.116886  0.103468  -0.000288  0.948679  0.0
H  H27  1  0.74973746  0.08051062  0.70998846  1  0.070875  -0.000103  0.1107  0.093061  -0.000126  0.996122  0.0
H  H28  1  0.65457850  0.79309716  0.64308843  1  0.08858  -0.000206  0.116881  0.103448  -0.000288  0.948657  0.0
H  H29  1  0.74973752  0.70999145  0.62947931  1  0.077443  -0.000105  0.110711  0.093047  -0.000126  0.996117  0.0
H  H30  1  0.65457886  0.35691141  0.15000668  1  0.073454  -0.000205  0.116887  0.103449  -0.000288  0.948687  0.0
H  H31  1  0.74973583  0.37052012  0.08051019  1  0.08217  -0.000105  0.110708  0.093073  -0.000126  0.996099  0.0
H  H32  1  0.65457952  0.84999290  0.20690482  1  0.074885  -0.000204  0.11687  0.103436  -0.000288  0.94867  0.0
H  H33  1  0.74973707  0.91948864  0.29001132  1  0.070879  -0.000103  0.110714  0.093069  -0.000126  0.996108  0.0
H  H34  1  0.15457895  0.64308844  0.79309634  1  0.088577  -0.000206  0.116881  0.10345  -0.000288  0.948683  0.0
H  H35  1  0.24973732  0.62947966  0.70999167  1  0.077002  -0.000105  0.110719  0.093074  -0.000126  0.996081  0.0
H  H36  1  0.15457787  0.15000537  0.35691185  1  0.073467  -0.000205  0.116896  0.103452  -0.000288  0.948683  0.0
H  H37  1  0.24973618  0.08050887  0.37052049  1  0.082161  -0.000105  0.110702  0.093056  -0.000126  0.996108  0.0
H  H38  1  0.15457960  0.20690348  0.84999162  1  0.074894  -0.000204  0.116888  0.103481  -0.000288  0.948652  0.0
H  H39  1  0.24973717  0.29001071  0.91948795  1  0.070907  -0.000103  0.110721  0.093074  -0.000126  0.996128  0.0
H  H40  1  0.15457799  0.35691275  0.20690438  1  0.088585  -0.000206  0.116882  0.103449  -0.000288  0.948675  0.0
H  H41  1  0.24973554  0.37052172  0.29000992  1  0.077054  -0.000105  0.110723  0.093059  -0.000126  0.996123  0.0
H  H42  1  0.15457906  0.84999336  0.64308869  1  0.073449  -0.000205  0.116883  0.103437  -0.000288  0.948693  0.0
H  H43  1  0.24973599  0.91948978  0.62947989  1  0.082172  -0.000105  0.11071  0.093073  -0.000126  0.996094  0.0
H  H44  1  0.15458013  0.79309601  0.15000816  1  0.074901  -0.000204  0.116884  0.103461  -0.000288  0.948668  0.0
H  H45  1  0.24973709  0.70998908  0.08051128  1  0.070885  -0.000103  0.110709  0.09306  -0.000126  0.996124  0.0
H  H46  1  0.34542222  0.79309532  0.64308672  1  0.08858  -0.000206  0.116883  0.103446  -0.000288  0.948682  0.0
H  H47  1  0.25026461  0.70999073  0.62947805  1  0.077783  -0.000105  0.110723  0.093065  -0.000126  0.996136  0.0
H  H48  1  0.34542119  0.35691088  0.15000629  1  0.073447  -0.000205  0.11688  0.103438  -0.000288  0.948694  0.0
H  H49  1  0.25026362  0.37052033  0.08051063  1  0.082168  -0.000105  0.11071  0.093074  -0.000126  0.996098  0.0
H  H50  1  0.34542045  0.84999276  0.20690405  1  0.074901  -0.000204  0.116879  0.103454  -0.000288  0.948685  0.0
H  H51  1  0.25026277  0.91948885  0.29001175  1  0.070875  -0.000103  0.110703  0.093063  -0.000126  0.996124  0.0
H  H52  1  0.34542103  0.20690401  0.35691273  1  0.088593  -0.000206  0.11688  0.103448  -0.000288  0.948664  0.0
H  H53  1  0.25026271  0.29000802  0.37052090  1  0.077747  -0.000105  0.110716  0.093066  -0.000126  0.996117  0.0
H  H54  1  0.34542137  0.64308910  0.84999382  1  0.073448  -0.000205  0.11688  0.103432  -0.000288  0.948697  0.0
H  H55  1  0.25026370  0.62947973  0.91948965  1  0.08217  -0.000105  0.110709  0.093067  -0.000126  0.996102  0.0
H  H56  1  0.34542071  0.15000761  0.79309568  1  0.074901  -0.000204  0.116884  0.103456  -0.000288  0.948673  0.0
H  H57  1  0.25026246  0.08051121  0.70998852  1  0.070889  -0.000103  0.110717  0.093066  -0.000126  0.996102  0.0
C  C58  1  0.35986464  0.51787129  0.87707500  1  1.613864  -0.000376  0.222545  0.631951  -0.000847  4.162439  -0.002
C  C59  1  0.70032005  0.41215874  0.14389875  1  0.415628  0.009864  -0.055693  -0.108962  0.00714  3.9105  0.008
C  C60  1  0.35986354  0.35920394  0.48212866  1  1.614658  -0.000363  0.222559  0.632107  -0.000847  4.162147  -0.002
C  C61  1  0.70032112  0.73173971  0.58783950  1  0.387467  0.009895  -0.055701  -0.108958  0.007141  3.910513  0.008
C  C62  1  0.35986342  0.12292880  0.64079652  1  1.619461  -0.000339  0.22252  0.631952  -0.000847  4.162511  -0.002
C  C63  1  0.70032066  0.85610154  0.26826167  1  0.408038  0.009897  -0.055691  -0.10894  0.007139  3.910518  0.008
C  C64  1  0.35986520  0.48212765  0.12292480  1  1.613657  -0.000375  0.222514  0.63202  -0.000848  4.162261  -0.002
C  C65  1  0.70031952  0.58784122  0.85610178  1  0.415585  0.009865  -0.055682  -0.108887  0.00714  3.910473  0.008
C  C66  1  0.35986631  0.64079773  0.51787236  1  1.614709  -0.000362  0.222531  0.632053  -0.000847  4.162147  -0.002
C  C67  1  0.70032055  0.26826035  0.41215961  1  0.387418  0.009895  -0.055669  -0.108886  0.00714  3.910436  0.008
C  C68  1  0.35986503  0.87707194  0.35920280  1  1.61945  -0.000339  0.222582  0.632058  -0.000848  4.162212  -0.002
C  C69  1  0.70032031  0.14389842  0.73173886  1  0.408022  0.009898  -0.05569  -0.108981  0.007139  3.910513  0.008
C  C70  1  0.14013586  0.87707595  0.51787231  1  1.613658  -0.000376  0.222544  0.632005  -0.000848  4.162359  -0.002
C  C71  1  0.79967994  0.14389859  0.41215850  1  0.415621  0.009865  -0.055668  -0.108858  0.00714  3.910403  0.008
C  C72  1  0.14013318  0.48212741  0.35920296  1  1.615047  -0.000361  0.222499  0.63197  -0.000847  4.162299  -0.002
C  C73  1  0.79967970  0.58783953  0.73173941  1  0.387389  0.009897  -0.055709  -0.108984  0.007142  3.910517  0.008
C  C74  1  0.14013545  0.64079688  0.12292792  1  1.619469  -0.000339  0.222557  0.63203  -0.000848  4.162209  -0.002
C  C75  1  0.79967891  0.26826107  0.85610143  1  0.40802  0.009898  -0.055683  -0.10892  0.007139  3.910473  0.008
C  C76  1  0.14013448  0.12292553  0.48212948  1  1.613863  -0.000375  0.222559  0.631937  -0.000847  4.162449  -0.002
C  C77  1  0.79968051  0.85610138  0.58784044  1  0.415583  0.009864  -0.055715  -0.109019  0.00714  3.910504  0.008
C  C78  1  0.14013646  0.51787379  0.64079779  1  1.614964  -0.000362  0.222513  0.632056  -0.000847  4.162203  -0.002
C  C79  1  0.79967935  0.41215968  0.26826029  1  0.387433  0.009895  -0.055667  -0.108893  0.00714  3.910455  0.008
C  C80  1  0.14013629  0.35920311  0.87707009  1  1.619458  -0.000339  0.222488  0.631985  -0.000848  4.162471  -0.002
C  C81  1  0.79968014  0.73174012  0.14390024  1  0.40804  0.009897  -0.055671  -0.108877  0.007139  3.910443  0.008
C  C82  1  0.64013558  0.48212856  0.12292483  1  1.613872  -0.000375  0.222556  0.632063  -0.000848  4.162336  -0.002
C  C83  1  0.29968018  0.58784111  0.85610109  1  0.415634  0.009864  -0.055672  -0.108908  0.00714  3.910519  0.008
C  C84  1  0.64013529  0.64079723  0.51787250  1  1.61495  -0.000362  0.22254  0.63211  -0.000847  4.162116  -0.002
C  C85  1  0.29967841  0.26826052  0.41215996  1  0.387463  0.009896  -0.055686  -0.108954  0.007141  3.910446  0.008
C  C86  1  0.64013611  0.87707106  0.35920332  1  1.619483  -0.00034  0.222503  0.631899  -0.000847  4.162461  -0.002
C  C87  1  0.29968027  0.14389963  0.73173949  1  0.408026  0.009897  -0.055697  -0.10895  0.007139  3.910513  0.008
C  C88  1  0.64013502  0.51787248  0.87707608  1  1.613706  -0.000376  0.222539  0.632047  -0.000848  4.162258  -0.002
C  C89  1  0.29968001  0.41215825  0.14389844  1  0.415625  0.009865  -0.055681  -0.108943  0.007141  3.910445  0.008
C  C90  1  0.64013392  0.35920146  0.48212682  1  1.615008  -0.000362  0.222513  0.632031  -0.000847  4.16217  -0.002
C  C91  1  0.29967968  0.73173989  0.58783985  1  0.387372  0.009895  -0.055695  -0.108927  0.007141  3.910476  0.008
C  C92  1  0.64013520  0.12292753  0.64079741  1  1.61946  -0.00034  0.222586  0.632067  -0.000848  4.162216  -0.002
C  C93  1  0.29967922  0.85610143  0.26826098  1  0.408054  0.009898  -0.055679  -0.108963  0.00714  3.910511  0.008
C  C94  1  0.85986437  0.12292429  0.48212715  1  1.613651  -0.000375  0.222471  0.631947  -0.000847  4.162386  -0.002
C  C95  1  0.20031959  0.85610126  0.58784134  1  0.415497  0.009865  -0.055686  -0.10894  0.007141  3.910486  0.008
C  C96  1  0.85986635  0.51787102  0.64079698  1  1.615022  -0.000361  0.222548  0.632052  -0.000847  4.162307  -0.002
C  C97  1  0.20032052  0.41216032  0.26826043  1  0.387379  0.009896  -0.055674  -0.108895  0.007141  3.910453  0.008
C  C98  1  0.85986408  0.35920232  0.87707126  1  1.61945  -0.00034  0.222549  0.632043  -0.000847  4.162202  -0.002
C  C99  1  0.20031992  0.73173944  0.14389907  1  0.408021  0.009898  -0.05569  -0.108951  0.007139  3.910464  0.008
C  C100  1  0.85986575  0.87707498  0.51787102  1  1.613918  -0.000375  0.222581  0.632086  -0.000847  4.16224  -0.002
C  C101  1  0.20031972  0.14389847  0.41215940  1  0.415659  0.009865  -0.055673  -0.108883  0.00714  3.910471  0.008
C  C102  1  0.85986586  0.48212644  0.35920167  1  1.614701  -0.000363  0.22252  0.631995  -0.000847  4.162224  -0.002
C  C103  1  0.20032088  0.58784083  0.73174021  1  0.387484  0.009894  -0.055675  -0.108941  0.00714  3.910448  0.008
C  C104  1  0.85986394  0.64079750  0.12292899  1  1.619434  -0.000339  0.222575  0.632017  -0.000847  4.162204  -0.002
C  C105  1  0.20031939  0.26826039  0.85610025  1  0.408026  0.009897  -0.055727  -0.10904  0.007139  3.910525  0.008
O  O106  1  0.36039192  0.42369767  0.81451901  1  -1.18553  0.001683  -0.367502  -0.624477  0.000166  2.205607  0.002
O  O107  1  0.40569655  0.56579235  0.95988661  1  -1.108971  0.090463  -0.326931  -0.550323  0.057272  2.330143  0.082
O  O108  1  0.36038861  0.39082216  0.57630417  1  -1.175221  0.001687  -0.367531  -0.624566  0.000167  2.205514  0.002
O  O109  1  0.40569624  0.39409342  0.43421042  1  -1.111514  0.090438  -0.326886  -0.550362  0.05727  2.33005  0.082
O  O110  1  0.36039207  0.18548077  0.60918043  1  -1.183755  0.001683  -0.367436  -0.624394  0.000164  2.205893  0.002
O  O111  1  0.40569821  0.04011411  0.60590579  1  -1.112931  0.090417  -0.326947  -0.550389  0.057275  2.329935  0.082
O  O112  1  0.36039239  0.57630220  0.18548250  1  -1.185526  0.001684  -0.367495  -0.624501  0.000167  2.205593  0.002
O  O113  1  0.40569584  0.43420720  0.04011377  1  -1.108777  0.090462  -0.32691  -0.550363  0.057272  2.330054  0.082
O  O114  1  0.36039151  0.60917913  0.42369723  1  -1.175198  0.001687  -0.367499  -0.624522  0.000167  2.205527  0.002
O  O115  1  0.40569545  0.60590679  0.56579062  1  -1.111553  0.090438  -0.326897  -0.550362  0.057271  2.329974  0.082
O  O116  1  0.36039293  0.81451751  0.39081872  1  -1.183689  0.001684  -0.36751  -0.624479  0.000165  2.205671  0.002
O  O117  1  0.40569837  0.95988516  0.39409356  1  -1.112954  0.090414  -0.326956  -0.550419  0.057274  2.32996  0.082
O  O118  1  0.13960870  0.81451928  0.42369807  1  -1.185529  0.001684  -0.367502  -0.624491  0.000166  2.205591  0.002
O  O119  1  0.09430386  0.95988661  0.56579315  1  -1.108796  0.090465  -0.326941  -0.550371  0.057274  2.330104  0.082
O  O120  1  0.13960732  0.57630544  0.39082137  1  -1.175238  0.001689  -0.367545  -0.624575  0.000168  2.205521  0.002
O  O121  1  0.09430538  0.43421128  0.39409301  1  -1.11185  0.090428  -0.326846  -0.550254  0.057265  2.33013  0.082
O  O122  1  0.13960748  0.60918130  0.18548192  1  -1.183682  0.001684  -0.3675  -0.624447  0.000165  2.205665  0.002
O  O123  1  0.09430075  0.60590611  0.04011476  1  -1.112957  0.090414  -0.326927  -0.550389  0.057273  2.329944  0.082
O  O124  1  0.13960649  0.18548164  0.57630164  1  -1.185542  0.001683  -0.367522  -0.624473  0.000166  2.205645  0.002
O  O125  1  0.09430325  0.04011321  0.43420778  1  -1.10898  0.090465  -0.326937  -0.550329  0.057273  2.33013  0.082
O  O126  1  0.13961065  0.42369521  0.60917730  1  -1.175182  0.001687  -0.36753  -0.624565  0.000167  2.205493  0.002
O  O127  1  0.09430313  0.56579138  0.60590771  1  -1.111856  0.090432  -0.326893  -0.550377  0.057268  2.330064  0.082
O  O128  1  0.13960771  0.39081952  0.81451921  1  -1.183777  0.001683  -0.367442  -0.624417  0.000164  2.20593  0.002
O  O129  1  0.09430147  0.39409343  0.95988513  1  -1.112909  0.09042  -0.326911  -0.550364  0.057277  2.329887  0.082
O  O130  1  0.63960831  0.57630218  0.18548083  1  -1.185526  0.001683  -0.367505  -0.624499  0.000166  2.205583  0.002
O  O131  1  0.59430368  0.43420646  0.04011295  1  -1.108989  0.090464  -0.326921  -0.550406  0.057273  2.330093  0.082
O  O132  1  0.63961023  0.60917911  0.42369557  1  -1.175213  0.001688  -0.367524  -0.624595  0.000167  2.205498  0.002
O  O133  1  0.59430399  0.60590681  0.56578903  1  -1.111815  0.090431  -0.326871  -0.550324  0.057267  2.330011  0.082
O  O134  1  0.63960816  0.81451805  0.39081913  1  -1.183758  0.001683  -0.367454  -0.624394  0.000164  2.205863  0.002
O  O135  1  0.59430132  0.95988574  0.39409405  1  -1.112929  0.090416  -0.326928  -0.550332  0.057274  2.3299  0.082
O  O136  1  0.63960784  0.42369689  0.81451810  1  -1.185522  0.001684  -0.367509  -0.624537  0.000167  2.205524  0.002
O  O137  1  0.59430439  0.56579265  0.95988606  1  -1.108786  0.09046  -0.326909  -0.550362  0.057271  2.330086  0.082
O  O138  1  0.63960802  0.39082138  0.57630327  1  -1.17519  0.001687  -0.367499  -0.624514  0.000167  2.205504  0.002
O  O139  1  0.59430339  0.39409306  0.43420922  1  -1.111855  0.090437  -0.326903  -0.550381  0.057271  2.330023  0.082
O  O140  1  0.63960660  0.18548234  0.60918112  1  -1.183677  0.001684  -0.367507  -0.624478  0.000165  2.205667  0.002
O  O141  1  0.59430186  0.04011469  0.60590628  1  -1.112959  0.090411  -0.326957  -0.550412  0.057272  2.329941  0.082
O  O142  1  0.86039083  0.18548161  0.57630204  1  -1.185525  0.001684  -0.367497  -0.624509  0.000167  2.205618  0.002
O  O143  1  0.90569568  0.04011428  0.43420697  1  -1.108784  0.090461  -0.326895  -0.550341  0.057271  2.330097  0.082
O  O144  1  0.86039221  0.42369507  0.60917913  1  -1.175258  0.001688  -0.367545  -0.624561  0.000168  2.205518  0.002
O  O145  1  0.90569485  0.56578924  0.60590748  1  -1.111815  0.090439  -0.326872  -0.550304  0.057272  2.330126  0.082
O  O146  1  0.86039205  0.39081827  0.81451688  1  -1.183678  0.001684  -0.367524  -0.624504  0.000165  2.205692  0.002
O  O147  1  0.90569808  0.39409346  0.95988404  1  -1.112918  0.090411  -0.326914  -0.550376  0.057272  2.329907  0.082
O  O148  1  0.86039374  0.81451755  0.42369754  1  -1.18555  0.001683  -0.367535  -0.624528  0.000166  2.205588  0.002
O  O149  1  0.90569628  0.95988636  0.56579102  1  -1.108977  0.090457  -0.326897  -0.550347  0.057268  2.330033  0.082
O  O150  1  0.86039097  0.57630295  0.39082160  1  -1.175171  0.001687  -0.367502  -0.624524  0.000167  2.205544  0.002
O  O151  1  0.90569571  0.43420902  0.39409420  1  -1.111559  0.09044  -0.326894  -0.55032  0.057272  2.330029  0.082
O  O152  1  0.86039252  0.60918099  0.18548129  1  -1.183704  0.001683  -0.367519  -0.624482  0.000164  2.205736  0.002
O  O153  1  0.90569807  0.60590642  0.04011471  1  -1.112927  0.090414  -0.326958  -0.550382  0.057274  2.329904  0.082
O  O154  1  0.74999968  0.47169250  0.23584585  1  -1.092661  0.004124  -0.269343  -0.248359  0.002258  2.746898  0.003
O  O155  1  0.75000016  0.76415411  0.52830813  1  -1.09267  0.004124  -0.269338  -0.248347  0.002258  2.74696  0.003
O  O156  1  0.74999968  0.76415399  0.23584645  1  -1.074705  0.004095  -0.26936  -0.248408  0.002259  2.746956  0.003
O  O157  1  0.74999929  0.52830742  0.76415459  1  -1.092675  0.004124  -0.26936  -0.248395  0.002259  2.746904  0.003
O  O158  1  0.75000020  0.23584581  0.47169231  1  -1.092658  0.004124  -0.269339  -0.248383  0.002258  2.746887  0.003
O  O159  1  0.74999998  0.23584593  0.76415399  1  -1.074685  0.004095  -0.269349  -0.24839  0.002259  2.746967  0.003
O  O160  1  0.25000055  0.52830802  0.76415464  1  -1.092663  0.004124  -0.269347  -0.248366  0.002258  2.746898  0.003
O  O161  1  0.24999937  0.23584498  0.47169247  1  -1.092687  0.004124  -0.26936  -0.248396  0.002258  2.746904  0.003
O  O162  1  0.24999985  0.23584587  0.76415338  1  -1.074707  0.004095  -0.269364  -0.248365  0.002259  2.746902  0.003
O  O163  1  0.25000024  0.47169205  0.23584563  1  -1.09266  0.004124  -0.269343  -0.24837  0.002258  2.74691  0.003
O  O164  1  0.25000003  0.76415404  0.52830753  1  -1.092533  0.004124  -0.269341  -0.248362  0.002258  2.746889  0.003
O  O165  1  0.25000024  0.76415354  0.23584623  1  -1.07469  0.004095  -0.269351  -0.248377  0.002259  2.746942  0.003
