# generated using pymatgen
data_Ni2H30C28N2O13
_symmetry_space_group_name_H-M   'P 1'
_cell_length_a   10.07332611
_cell_length_b   13.13684991
_cell_length_c   15.08830981
_cell_angle_alpha   77.34092105
_cell_angle_beta   77.72006920
_cell_angle_gamma   67.62901724
_symmetry_Int_Tables_number   1
_chemical_formula_structural   Ni2H30C28N2O13
_chemical_formula_sum   'Ni4 H60 C56 N4 O26'
_cell_volume   1782.91973266
_cell_formula_units_Z   2
loop_
 _symmetry_equiv_pos_site_id
 _symmetry_equiv_pos_as_xyz
  1  'x, y, z'
loop_
 _atom_site_type_symbol
 _atom_site_label
 _atom_site_symmetry_multiplicity
 _atom_site_fract_x
 _atom_site_fract_y
 _atom_site_fract_z
 _atom_site_occupancy
 _atom_site_hle17_ddec_charge
 _atom_site_hle17_ddec_spin_density
 _atom_site_hle17_ddec_sum_bond_order
 _atom_site_hle17_magmom
 _atom_site_hse06_10hf_ddec_charge
 _atom_site_hse06_10hf_ddec_spin_density
 _atom_site_hse06_10hf_ddec_sum_bond_order
 _atom_site_hse06_10hf_magmom
 _atom_site_hse06_ddec_charge
 _atom_site_hse06_ddec_spin_density
 _atom_site_hse06_ddec_sum_bond_order
 _atom_site_hse06_magmom
 _atom_site_pbe_cm5_charge
 _atom_site_pbe_ddec_charge
 _atom_site_pbe_ddec_spin_density
 _atom_site_pbe_ddec_sum_bond_order
 _atom_site_pbe_magmom
Ni  Ni0  1  0.02146747  0.57611750  0.34447265  1  1.013528  -1.794313  1.817518  -1.525  1.037462  -1.848609  2.197327  -1.655  1.120879  -1.9072  2.1332  -1.74  0.614485  0.962125  -1.785552  2.261258  -1.573
Ni  Ni1  1  0.97853741  0.42387922  0.65552853  1  1.013293  -1.794248  1.817804  -1.525  1.037228  -1.848567  2.197531  -1.655  1.12066  -1.907172  2.133407  -1.74  0.614324  0.961827  -1.785489  2.261583  -1.573
Ni  Ni2  1  0.74013420  0.79909830  0.25826022  1  0.991461  1.791921  1.849558  1.522  1.017427  1.847555  2.234451  1.653  1.103644  1.906896  2.166402  1.739  0.611429  0.93956  1.784572  2.303055  1.571
Ni  Ni3  1  0.25985310  0.20091261  0.74174098  1  0.991426  1.791843  1.849275  1.522  1.017396  1.847528  2.234134  1.653  1.103646  1.906897  2.166063  1.739  0.611349  0.939512  1.784522  2.302731  1.571
H  H4  1  0.35285633  0.68447192  0.02994901  1  0.096244  7e-06  0.93992  0.0  0.105859  7e-06  0.998831  0.0  0.109547  4e-06  0.996542  0.0  0.103513  0.103593  3.3e-05  0.999778  0.0
H  H5  1  0.64715077  0.31551982  0.97005142  1  0.096201  6e-06  0.940068  0.0  0.105869  7e-06  0.998925  0.0  0.109558  4e-06  0.996635  0.0  0.10347  0.1036  3.3e-05  0.999875  0.0
H  H6  1  0.61119557  0.63712231  0.95658835  1  0.078347  -6.4e-05  0.969721  0.0  0.089006  -5.4e-05  1.032843  0.0  0.091746  -3.5e-05  1.031773  0.0  0.093142  0.086881  -7.5e-05  1.034325  0.0
H  H7  1  0.38880887  0.36287100  0.04341750  1  0.078408  -6.4e-05  0.969646  0.0  0.088962  -5.4e-05  1.032877  0.0  0.0917  -3.4e-05  1.031813  0.0  0.093127  0.086836  -7.5e-05  1.034356  0.0
H  H8  1  0.49165588  0.50927715  0.28884106  1  0.098424  -0.000133  0.95726  0.0  0.105638  -0.000116  1.022421  0.0  0.108305  -7e-05  1.021608  0.0  0.099445  0.103832  -0.000165  1.023006  0.0
H  H9  1  0.50835205  0.49071955  0.71115967  1  0.098344  -0.000131  0.957318  0.0  0.105551  -0.000116  1.022489  0.0  0.108217  -7e-05  1.021678  0.0  0.099408  0.103746  -0.000165  1.023076  0.0
H  H10  1  0.74970128  0.46789832  0.21765303  1  0.094153  3.5e-05  0.947726  0.0  0.105452  2e-05  1.005893  0.0  0.108284  2.1e-05  1.004942  0.0  0.10021  0.103321  1.1e-05  1.006797  0.0
H  H11  1  0.25030283  0.53210008  0.78234730  1  0.094165  3.3e-05  0.947797  0.0  0.105515  2e-05  1.005906  0.0  0.10835  2.1e-05  1.004952  0.0  0.100231  0.103376  1.1e-05  1.006809  0.0
H  H12  1  0.82762897  0.46770754  0.92408644  1  0.102535  5e-06  0.952843  0.0  0.1106  1.4e-05  1.019268  0.0  0.113228  2e-05  1.018389  0.0  0.102179  0.108341  1e-06  1.020601  0.0
H  H13  1  0.17238502  0.53230068  0.07591727  1  0.102438  -1e-06  0.95271  0.0  0.110513  1.3e-05  1.019097  0.0  0.113146  2e-05  1.018208  0.0  0.102109  0.108239  1e-06  1.020452  0.0
H  H14  1  0.73468626  0.41065355  0.40841389  1  0.104599  -0.0001  0.940622  0.0  0.115443  -0.000107  0.9989  0.0  0.118853  -6.8e-05  0.996958  0.0  0.109559  0.112931  -0.000142  1.000693  0.0
H  H15  1  0.26530264  0.58934486  0.59159068  1  0.104675  -9.7e-05  0.94045  0.0  0.115466  -0.000107  0.998802  0.0  0.118879  -6.8e-05  0.996851  0.0  0.109603  0.112954  -0.000142  1.0006  0.0
H  H16  1  0.81043108  0.23260943  0.48966102  1  0.104496  7e-06  0.948808  0.0  0.11585  -4.4e-05  1.007076  0.0  0.119346  -3.2e-05  1.00511  0.0  0.104771  0.113298  -6.4e-05  1.008609  0.0
H  H17  1  0.18955608  0.76739062  0.51034484  1  0.104441  -1e-06  0.94888  0.0  0.11584  -4.4e-05  1.007113  0.0  0.119331  -3.2e-05  1.005145  0.0  0.104786  0.113288  -6.4e-05  1.008642  0.0
H  H18  1  0.89714792  0.04264428  0.44529403  1  0.092244  -2.1e-05  0.959725  0.0  0.102544  -5e-06  1.022665  0.0  0.10605  -3e-06  1.020342  0.0  0.100468  0.100211  -7e-06  1.024033  0.0
H  H19  1  0.10285452  0.95735570  0.55471090  1  0.092175  -8e-06  0.95973  0.0  0.102488  -5e-06  1.022675  0.0  0.105996  -3e-06  1.020348  0.0  0.100425  0.100154  -7e-06  1.024047  0.0
H  H20  1  0.37885855  0.28398832  0.44592516  1  0.100407  7e-06  0.957719  0.0  0.11092  0.0  1.017156  0.0  0.11366  8e-06  1.016365  0.0  0.10314  0.108921  -1e-05  1.017816  0.0
H  H21  1  0.62114573  0.71600272  0.55406919  1  0.100448  1.1e-05  0.957644  0.0  0.110934  0.0  1.01714  0.0  0.113676  8e-06  1.01635  0.0  0.103137  0.108937  -1e-05  1.017801  0.0
H  H22  1  0.46852403  0.09576398  0.39966868  1  0.091864  0.000139  0.965262  0.0  0.099961  0.000104  1.032905  0.0  0.103071  6.2e-05  1.031311  0.0  0.099505  0.097743  0.000151  1.034023  0.0
H  H23  1  0.53148200  0.90423209  0.60032184  1  0.091795  0.000126  0.965312  0.0  0.09996  0.000104  1.032876  0.0  0.103071  6.2e-05  1.031278  0.0  0.099458  0.097745  0.00015  1.033993  0.0
H  H24  1  0.24472168  0.39004329  0.25810766  1  0.053388  -0.000384  0.941153  -0.001  0.059723  -0.000213  1.012682  -0.001  0.062035  -5.6e-05  1.006822  0.0  0.127766  0.057894  -0.000407  1.017005  -0.001
H  H25  1  0.75527443  0.60995690  0.74188756  1  0.053367  -0.000397  0.94113  -0.001  0.05974  -0.000213  1.012611  -0.001  0.06203  -5.6e-05  1.006775  0.0  0.127747  0.057914  -0.000406  1.016933  -0.001
H  H26  1  0.35228442  0.25460348  0.18031518  1  0.102155  -0.0  0.942953  0.0  0.124625  -2.8e-05  1.003359  0.0  0.12552  -1.4e-05  1.002852  0.0  0.112419  0.123797  -4.3e-05  1.003931  0.0
H  H27  1  0.64771281  0.74539421  0.81968033  1  0.102119  -2e-06  0.9429  0.0  0.124553  -2.8e-05  1.003344  0.0  0.125447  -1.4e-05  1.002842  0.0  0.112397  0.123727  -4.3e-05  1.003916  0.0
H  H28  1  0.25066089  0.16658373  0.18837624  1  0.100558  -8.7e-05  0.921739  0.0  0.122402  -8.9e-05  0.979048  0.0  0.123412  -5.9e-05  0.979054  0.0  0.10737  0.121519  -0.000131  0.979237  0.0
H  H29  1  0.74933437  0.83341393  0.81162222  1  0.100595  -9.2e-05  0.921671  0.0  0.122423  -8.9e-05  0.979001  0.0  0.123434  -5.9e-05  0.979005  0.0  0.107364  0.121536  -0.000131  0.979203  0.0
H  H30  1  0.40672546  0.11787753  0.24573039  1  0.102114  3.7e-05  0.939231  0.0  0.1189  7e-06  1.006955  0.0  0.120431  -3e-06  1.005757  0.0  0.104209  0.117585  2e-05  1.008027  0.0
H  H31  1  0.59326871  0.88212258  0.75426977  1  0.102088  2.9e-05  0.939262  0.0  0.118875  8e-06  1.006988  0.0  0.120409  -3e-06  1.005785  0.0  0.104212  0.11756  1.9e-05  1.008059  0.0
H  H32  1  0.12205657  0.19589002  0.44019417  1  0.124401  -0.000142  0.956446  0.0  0.140585  -0.000173  1.020796  0.0  0.142704  -0.000111  1.019099  0.0  0.112548  0.138868  -0.000239  1.022218  0.0
H  H33  1  0.87794185  0.80411422  0.55980527  1  0.124386  -0.000139  0.956574  0.0  0.140612  -0.000173  1.020878  0.0  0.142732  -0.000111  1.019183  0.0  0.112583  0.138896  -0.000239  1.022301  0.0
H  H34  1  0.23909525  0.08081077  0.38467933  1  0.095672  5e-06  0.939214  0.0  0.116425  -9e-06  1.005141  0.0  0.116216  -5e-06  1.006355  0.0  0.105362  0.116326  -1.3e-05  1.004533  0.0
H  H35  1  0.76090346  0.91919271  0.61531690  1  0.095718  -0.0  0.939229  0.0  0.116468  -9e-06  1.005172  0.0  0.11626  -5e-06  1.006386  0.0  0.105356  0.11637  -1.4e-05  1.004568  0.0
H  H36  1  0.06500887  0.16034788  0.35024852  1  0.091997  -1e-05  0.928781  0.0  0.1141  -1e-06  0.990431  0.0  0.114076  3e-06  0.99104  0.0  0.103623  0.114319  -8e-06  0.989574  0.0
H  H37  1  0.93498516  0.83965476  0.64974988  1  0.091978  -5e-06  0.928893  0.0  0.114083  -1e-06  0.990549  0.0  0.11406  3e-06  0.991157  0.0  0.103607  0.114305  -8e-06  0.989691  0.0
H  H38  1  0.42495035  0.85621233  0.33164194  1  0.055895  0.000874  0.932096  0.002  0.061402  0.000471  1.004493  0.001  0.062677  0.000236  1.00002  0.001  0.126955  0.060384  0.000745  1.007751  0.001
H  H39  1  0.57503407  0.14378695  0.66836181  1  0.055926  0.000877  0.932018  0.002  0.061469  0.000471  1.004382  0.001  0.062747  0.000237  0.999909  0.001  0.126964  0.060454  0.000745  1.007633  0.001
H  H40  1  0.39193067  0.91454825  0.09135929  1  0.110812  0.000171  0.93922  0.0  0.129092  0.000174  1.000221  0.0  0.131265  0.000107  0.998577  0.0  0.108841  0.127288  0.000245  1.001679  0.0
H  H41  1  0.60806935  0.08544830  0.90865258  1  0.110844  0.000184  0.939219  0.0  0.129109  0.000174  1.000227  0.0  0.131283  0.000107  0.998583  0.0  0.108889  0.127306  0.000245  1.001683  0.0
H  H42  1  0.21360544  0.01630879  0.11312303  1  0.087066  -2.5e-05  0.927934  0.0  0.107264  6e-06  0.989993  0.0  0.107728  -3e-06  0.989874  0.0  0.101168  0.10677  1e-06  0.990205  0.0
H  H43  1  0.78640119  0.98368626  0.88687754  1  0.086999  -1.4e-05  0.927936  0.0  0.107239  6e-06  0.989964  0.0  0.107704  -3e-06  0.989843  0.0  0.101135  0.106749  2e-06  0.990176  0.0
H  H44  1  0.23496415  0.87338821  0.11782288  1  0.120578  -3e-05  0.94643  0.0  0.139119  -4e-06  1.009093  0.0  0.140749  -1.1e-05  1.007963  0.0  0.110073  0.137602  8e-06  1.010319  0.0
H  H45  1  0.76504137  0.12660934  0.88217805  1  0.120595  -1.9e-05  0.94643  0.0  0.13912  -4e-06  1.009118  0.0  0.140751  -1.1e-05  1.007988  0.0  0.110042  0.137616  8e-06  1.010332  0.0
H  H46  1  0.13052354  0.84373297  0.28506719  1  0.117333  5.9e-05  0.949328  0.0  0.138203  3.5e-05  1.005118  0.0  0.139278  1.8e-05  1.00515  0.0  0.110871  0.137074  0.000193  1.005546  0.0
H  H47  1  0.86945433  0.15626721  0.71493405  1  0.117307  6.9e-05  0.949486  0.0  0.138223  3.5e-05  1.005225  0.0  0.139302  1.8e-05  1.005245  0.0  0.110901  0.137096  0.000193  1.005652  0.0
H  H48  1  0.08228122  0.98923743  0.28384142  1  0.091284  -6.8e-05  0.932239  0.0  0.109378  -4.1e-05  0.998128  0.0  0.11018  -3.5e-05  0.997826  0.0  0.100753  0.108774  -5.1e-05  0.998166  0.0
H  H49  1  0.91769834  0.01077693  0.71615500  1  0.091265  -7e-05  0.932497  0.0  0.10937  -4.1e-05  0.99837  0.0  0.110173  -3.5e-05  0.998068  0.0  0.100757  0.108765  -5.1e-05  0.998411  0.0
H  H50  1  0.19461030  0.89106382  0.36412033  1  0.097513  2.4e-05  0.967602  0.0  0.115183  4.5e-05  1.038048  0.0  0.115098  2.8e-05  1.039253  0.0  0.10548  0.115049  5.6e-05  1.037398  0.0
H  H51  1  0.80536881  0.10894287  0.63588749  1  0.097536  2.2e-05  0.967574  0.0  0.115307  4.5e-05  1.037934  0.0  0.115228  2.8e-05  1.039144  0.0  0.105561  0.115174  5.6e-05  1.037285  0.0
H  H52  1  0.13116382  0.54079997  0.49352880  1  0.415776  0.000182  0.890942  0.001  0.387908  -0.000114  0.955598  0.0  0.399145  2.6e-05  0.939532  0.0  0.290971  0.379895  -0.000245  0.966881  0.0
H  H53  1  0.86883485  0.45920354  0.50646544  1  0.415823  0.000183  0.890901  0.001  0.38795  -0.000114  0.955554  0.0  0.399188  2.6e-05  0.939482  0.0  0.290931  0.379934  -0.000244  0.966841  0.0
H  H54  1  0.98556206  0.63581615  0.50279496  1  0.417556  0.000165  0.86935  0.001  0.392382  -0.000156  0.936786  0.0  0.403173  -1.4e-05  0.921025  0.0  0.298172  0.384452  -0.000298  0.94829  0.0
H  H55  1  0.01444403  0.36418228  0.49720242  1  0.417686  0.000167  0.869063  0.001  0.392499  -0.000155  0.936594  0.0  0.403292  -1.4e-05  0.92083  0.0  0.298183  0.384567  -0.000297  0.948102  0.0
H  H56  1  0.02418911  0.74380220  0.24115083  1  0.420836  0.000292  0.888248  0.001  0.39068  0.000247  0.957728  0.001  0.404922  0.000265  0.937918  0.001  0.28973  0.380386  0.00023  0.971943  0.001
H  H57  1  0.97579745  0.25619030  0.75886046  1  0.420829  0.000292  0.887753  0.001  0.390625  0.000247  0.95768  0.001  0.404878  0.000265  0.937854  0.001  0.289663  0.380325  0.00023  0.9719  0.001
H  H58  1  0.92529213  0.79523431  0.34283454  1  0.422237  -9.8e-05  0.892467  0.0  0.391885  -0.000156  0.956571  0.0  0.405585  -0.000158  0.937466  0.0  0.290346  0.382037  -7.8e-05  0.970092  0.0
H  H59  1  0.07471497  0.20475263  0.65715683  1  0.422187  -9.9e-05  0.89235  0.0  0.391852  -0.000156  0.956573  0.0  0.405559  -0.000158  0.937462  0.0  0.29026  0.381997  -7.8e-05  0.970102  0.0
H  H60  1  0.73647892  0.92739280  0.10617864  1  0.42869  -0.000587  0.810754  -0.001  0.415008  -0.0002  0.86299  0.0  0.42354  -0.000252  0.853519  0.0  0.327441  0.408759  -0.000131  0.86963  0.0
H  H61  1  0.26351907  0.07259893  0.89382513  1  0.428727  -0.000585  0.810701  -0.001  0.415044  -0.0002  0.862938  0.0  0.423577  -0.000252  0.853463  0.0  0.327435  0.408794  -0.000132  0.869578  0.0
H  H62  1  0.72936606  0.98668484  0.18629351  1  0.416663  -0.000651  0.83777  -0.001  0.396803  -0.000197  0.901483  0.0  0.405683  -0.000258  0.891626  0.0  0.313783  0.390402  -0.000115  0.908177  0.0
H  H63  1  0.27061825  0.01332121  0.81370239  1  0.416602  -0.000651  0.837802  -0.001  0.396755  -0.000197  0.90151  0.0  0.405631  -0.000258  0.891655  0.0  0.313772  0.390354  -0.000115  0.908205  0.0
C  C64  1  0.25262412  0.62967965  0.20881132  1  0.641194  0.00299  3.88322  0.006  0.598148  0.000393  4.184193  0.002  0.634935  0.000418  4.176383  0.002  0.211843  0.571607  0.000433  4.189214  0.003
C  C65  1  0.74738954  0.37031787  0.79118842  1  0.641205  0.002995  3.883257  0.006  0.598173  0.000397  4.184212  0.002  0.634972  0.00042  4.176389  0.002  0.211793  0.571627  0.000436  4.189237  0.003
C  C66  1  0.40685957  0.60065229  0.16399805  1  -0.070109  -0.005758  3.775795  -0.007  -0.049763  -0.002957  4.010476  -0.004  -0.058273  -0.002111  4.033556  -0.003  -0.024012  -0.043398  -0.003785  3.995554  -0.005
C  C67  1  0.59315647  0.39934441  0.83600016  1  -0.0703  -0.005781  3.775741  -0.007  -0.049924  -0.002955  4.010425  -0.004  -0.058439  -0.00211  4.033506  -0.003  -0.023957  -0.043555  -0.003779  3.995507  -0.005
C  C68  1  0.44078664  0.63649815  0.07029457  1  -0.074174  0.000189  3.77242  0.0  -0.098602  -0.000262  4.024812  0.0  -0.098378  -0.000103  4.046129  0.0  -0.087851  -0.098405  -0.000329  4.009928  -0.001
C  C69  1  0.55922781  0.36349527  0.92970248  1  -0.074053  0.000193  3.772352  0.0  -0.098544  -0.000263  4.024732  0.0  -0.098317  -0.000103  4.046049  0.0  -0.087714  -0.098345  -0.000332  4.009846  -0.001
C  C70  1  0.58500787  0.61008465  0.02973249  1  -0.11492  -0.001017  3.757571  -0.001  -0.132964  -0.000373  4.006072  0.0  -0.13723  -0.000292  4.027814  0.0  -0.093024  -0.130933  -0.000586  3.99201  -0.001
C  C71  1  0.41500046  0.38991120  0.97026967  1  -0.114938  -0.001016  3.75719  -0.001  -0.132886  -0.000373  4.005704  0.0  -0.137154  -0.000292  4.027447  0.0  -0.093054  -0.130858  -0.000584  3.991632  -0.001
C  C72  1  0.51916553  0.53793790  0.21622691  1  -0.064842  0.000794  3.741409  0.001  -0.087195  0.000127  3.989429  0.0  -0.0861  0.000153  4.009418  0.0  -0.087562  -0.08843  0.000184  3.975896  0.0
C  C73  1  0.48084352  0.46205632  0.78377345  1  -0.064631  0.000803  3.741051  0.001  -0.08699  0.000126  3.989098  0.0  -0.085895  0.000153  4.009093  0.0  -0.087564  -0.088235  0.000177  3.975574  0.0
C  C74  1  0.66302372  0.51506068  0.17604586  1  -0.107487  -0.000627  3.733443  -0.001  -0.128036  -0.000227  3.982942  0.0  -0.132246  -0.000212  4.004049  0.0  -0.090607  -0.124203  -0.000162  3.967934  0.0
C  C75  1  0.33698374  0.48493934  0.82395501  1  -0.107638  -0.000628  3.733269  -0.001  -0.128224  -0.000227  3.982779  0.0  -0.132441  -0.000212  4.003892  0.0  -0.090652  -0.124366  -0.000154  3.967761  0.0
C  C76  1  0.69841438  0.55137389  0.08220168  1  0.069781  0.000827  3.77862  0.001  0.083768  0.000246  4.012547  0.0  0.085558  0.000228  4.035726  0.0  -0.002547  0.082749  0.000384  3.996662  0.0
C  C77  1  0.30158997  0.44862859  0.91780185  1  0.069705  0.000829  3.778372  0.001  0.083692  0.000247  4.01235  0.0  0.085485  0.000229  4.035523  0.0  -0.0026  0.082671  0.000379  3.996452  0.0
C  C78  1  0.85158332  0.52758356  0.03989890  1  0.037509  -0.000272  3.769727  0.0  0.041529  -0.000274  4.009082  0.0  0.041914  -0.000186  4.032065  0.0  -0.00696  0.041151  -0.00033  3.99359  0.0
C  C79  1  0.14841775  0.47242152  0.96009933  1  0.037714  -0.000319  3.769505  0.0  0.041703  -0.000274  4.009003  0.0  0.042091  -0.000185  4.031987  0.0  -0.006947  0.041327  -0.000328  3.993509  0.0
C  C80  1  0.90212860  0.48416536  0.95721260  1  -0.12194  -0.000152  3.721572  0.0  -0.153644  6.6e-05  3.975808  0.0  -0.155142  3.5e-05  3.995375  0.0  -0.088262  -0.152317  3e-05  3.9625  0.0
C  C81  1  0.09787927  0.51584049  0.04278648  1  -0.121952  -9.1e-05  3.721318  0.0  -0.153635  6.5e-05  3.97551  0.0  -0.15514  3.3e-05  3.995083  0.0  -0.088239  -0.152306  2.8e-05  3.962195  0.0
C  C82  1  0.95232357  0.54409162  0.08217133  1  -0.070628  0.000421  3.716042  0.001  -0.059339  0.000588  3.952586  0.001  -0.06472  0.000407  3.970669  0.001  -0.01299  -0.055847  0.000665  3.941277  0.001
C  C83  1  0.04768034  0.45591845  0.91782558  1  -0.07051  0.000483  3.715885  0.001  -0.059352  0.000587  3.95267  0.001  -0.064738  0.000405  3.970752  0.001  -0.01291  -0.055866  0.000663  3.941375  0.001
C  C84  1  0.90893757  0.59724394  0.16749065  1  0.672257  -0.001719  3.866292  -0.003  0.638534  -0.001217  4.166301  -0.002  0.679048  -0.001063  4.154739  -0.002  0.218401  0.608186  -0.001391  4.174038  -0.002
C  C85  1  0.09107170  0.40276107  0.83250904  1  0.672097  -0.001744  3.865896  -0.003  0.638392  -0.001217  4.16594  -0.002  0.67891  -0.001063  4.154376  -0.002  0.218262  0.608048  -0.001391  4.173666  -0.002
C  C86  1  0.69525250  0.61828959  0.40909108  1  0.678676  -0.00259  3.854676  -0.005  0.636876  -0.001152  4.15696  -0.002  0.677439  -0.000855  4.144176  -0.002  0.227478  0.606966  -0.001508  4.164654  -0.003
C  C87  1  0.30473674  0.38171469  0.59090906  1  0.678649  -0.002591  3.854725  -0.005  0.636785  -0.001152  4.157115  -0.002  0.67735  -0.000855  4.144333  -0.002  0.22747  0.606876  -0.001507  4.164802  -0.003
C  C88  1  0.59244550  0.56021773  0.46023917  1  -0.077289  0.002426  3.707373  0.003  -0.063317  0.001168  3.940725  0.002  -0.069557  0.00075  3.959537  0.001  -0.007072  -0.059371  0.001326  3.929085  0.002
C  C89  1  0.40755509  0.43978158  0.53975753  1  -0.077355  0.002442  3.707293  0.003  -0.063394  0.001168  3.940717  0.002  -0.069632  0.000752  3.959528  0.001  -0.007096  -0.059448  0.001324  3.929094  0.002
C  C90  1  0.63197025  0.44891839  0.45030390  1  -0.105955  -5.5e-05  3.708304  0.0  -0.134941  -1.7e-05  3.957737  0.0  -0.136029  -2e-05  3.976213  0.0  -0.077357  -0.134593  -0.000414  3.946068  0.0
C  C91  1  0.36802023  0.55108091  0.54969696  1  -0.105754  -8e-05  3.708102  0.0  -0.134726  -1.7e-05  3.957562  0.0  -0.135808  -2.1e-05  3.976026  0.0  -0.077264  -0.13438  -0.000409  3.945899  0.0
C  C92  1  0.54189138  0.38665949  0.48874812  1  0.048886  -0.000591  3.75225  -0.001  0.053515  -0.000579  3.988179  -0.001  0.054709  -0.000405  4.010336  0.0  0.001748  0.05263  -0.000454  3.97372  0.0
C  C93  1  0.45810719  0.61333313  0.51125276  1  0.048711  -0.000565  3.752498  -0.001  0.053325  -0.00058  3.988312  -0.001  0.054521  -0.000405  4.010471  0.0  0.001666  0.05245  -0.000457  3.973827  0.0
C  C94  1  0.58902736  0.27174020  0.46980624  1  0.068729  -0.000182  3.780611  0.0  0.083607  -2.5e-05  4.012318  0.0  0.084694  -5e-05  4.035935  0.0  -0.00114  0.082797  -4.3e-05  3.996591  0.0
C  C95  1  0.41095646  0.72826009  0.53018747  1  0.068675  -0.000209  3.781009  0.0  0.083775  -2.6e-05  4.012369  0.0  0.084863  -5.1e-05  4.035991  0.0  -0.001105  0.082957  -4.2e-05  3.996633  0.0
C  C96  1  0.73540734  0.20256249  0.46973501  1  -0.133674  0.000165  3.758545  0.0  -0.15109  2.9e-05  4.00656  0.0  -0.155057  4.3e-05  4.026952  0.0  -0.093721  -0.148396  5.7e-05  3.992585  0.0
C  C97  1  0.26457678  0.79744425  0.53026875  1  -0.133602  0.000239  3.758727  0.0  -0.151148  2.8e-05  4.006707  0.0  -0.155109  4.2e-05  4.027093  0.0  -0.09373  -0.148452  5.5e-05  3.992724  0.0
C  C98  1  0.78399587  0.09688247  0.44522461  1  -0.086767  8.1e-05  3.791849  0.0  -0.111806  0.000225  4.044234  0.0  -0.111321  0.000124  4.064495  0.0  -0.09223  -0.112067  0.000291  4.030199  0.0
C  C99  1  0.21600630  0.90312255  0.55477679  1  -0.086624  -6e-06  3.791894  0.0  -0.111659  0.000226  4.044275  0.0  -0.111172  0.000127  4.064535  0.0  -0.092227  -0.111921  0.000292  4.030235  0.0
C  C100  1  0.49256479  0.23129455  0.44617183  1  -0.100846  1.2e-05  3.715314  0.0  -0.120252  -5e-05  3.962106  0.0  -0.123845  -1.8e-05  3.982671  0.0  -0.0874  -0.117837  -1.6e-05  3.948013  0.0
C  C101  1  0.50742945  0.76870069  0.55382257  1  -0.101046  -7e-06  3.715664  0.0  -0.120519  -5e-05  3.962384  0.0  -0.124119  -1.6e-05  3.982958  0.0  -0.087482  -0.118101  -1.8e-05  3.948295  0.0
C  C102  1  0.54213193  0.12653414  0.41993269  1  -0.063734  -0.000408  3.750501  -0.001  -0.088133  -5.6e-05  4.000517  0.0  -0.087191  -8.5e-05  4.020406  0.0  -0.087584  -0.088679  -7.6e-05  3.986968  0.0
C  C103  1  0.45787095  0.87346443  0.58005851  1  -0.063557  -0.000361  3.750475  -0.001  -0.088005  -5.4e-05  4.000473  0.0  -0.087059  -8.4e-05  4.020362  0.0  -0.087559  -0.088551  -7.2e-05  3.986935  0.0
C  C104  1  0.68852723  0.05874826  0.41809206  1  -0.077564  0.003612  3.788639  0.005  -0.055412  0.002114  4.020898  0.003  -0.063733  0.001561  4.04389  0.002  -0.026291  -0.04999  0.002616  4.005913  0.003
C  C105  1  0.31147135  0.94126013  0.58190727  1  -0.077739  0.00363  3.788763  0.005  -0.055612  0.00211  4.021095  0.003  -0.063935  0.001555  4.044083  0.002  -0.026299  -0.050189  0.002612  4.006118  0.003
C  C106  1  0.74610538  0.94957975  0.38306380  1  0.643121  -0.001968  3.889731  -0.004  0.6002  -0.000212  4.183908  -0.001  0.636364  -0.000233  4.175926  -0.001  0.209519  0.574802  -0.000312  4.188209  -0.002
C  C107  1  0.25390078  0.05041863  0.61693689  1  0.643048  -0.001978  3.889499  -0.004  0.60012  -0.000214  4.183705  -0.001  0.636284  -0.000234  4.175722  -0.001  0.209483  0.574721  -0.000316  4.188004  -0.002
C  C108  1  0.19314166  0.34316308  0.31511490  1  0.413704  0.001472  3.774175  0.003  0.338172  -0.000246  4.067025  0.001  0.36904  -5.9e-05  4.064424  0.001  0.183117  0.316904  -0.000465  4.067578  0.001
C  C109  1  0.80685700  0.65684045  0.68487867  1  0.413762  0.001498  3.774057  0.003  0.338219  -0.000245  4.066905  0.001  0.369104  -5.7e-05  4.064307  0.001  0.183197  0.316957  -0.000464  4.067456  0.001
C  C110  1  0.31314072  0.19141712  0.22590087  1  -0.169007  -0.000392  3.672233  0.0  -0.268878  -0.000337  3.917116  0.0  -0.266037  -0.000236  3.928274  0.0  -0.123627  -0.270458  -0.00044  3.90974  0.0
C  C111  1  0.68685541  0.80858304  0.77409568  1  -0.168947  -0.000369  3.672137  0.0  -0.268771  -0.000337  3.91701  0.0  -0.265933  -0.000235  3.928169  0.0  -0.123565  -0.270352  -0.00044  3.909637  0.0
C  C112  1  0.15805787  0.16501734  0.37433447  1  -0.16626  -0.000106  3.639312  0.0  -0.267377  -0.000191  3.885605  0.0  -0.263659  -0.00012  3.895813  0.0  -0.131687  -0.26973  -0.000268  3.878782  0.0
C  C113  1  0.84193681  0.83498612  0.62566368  1  -0.1663  -0.000116  3.639644  0.0  -0.267468  -0.000191  3.88592  0.0  -0.263751  -0.000119  3.896127  0.0  -0.131719  -0.269835  -0.000269  3.879104  0.0
C  C114  1  0.42655711  0.87773758  0.25670680  1  0.396824  -0.002998  3.782079  -0.006  0.326972  -0.000515  4.073006  -0.002  0.357419  -0.000512  4.072953  -0.002  0.178547  0.305999  -0.000169  4.071739  -0.002
C  C115  1  0.57344541  0.12225565  0.74330464  1  0.39665  -0.003014  3.782455  -0.006  0.326758  -0.000515  4.073377  -0.002  0.357203  -0.000509  4.073322  -0.002  0.178383  0.305786  -0.000169  4.072111  -0.002
C  C116  1  0.28389404  0.92929268  0.13140753  1  -0.176529  0.000312  3.656654  0.0  -0.275249  0.000348  3.898707  0.0  -0.27217  0.000226  3.908064  0.0  -0.134346  -0.276972  0.000483  3.892855  0.0
C  C117  1  0.71610884  0.07070401  0.86859528  1  -0.176479  0.000249  3.656619  0.0  -0.275219  0.000348  3.898686  0.0  -0.27214  0.000227  3.908039  0.0  -0.134304  -0.276961  0.000483  3.892824  0.0
C  C118  1  0.16922371  0.90770233  0.29412235  1  -0.173976  0.000602  3.663859  0.001  -0.275802  0.000548  3.915872  0.001  -0.272666  0.000399  3.927258  0.001  -0.132458  -0.277622  0.000573  3.908379  0.001
C  C119  1  0.83076309  0.09230282  0.70587666  1  -0.174  0.000588  3.664351  0.001  -0.275948  0.000548  3.916287  0.001  -0.272833  0.000398  3.927691  0.001  -0.132583  -0.277769  0.000572  3.908796  0.001
N  N120  1  0.22247000  0.23707547  0.30686877  1  -0.096353  -0.001676  3.501208  -0.003  0.01019  -0.001362  3.73319  -0.002  -0.010374  -0.000898  3.758342  -0.001  -0.281402  0.023606  -0.001838  3.716126  -0.003
N  N121  1  0.77752386  0.76292971  0.69312654  1  -0.096332  -0.001678  3.501206  -0.003  0.010192  -0.001361  3.733202  -0.002  -0.01037  -0.000899  3.758348  -0.001  -0.28147  0.023617  -0.001837  3.716134  -0.003
N  N122  1  0.29836091  0.90643411  0.22847467  1  -0.087703  0.00178  3.50816  0.003  0.018016  0.001351  3.739191  0.002  -0.002578  0.000835  3.765365  0.001  -0.280801  0.031379  0.001575  3.721586  0.002
N  N123  1  0.70164181  0.09356512  0.77152571  1  -0.087688  0.001808  3.508407  0.003  0.018034  0.001351  3.739477  0.002  -0.002558  0.000833  3.765649  0.001  -0.280832  0.031396  0.001575  3.721876  0.002
O  O124  1  0.15893128  0.71937437  0.17532306  1  -0.602928  0.002422  1.95735  0.003  -0.556016  0.001268  2.171996  0.002  -0.580712  0.00103  2.16049  0.001  -0.317405  -0.538463  0.001622  2.18013  0.002
O  O125  1  0.84107159  0.28061136  0.82469036  1  -0.602854  0.002414  1.957212  0.003  -0.555949  0.001268  2.171956  0.002  -0.580653  0.00103  2.160443  0.001  -0.317338  -0.538389  0.00162  2.180097  0.002
O  O126  1  0.22604912  0.56172815  0.27895695  1  -0.607795  -0.059679  2.066335  -0.096  -0.584851  -0.035615  2.332743  -0.059  -0.624149  -0.026734  2.324294  -0.046  -0.313545  -0.553032  -0.043368  2.337668  -0.07
O  O127  1  0.77393228  0.43828449  0.72104216  1  -0.607666  -0.059654  2.066218  -0.096  -0.584704  -0.03561  2.332574  -0.059  -0.623998  -0.026732  2.324121  -0.046  -0.313433  -0.552882  -0.04336  2.337505  -0.07
O  O128  1  0.81423614  0.69466568  0.16349141  1  -0.58702  0.057217  2.045135  0.091  -0.57556  0.033808  2.30932  0.056  -0.613434  0.025632  2.297869  0.043  -0.308423  -0.544218  0.040667  2.31698  0.065
O  O129  1  0.18577472  0.30533405  0.83652425  1  -0.586986  0.057251  2.04488  0.091  -0.575483  0.033824  2.308986  0.056  -0.61336  0.025642  2.297529  0.043  -0.308386  -0.544136  0.040684  2.31664  0.065
O  O130  1  0.97625481  0.53795464  0.23415499  1  -0.626377  -0.051154  2.092958  -0.081  -0.612491  -0.030273  2.370436  -0.049  -0.651044  -0.023299  2.359895  -0.038  -0.3174  -0.580681  -0.036337  2.37721  -0.057
O  O131  1  0.02373977  0.46206281  0.76584925  1  -0.626283  -0.05115  2.092775  -0.081  -0.612384  -0.030277  2.370205  -0.049  -0.650936  -0.023301  2.359656  -0.038  -0.31729  -0.580564  -0.03634  2.376982  -0.057
O  O132  1  0.82711398  0.56954710  0.42330318  1  -0.633811  -0.034332  2.143096  -0.055  -0.597178  -0.024347  2.40836  -0.039  -0.632496  -0.019531  2.394558  -0.032  -0.299806  -0.568869  -0.028298  2.417078  -0.044
O  O133  1  0.17288117  0.43045733  0.57668744  1  -0.633786  -0.034338  2.143165  -0.055  -0.597091  -0.02435  2.408412  -0.039  -0.63241  -0.019535  2.39461  -0.032  -0.299827  -0.568773  -0.0283  2.417128  -0.044
O  O134  1  0.64464418  0.70673680  0.35459567  1  -0.587858  0.055086  2.118504  0.089  -0.571185  0.033117  2.399845  0.055  -0.608957  0.025053  2.388404  0.042  -0.29325  -0.540216  0.040603  2.406892  0.066
O  O135  1  0.35536834  0.29326082  0.64539891  1  -0.587846  0.055108  2.118496  0.089  -0.571166  0.033125  2.399875  0.055  -0.608943  0.025058  2.388434  0.042  -0.293218  -0.54019  0.040611  2.406916  0.066
O  O136  1  0.86918765  0.88158014  0.40289003  1  -0.600792  -0.002233  1.970276  -0.003  -0.544896  -0.001246  2.181262  -0.002  -0.569987  -0.00097  2.171255  -0.001  -0.314623  -0.527297  -0.001534  2.187765  -0.002
O  O137  1  0.13081843  0.11842259  0.59709927  1  -0.600621  -0.002229  1.970007  -0.003  -0.544737  -0.001246  2.18103  -0.002  -0.569827  -0.000971  2.171023  -0.001  -0.314541  -0.527138  -0.001535  2.187532  -0.002
O  O138  1  0.66926584  0.93435039  0.33280638  1  -0.649494  0.042561  2.033617  0.069  -0.621108  0.027913  2.294321  0.046  -0.656427  0.021494  2.2834  0.036  -0.323423  -0.592566  0.033439  2.301137  0.054
O  O139  1  0.33077303  0.06562047  0.66719249  1  -0.649343  0.042558  2.03318  0.069  -0.620949  0.027909  2.293854  0.046  -0.656285  0.02149  2.282975  0.036  -0.323287  -0.592399  0.033438  2.30064  0.054
O  O140  1  0.11466635  0.38934083  0.38215836  1  -0.531147  -0.027114  2.103845  -0.042  -0.487868  -0.020863  2.362165  -0.032  -0.51796  -0.016389  2.352455  -0.026  -0.285562  -0.464542  -0.024914  2.368601  -0.038
O  O141  1  0.88533593  0.61067025  0.61782867  1  -0.531191  -0.027108  2.103811  -0.042  -0.487918  -0.020858  2.362117  -0.032  -0.518008  -0.016386  2.3524  -0.026  -0.285556  -0.464582  -0.024906  2.368552  -0.038
O  O142  1  0.54237637  0.87371501  0.20345371  1  -0.535592  0.038801  2.113009  0.061  -0.506051  0.026624  2.379311  0.043  -0.537579  0.020919  2.369055  0.035  -0.304719  -0.481278  0.031342  2.385944  0.049
O  O143  1  0.45763443  0.12627808  0.79656250  1  -0.535524  0.038781  2.113109  0.061  -0.505964  0.02661  2.379371  0.043  -0.537488  0.020907  2.369102  0.035  -0.30457  -0.481197  0.031325  2.385998  0.049
O  O144  1  0.07370327  0.61208329  0.45774581  1  -0.796342  -0.037383  1.917981  -0.059  -0.772652  -0.027047  2.122487  -0.043  -0.798428  -0.021489  2.087723  -0.035  -0.578061  -0.751188  -0.031704  2.147698  -0.049
O  O145  1  0.92629429  0.38791361  0.54224780  1  -0.796491  -0.03739  1.917692  -0.059  -0.772789  -0.027049  2.122244  -0.043  -0.798561  -0.021491  2.087485  -0.035  -0.578013  -0.75131  -0.031709  2.147457  -0.049
O  O146  1  0.93997590  0.74281971  0.29597916  1  -0.859174  -0.005041  2.178683  -0.008  -0.844543  -0.003072  2.448522  -0.005  -0.891017  -0.001894  2.411112  -0.003  -0.559212  -0.804438  -0.004631  2.473796  -0.008
O  O147  1  0.06004965  0.25719863  0.70401172  1  -0.859227  -0.005037  2.178262  -0.008  -0.844596  -0.00307  2.448588  -0.005  -0.891123  -0.001893  2.411227  -0.003  -0.559115  -0.804469  -0.004631  2.473857  -0.008
O  O148  1  0.79464454  0.92947253  0.14939679  1  -0.753357  0.028422  1.818414  0.043  -0.720474  0.024205  1.978777  0.036  -0.742578  0.019135  1.955616  0.029  -0.553983  -0.702588  0.028583  1.995772  0.041
O  O149  1  0.20534270  0.07051835  0.85061138  1  -0.753395  0.028407  1.818244  0.042  -0.720536  0.024197  1.978597  0.036  -0.742636  0.019128  1.955431  0.029  -0.554033  -0.702655  0.028573  1.995591  0.041
