# generated using pymatgen
data_ZnH10C4(NO5)2
_symmetry_space_group_name_H-M   'P 1'
_cell_length_a   7.18842647
_cell_length_b   7.79163959
_cell_length_c   9.84281505
_cell_angle_alpha   90.85058189
_cell_angle_beta   89.97282574
_cell_angle_gamma   117.49993571
_symmetry_Int_Tables_number   1
_chemical_formula_structural   ZnH10C4(NO5)2
_chemical_formula_sum   'Zn2 H20 C8 N4 O20'
_cell_volume   488.93609127
_cell_formula_units_Z   2
loop_
 _symmetry_equiv_pos_site_id
 _symmetry_equiv_pos_as_xyz
  1  'x, y, z'
loop_
 _atom_site_type_symbol
 _atom_site_label
 _atom_site_symmetry_multiplicity
 _atom_site_fract_x
 _atom_site_fract_y
 _atom_site_fract_z
 _atom_site_occupancy
 _atom_site_hle17_bader_spin_density
 _atom_site_hle17_ddec_charge
 _atom_site_hle17_ddec_spin_density
 _atom_site_hle17_ddec_sum_bond_order
 _atom_site_hle17_magmom
 _atom_site_hse06_10hf_bader_spin_density
 _atom_site_hse06_10hf_ddec_charge
 _atom_site_hse06_10hf_ddec_spin_density
 _atom_site_hse06_10hf_ddec_sum_bond_order
 _atom_site_hse06_10hf_magmom
 _atom_site_hse06_bader_spin_density
 _atom_site_hse06_ddec_charge
 _atom_site_hse06_ddec_spin_density
 _atom_site_hse06_ddec_sum_bond_order
 _atom_site_hse06_magmom
 _atom_site_pbe_bader_spin_density
 _atom_site_pbe_cm5_charge
 _atom_site_pbe_ddec_charge
 _atom_site_pbe_ddec_spin_density
 _atom_site_pbe_ddec_sum_bond_order
 _atom_site_pbe_magmom
Zn  Zn0  1  0.81335849  0.99998343  0.74999229  1  0  1.12869  0  1.692419  0  0  0.949688  0  2.133182  0  0  1.001534  0  2.073462  0  0  0.690747  0.912705  0  2.174331  0
Zn  Zn1  1  0.18663977  0.00001625  0.25000815  1  0  1.128677  0  1.692462  0  0  0.949686  0  2.133218  0  0  1.001532  0  2.073499  0  0  0.690749  0.912703  0  2.17437  0
H  H2  1  0.47005701  0.65263949  0.73908369  1  0  0.37375  0  0.906245  0  0  0.343788  0  0.986579  0  0  0.354529  0  0.974739  0  0  0.302614  0.336259  0  0.994764  0
H  H3  1  0.81784983  0.34747816  0.76100176  1  0  0.3743  0  0.905262  0  0  0.344123  0  0.985936  0  0  0.354846  0  0.974094  0  0  0.302863  0.336616  0  0.994086  0
H  H4  1  0.52994688  0.34736310  0.26091374  1  0  0.37374  0  0.906222  0  0  0.343783  0  0.986556  0  0  0.354523  0  0.974718  0  0  0.302622  0.336255  0  0.994739  0
H  H5  1  0.18214910  0.65252008  0.23899968  1  0  0.374273  0  0.905286  0  0  0.344096  0  0.985967  0  0  0.35482  0  0.974124  0  0  0.302857  0.33659  0  0.994122  0
H  H6  1  0.88601685  0.11830930  0.48010993  1  0  0.398599  0  0.884397  0  0  0.367616  0  0.962865  0  0  0.379043  0  0.94963  0  0  0.30748  0.35936  0  0.972536  0
H  H7  1  0.76757120  0.88169251  0.01999594  1  0  0.398761  0  0.883448  0  0  0.367351  0  0.96251  0  0  0.37888  0  0.949117  0  0  0.307346  0.359133  0  0.97214  0
H  H8  1  0.11398492  0.88169183  0.51989053  1  0  0.398601  0  0.884399  0  0  0.367621  0  0.962869  0  0  0.379045  0  0.949636  0  0  0.307476  0.359363  0  0.972541  0
H  H9  1  0.23242845  0.11830718  0.98000450  1  0  0.398746  0  0.883433  0  0  0.367336  0  0.962498  0  0  0.378864  0  0.949109  0  0  0.307345  0.359117  0  0.97213  0
H  H10  1  0.31639967  0.66454807  0.52316038  1  0  0.086175  0  0.937943  0  0  0.091156  0  1.014353  0  0  0.093008  0  1.011957  0  0  0.103251  0.089794  0  1.016158  0
H  H11  1  0.65233704  0.33547485  0.97701187  1  0  0.085349  0  0.936733  0  0  0.090912  0  1.013177  0  0  0.092753  0  1.010764  0  0  0.103035  0.089519  0  1.015029  0
H  H12  1  0.68360216  0.33545596  0.47683808  1  0  0.086159  0  0.937958  0  0  0.09114  0  1.014385  0  0  0.092991  0  1.011991  0  0  0.103243  0.089778  0  1.016191  0
H  H13  1  0.34766050  0.66452339  0.02298957  1  0  0.085382  0  0.936741  0  0  0.090959  0  1.013162  0  0  0.092806  0  1.010743  0  0  0.103069  0.089566  0  1.015015  0
H  H14  1  0.57213541  0.67773219  0.51115390  1  0  0.065114  0  0.95316  0  0  0.073686  0  1.025971  0  0  0.074655  0  1.02504  0  0  0.096768  0.072944  0  1.026632  0
H  H15  1  0.89480559  0.32219473  0.98906268  1  0  0.065208  0  0.952172  0  0  0.073663  0  1.025238  0  0  0.07475  0  1.02417  0  0  0.096715  0.072818  0  1.026033  0
H  H16  1  0.42786569  0.32227039  0.48884759  1  0  0.065058  0  0.95318  0  0  0.073673  0  1.025949  0  0  0.074641  0  1.025017  0  0  0.096768  0.072929  0  1.026608  0
H  H17  1  0.10519267  0.67780496  0.01093878  1  0  0.065212  0  0.952177  0  0  0.07368  0  1.02523  0  0  0.074757  0  1.024172  0  0  0.096723  0.072834  0  1.026025  0
H  H18  1  0.58814524  0.93802042  0.37758506  1  0  0.061339  0  0.906687  0  0  0.070825  0  0.968528  0  0  0.071419  0  0.967915  0  0  0.111922  0.070294  0  0.969045  0
H  H19  1  0.64986475  0.06183338  0.12248959  1  0  0.061512  0  0.906002  0  0  0.070084  0  0.968697  0  0  0.070833  0  0.96788  0  0  0.111721  0.069437  0  0.969367  0
H  H20  1  0.41185653  0.06198072  0.62241438  1  0  0.061339  0  0.906724  0  0  0.070834  0  0.968562  0  0  0.071429  0  0.96795  0  0  0.111928  0.070302  0  0.969078  0
H  H21  1  0.35013418  0.93816485  0.87751287  1  0  0.06149  0  0.906079  0  0  0.070078  0  0.968735  0  0  0.070843  0  0.967897  0  0  0.111731  0.069431  0  0.969404  0
C  C22  1  0.48312496  0.75122396  0.54895104  1  0  0.057799  0  3.594131  0  0  -0.013627  0  3.877287  0  0  -0.006382  0  3.880793  0  0  -0.091378  -0.018472  0  3.874827  0
C  C23  1  0.73229373  0.24876700  0.95120132  1  0  0.059444  0  3.591809  0  0  -0.013079  0  3.874808  0  0  -0.005841  0  3.878299  0  0  -0.090919  -0.017848  0  3.872344  0
C  C24  1  0.51687403  0.24877718  0.45104739  1  0  0.057855  0  3.594107  0  0  -0.0136  0  3.877284  0  0  -0.006353  0  3.880792  0  0  -0.091374  -0.01844  0  3.87482  0
C  C25  1  0.26770381  0.75123124  0.04880011  1  0  0.059332  0  3.591916  0  0  -0.01322  0  3.874914  0  0  -0.005981  0  3.878415  0  0  -0.090996  -0.017988  0  3.872449  0
C  C26  1  0.57076306  0.95137322  0.48774771  1  0  0.176556  0  3.549455  0  0  0.146848  0  3.80563  0  0  0.152293  0  3.815382  0  0  -0.007254  0.143034  0  3.799023  0
C  C27  1  0.61940688  0.04858494  0.01230911  1  0  0.175587  0  3.551302  0  0  0.146935  0  3.805358  0  0  0.152373  0  3.815153  0  0  -0.007929  0.143141  0  3.798713  0
C  C28  1  0.42924155  0.04863081  0.51225177  1  0  0.176504  0  3.549574  0  0  0.146764  0  3.805799  0  0  0.152208  0  3.815554  0  0  -0.007279  0.142952  0  3.799186  0
C  C29  1  0.38059066  0.95141330  0.98769334  1  0  0.175586  0  3.551386  0  0  0.146995  0  3.805344  0  0  0.152426  0  3.815138  0  0  -0.007928  0.143202  0  3.798699  0
N  N30  1  0.92474650  0.68783339  0.72784838  1  0  0.689612  0  4.108081  0  0  0.715832  0  4.401916  0  0  0.743928  0  4.408427  0  0  0.106444  0.696633  0  4.397468  0
N  N31  1  0.23716579  0.31216384  0.77199840  1  0  0.690908  0  4.105527  0  0  0.714423  0  4.40251  0  0  0.742677  0  4.40912  0  0  0.105644  0.695266  0  4.398062  0
N  N32  1  0.07525176  0.31216630  0.27215307  1  0  0.689596  0  4.107974  0  0  0.715741  0  4.401903  0  0  0.743885  0  4.408359  0  0  0.106395  0.69654  0  4.397461  0
N  N33  1  0.76283593  0.68783441  0.22799694  1  0  0.691047  0  4.105387  0  0  0.714462  0  4.40248  0  0  0.742724  0  4.409068  0  0  0.105714  0.695315  0  4.398015  0
O  O34  1  0.50860404  0.77917599  0.69483806  1  0  -0.562215  0  2.189372  0  0  -0.492952  0  2.452199  0  0  -0.514702  0  2.439354  0  0  -0.396955  -0.477284  0  2.460143  0
O  O35  1  0.73001664  0.22091670  0.80532880  1  0  -0.563421  0  2.190081  0  0  -0.493394  0  2.452526  0  0  -0.515237  0  2.439892  0  0  -0.397153  -0.477701  0  2.460327  0
O  O36  1  0.49139284  0.22082370  0.30516035  1  0  -0.562182  0  2.189281  0  0  -0.492938  0  2.452142  0  0  -0.514682  0  2.439283  0  0  -0.396947  -0.477267  0  2.460075  0
O  O37  1  0.26998162  0.77908299  0.19467367  1  0  -0.563335  0  2.190124  0  0  -0.493293  0  2.45253  0  0  -0.515138  0  2.439896  0  0  -0.397094  -0.477595  0  2.460323  0
O  O38  1  0.77193247  0.07353207  0.54894003  1  0  -0.588026  0  2.192777  0  0  -0.517725  0  2.447886  0  0  -0.539066  0  2.43359  0  0  -0.388027  -0.502542  0  2.457637  0
O  O39  1  0.69839224  0.92642633  0.95113818  1  0  -0.588362  0  2.193403  0  0  -0.517201  0  2.447542  0  0  -0.538826  0  2.433383  0  0  -0.387132  -0.501914  0  2.457057  0
O  O40  1  0.22806930  0.92646907  0.45106043  1  0  -0.588029  0  2.192798  0  0  -0.51773  0  2.447915  0  0  -0.539072  0  2.433621  0  0  -0.388019  -0.50255  0  2.457668  0
O  O41  1  0.30160530  0.07357191  0.04886224  1  0  -0.588336  0  2.193418  0  0  -0.517211  0  2.447563  0  0  -0.538837  0  2.433409  0  0  -0.387149  -0.501929  0  2.457082  0
O  O42  1  0.95295465  0.83645347  0.65432528  1  0  -0.519606  0  1.901386  0  0  -0.484491  0  2.148698  0  0  -0.50651  0  2.138663  0  0  -0.192224  -0.469028  0  2.155507  0
O  O43  1  0.11684735  0.16330785  0.84541675  1  0  -0.519028  0  1.899901  0  0  -0.483481  0  2.148326  0  0  -0.505575  0  2.138314  0  0  -0.19208  -0.468121  0  2.155148  0
O  O44  1  0.04704078  0.16354332  0.34567309  1  0  -0.5196  0  1.901414  0  0  -0.48446  0  2.148747  0  0  -0.506495  0  2.138693  0  0  -0.192189  -0.468996  0  2.155556  0
O  O45  1  0.88315370  0.83669185  0.15457861  1  0  -0.519149  0  1.899997  0  0  -0.483575  0  2.148436  0  0  -0.505673  0  2.138422  0  0  -0.192145  -0.468232  0  2.15527  0
O  O46  1  0.86421026  0.68111950  0.84700529  1  0  -0.399787  0  1.791064  0  0  -0.389937  0  2.010086  0  0  -0.403176  0  2.004654  0  0  -0.145117  -0.380879  0  2.01395  0
O  O47  1  0.18312824  0.31914332  0.65298355  1  0  -0.401083  0  1.790774  0  0  -0.390009  0  2.010272  0  0  -0.403086  0  2.004574  0  0  -0.145097  -0.381107  0  2.014258  0
O  O48  1  0.13579079  0.31888019  0.15299617  1  0  -0.3998  0  1.790956  0  0  -0.389906  0  2.010002  0  0  -0.403161  0  2.004556  0  0  -0.145106  -0.380847  0  2.013867  0
O  O49  1  0.81687699  0.68085638  0.34701181  1  0  -0.401117  0  1.790714  0  0  -0.389988  0  2.010203  0  0  -0.403066  0  2.004503  0  0  -0.145084  -0.381084  0  2.014184  0
O  O50  1  0.95898186  0.55819928  0.67352660  1  0  -0.403308  0  1.781972  0  0  -0.385771  0  1.983409  0  0  -0.399675  0  1.976783  0  0  -0.152787  -0.376317  0  1.988152  0
O  O51  1  0.40122242  0.44177765  0.82623163  1  0  -0.403822  0  1.77974  0  0  -0.385244  0  1.98208  0  0  -0.39943  0  1.975608  0  0  -0.152507  -0.375716  0  1.986788  0
O  O52  1  0.04101852  0.44180185  0.32647386  1  0  -0.40329  0  1.781964  0  0  -0.385752  0  1.983431  0  0  -0.39967  0  1.976787  0  0  -0.152793  -0.376297  0  1.988176  0
O  O53  1  0.59878281  0.55822205  0.17376372  1  0  -0.403805  0  1.779649  0  0  -0.385195  0  1.982025  0  0  -0.399384  0  1.97555  0  0  -0.152508  -0.375673  0  1.986738  0
