# generated using pymatgen
data_NaLiH8(CO2)4
_symmetry_space_group_name_H-M   'P 1'
_cell_length_a   7.86105841
_cell_length_b   9.91620500
_cell_length_c   11.76999082
_cell_angle_alpha   81.85454029
_cell_angle_beta   70.46896939
_cell_angle_gamma   66.62822790
_symmetry_Int_Tables_number   1
_chemical_formula_structural   NaLiH8(CO2)4
_chemical_formula_sum   'Na4 Li4 H32 C16 O32'
_cell_volume   793.70863040
_cell_formula_units_Z   4
loop_
 _symmetry_equiv_pos_site_id
 _symmetry_equiv_pos_as_xyz
  1  'x, y, z'
loop_
 _atom_site_type_symbol
 _atom_site_label
 _atom_site_symmetry_multiplicity
 _atom_site_fract_x
 _atom_site_fract_y
 _atom_site_fract_z
 _atom_site_occupancy
 _atom_site_pbe_bader_spin_density
 _atom_site_pbe_cm5_charge
 _atom_site_pbe_ddec_charge
 _atom_site_pbe_ddec_spin_density
 _atom_site_pbe_ddec_sum_bond_order
 _atom_site_pbe_magmom
Na  Na0  1  0.99310061  0.25010170  0.74997027  1  0  0.676592  0.859901  0  0.530491  0
Na  Na1  1  0.00689647  0.74990064  0.25002901  1  0  0.67659  0.859904  0  0.530482  0
Na  Na2  1  0.00000114  0.49999992  0.49999998  1  0  0.690946  0.873085  0  0.525386  0
Na  Na3  1  0.00000013  0.00000066  0.99999943  1  0  0.690157  0.872577  0  0.525397  0
Li  Li4  1  0.30280134  0.16502250  0.46745493  1  0  0.475058  0.793951  0  0.518868  0
Li  Li5  1  0.93548288  0.33506052  0.03240047  1  0  0.475248  0.794162  0  0.51909  0
Li  Li6  1  0.69719914  0.83497326  0.53254563  1  0  0.475061  0.793963  0  0.518847  0
Li  Li7  1  0.06451486  0.66494295  0.96760026  1  0  0.475241  0.79417  0  0.519076  0
H  H8  1  0.24411874  0.85284954  0.40699674  1  0  0.12356  0.079788  0  0.982043  0
H  H9  1  0.50337087  0.64735662  0.09304943  1  0  0.124538  0.080859  0  0.981498  0
H  H10  1  0.75587842  0.14714735  0.59300518  1  0  0.123573  0.079793  0  0.982043  0
H  H11  1  0.49662795  0.35264465  0.90695134  1  0  0.12454  0.080872  0  0.981529  0
H  H12  1  0.35245752  0.65160547  0.53595986  1  0  0.116815  0.078186  0  0.988604  0
H  H13  1  0.53957560  0.84869551  0.96443185  1  0  0.115658  0.07631  0  0.986874  0
H  H14  1  0.64754638  0.34839245  0.46403759  1  0  0.116814  0.078177  0  0.988584  0
H  H15  1  0.46042396  0.15130352  0.03556664  1  0  0.115668  0.07632  0  0.986866  0
H  H16  1  0.70271366  0.07958429  0.84102443  1  0  0.285021  0.37119  0  0.980717  0
H  H17  1  0.62322631  0.42072639  0.65884575  1  0  0.285949  0.374057  0  0.976752  0
H  H18  1  0.29728569  0.92041693  0.15897318  1  0  0.28501  0.37117  0  0.980747  0
H  H19  1  0.37677649  0.57927488  0.34115510  1  0  0.28595  0.374093  0  0.976703  0
H  H20  1  0.92128521  0.99641261  0.76573602  1  0  0.286644  0.360148  0  1.002999  0
H  H21  1  0.68313245  0.50378403  0.73434287  1  0  0.287022  0.361089  0  1.001695  0
H  H22  1  0.07871207  0.00358754  0.23426415  1  0  0.286658  0.360171  0  1.002963  0
H  H23  1  0.31686778  0.49621507  0.26566025  1  0  0.287049  0.361148  0  1.001617  0
H  H24  1  0.18082594  0.30412181  0.28509943  1  0  0.313681  0.401423  0  0.914535  0
H  H25  1  0.77033679  0.19593621  0.21483724  1  0  0.313319  0.400837  0  0.915272  0
H  H26  1  0.81917640  0.69587615  0.71490087  1  0  0.313692  0.401437  0  0.914519  0
H  H27  1  0.22966343  0.80406394  0.78516270  1  0  0.313317  0.400838  0  0.915269  0
H  H28  1  0.03933320  0.23323538  0.37010784  1  0  0.299955  0.395868  0  0.939161  0
H  H29  1  0.64295295  0.26674454  0.12984602  1  0  0.299762  0.395818  0  0.940257  0
H  H30  1  0.96066462  0.76676368  0.62989234  1  0  0.299952  0.395836  0  0.939197  0
H  H31  1  0.35704571  0.73325565  0.87015677  1  0  0.29976  0.39583  0  0.940244  0
H  H32  1  0.47151157  0.94136442  0.31799210  1  0  0.306607  0.356401  0  0.986373  0
H  H33  1  0.73032343  0.55866499  0.18215644  1  0  0.306369  0.356403  0  0.98685  0
H  H34  1  0.52848575  0.05863353  0.68200780  1  0  0.306639  0.35641  0  0.986358  0
H  H35  1  0.26967779  0.44133737  0.81784408  1  0  0.306375  0.356408  0  0.986852  0
H  H36  1  0.57709027  0.64414440  0.62676292  1  0  0.309458  0.337565  0  0.985268  0
H  H37  1  0.84766490  0.85602952  0.87335008  1  0  0.309565  0.337138  0  0.985726  0
H  H38  1  0.42290916  0.35585136  0.37323734  1  0  0.309459  0.337582  0  0.985257  0
H  H39  1  0.15233325  0.14397062  0.12664924  1  0  0.309568  0.33712  0  0.985748  0
C  C40  1  0.15316433  0.95438233  0.57763705  1  0  0.224901  0.596707  0  4.15586  0
C  C41  1  0.68504769  0.54592858  0.92239262  1  0  0.227235  0.6012  0  4.155484  0
C  C42  1  0.84683818  0.04561565  0.42236440  1  0  0.224873  0.596636  0  4.155918  0
C  C43  1  0.31495162  0.45407379  0.07760843  1  0  0.22722  0.601143  0  4.155596  0
C  C44  1  0.31479256  0.87185620  0.46666918  1  0  0.007091  0.044841  0  3.887055  0
C  C45  1  0.65287231  0.62829400  0.03346905  1  0  0.004942  0.040977  0  3.890563  0
C  C46  1  0.68520439  0.12814287  0.53333186  1  0  0.007094  0.044889  0  3.88708  0
C  C47  1  0.34712667  0.37170728  0.96653287  1  0  0.0049  0.040834  0  3.890714  0
C  C48  1  0.43992810  0.72086539  0.50641193  1  0  -0.007485  0.012863  0  3.905936  0
C  C49  1  0.66692627  0.77925637  0.99379571  1  0  -0.006189  0.015874  0  3.903266  0
C  C50  1  0.56007391  0.27913148  0.49358923  1  0  -0.00749  0.012851  0  3.905923  0
C  C51  1  0.33307325  0.22074487  0.00620306  1  0  -0.006215  0.015903  0  3.903204  0
C  C52  1  0.61931790  0.65007237  0.39838196  1  0  0.219679  0.586786  0  4.198315  0
C  C53  1  0.66783393  0.84975929  0.10179175  1  0  0.216394  0.581929  0  4.205419  0
C  C54  1  0.38068473  0.34992888  0.60161773  1  0  0.219725  0.586816  0  4.198241  0
C  C55  1  0.33216570  0.15024521  0.89820525  1  0  0.216446  0.581897  0  4.205333  0
O  O56  1  0.12478310  0.08645950  0.59020429  1  0  -0.430534  -0.665441  0  2.240671  0
O  O57  1  0.80180538  0.41399100  0.90961314  1  0  -0.430259  -0.667044  0  2.241823  0
O  O58  1  0.87522638  0.91353522  0.40979993  1  0  -0.430517  -0.665429  0  2.240758  0
O  O59  1  0.19819534  0.58601026  0.09038709  1  0  -0.430272  -0.66703  0  2.241902  0
O  O60  1  0.05676164  0.88377197  0.65180485  1  0  -0.300514  -0.556386  0  2.231694  0
O  O61  1  0.59202459  0.61651091  0.84832034  1  0  -0.302268  -0.558419  0  2.232222  0
O  O62  1  0.94324282  0.11622380  0.34819579  1  0  -0.300482  -0.55634  0  2.23171  0
O  O63  1  0.40797203  0.38348708  0.15168157  1  0  -0.30223  -0.558372  0  2.232216  0
O  O64  1  0.42707420  0.95840390  0.40756911  1  0  -0.433622  -0.572927  0  2.364242  0
O  O65  1  0.79249249  0.54156486  0.09259085  1  0  -0.43261  -0.5713  0  2.365875  0
O  O66  1  0.57292470  0.04159296  0.59243112  1  0  -0.433665  -0.572947  0  2.364278  0
O  O67  1  0.20750737  0.45843641  0.90741022  1  0  -0.432599  -0.571246  0  2.365858  0
O  O68  1  0.49543256  0.74303026  0.60413258  1  0  -0.435088  -0.53174  0  2.346847  0
O  O69  1  0.84228519  0.75714785  0.89592727  1  0  -0.434888  -0.53104  0  2.346067  0
O  O70  1  0.50456684  0.25696771  0.39586794  1  0  -0.435077  -0.531752  0  2.346843  0
O  O71  1  0.15771350  0.24285120  0.10407207  1  0  -0.434898  -0.531028  0  2.346073  0
O  O72  1  0.58999070  0.59358849  0.31942815  1  0  -0.299312  -0.54074  0  2.24875  0
O  O73  1  0.50308533  0.90629187  0.18085663  1  0  -0.297607  -0.538864  0  2.249706  0
O  O74  1  0.41001213  0.40641057  0.68057244  1  0  -0.299337  -0.540736  0  2.24884  0
O  O75  1  0.49691306  0.09371377  0.81914236  1  0  -0.297631  -0.538853  0  2.249719  0
O  O76  1  0.77853269  0.65662391  0.39416322  1  0  -0.429252  -0.697147  0  2.237975  0
O  O77  1  0.82958241  0.84294139  0.10588160  1  0  -0.427913  -0.69451  0  2.240961  0
O  O78  1  0.22146576  0.34337848  0.60583869  1  0  -0.429269  -0.697182  0  2.237893  0
O  O79  1  0.17041607  0.15705984  0.89411685  1  0  -0.427927  -0.694495  0  2.240964  0
O  O80  1  0.83879068  0.04780888  0.84499344  1  0  -0.650603  -0.850031  0  1.999698  0
O  O81  1  0.73134365  0.45260228  0.65500817  1  0  -0.651478  -0.852958  0  1.998005  0
O  O82  1  0.16120937  0.95219126  0.15500534  1  0  -0.650621  -0.850042  0  1.999698  0
O  O83  1  0.26865849  0.54739682  0.34499441  1  0  -0.651495  -0.85305  0  1.997941  0
O  O84  1  0.12010537  0.28914607  0.37080669  1  0  -0.665997  -0.868237  0  1.992825  0
O  O85  1  0.78040980  0.21088308  0.12913012  1  0  -0.665998  -0.868314  0  1.994872  0
O  O86  1  0.87989489  0.71085188  0.62919299  1  0  -0.665996  -0.868213  0  1.992887  0
O  O87  1  0.21958934  0.78911927  0.87086978  1  0  -0.665998  -0.868333  0  1.994885  0
