# generated using pymatgen
data_Zr3H8C24(Cl3O8)2
_symmetry_space_group_name_H-M   'P 1'
_cell_length_a   14.77491788
_cell_length_b   14.77842655
_cell_length_c   21.00592179
_cell_angle_alpha   90.04764853
_cell_angle_beta   89.98949682
_cell_angle_gamma   89.98946517
_symmetry_Int_Tables_number   1
_chemical_formula_structural   Zr3H8C24(Cl3O8)2
_chemical_formula_sum   'Zr12 H32 C96 Cl24 O64'
_cell_volume   4586.64209289
_cell_formula_units_Z   4
loop_
 _symmetry_equiv_pos_site_id
 _symmetry_equiv_pos_as_xyz
  1  'x, y, z'
loop_
 _atom_site_type_symbol
 _atom_site_label
 _atom_site_symmetry_multiplicity
 _atom_site_fract_x
 _atom_site_fract_y
 _atom_site_fract_z
 _atom_site_occupancy
 _atom_site_pbe_bader_charge
 _atom_site_pbe_bader_spin_density
 _atom_site_pbe_cm5_charge
 _atom_site_pbe_ddec_charge
 _atom_site_pbe_ddec_spin_density
 _atom_site_pbe_ddec_sum_bond_order
 _atom_site_pbe_magmom
Zr  Zr0  1  0.38027130  0.37913184  0.50387486  1  2.639258  0  1.632126  2.381908  0  2.760082  0
Zr  Zr1  1  0.61883436  0.61816744  0.49627680  1  2.637901  0  1.629772  2.381971  0  2.753068  0
Zr  Zr2  1  0.50319924  0.50280948  0.61932010  1  2.633949  0  1.624015  2.377902  0  2.729156  0
Zr  Zr3  1  0.49533579  0.49557849  0.38064768  1  2.620558  0  1.623481  2.376828  0  2.732917  0
Zr  Zr4  1  0.37938279  0.61825190  0.50006077  1  2.638188  0  1.626146  2.379753  0  2.744872  0
Zr  Zr5  1  0.61871310  0.37922585  0.49964732  1  2.638156  0  1.630143  2.379362  0  2.757363  0
Zr  Zr6  1  0.12318985  0.88358103  0.99941332  1  2.639648  0  1.630517  2.380722  0  2.757513  0
Zr  Zr7  1  0.87701633  0.11497805  0.99967180  1  2.636787  0  1.632262  2.382454  0  2.760141  0
Zr  Zr8  1  0.11587212  0.12263589  0.99589053  1  2.638871  0  1.626814  2.377465  0  2.742908  0
Zr  Zr9  1  0.88446938  0.87624822  0.00344602  1  2.637362  0  1.630102  2.379688  0  2.75202  0
Zr  Zr10  1  0.00381911  0.00326782  0.11897669  1  2.633561  0  1.624237  2.377714  0  2.732066  0
Zr  Zr11  1  0.99636945  0.99545046  0.88028270  1  2.630389  0  1.625189  2.377173  0  2.736477  0
H  H12  1  0.31455608  0.50233542  0.59732217  1  0.603701  0  0.33232  0.425959  0  0.853026  0
H  H13  1  0.49634489  0.68430827  0.40359546  1  0.629748  0  0.331742  0.424825  0  0.853921  0
H  H14  1  0.69044060  0.50212242  0.59076298  1  0.60779  0  0.332224  0.425402  0  0.85418  0
H  H15  1  0.49615821  0.30775635  0.40878422  1  0.609544  0  0.331652  0.425078  0  0.853995  0
H  H16  1  0.19110792  0.00911401  0.09053383  1  0.60398  0  0.331649  0.425555  0  0.852686  0
H  H17  1  0.81513151  0.99605837  0.09639415  1  0.625023  0  0.332366  0.4252  0  0.853465  0
H  H18  1  0.99164580  0.18452680  0.90305913  1  0.619923  0  0.33202  0.424916  0  0.854182  0
H  H19  1  0.00432538  0.80841105  0.90829040  1  0.610043  0  0.332294  0.425964  0  0.85318  0
H  H20  1  0.09419688  0.62313816  0.45926167  1  0.154111  0  0.100398  0.120662  0  1.04922  0
H  H21  1  0.90406601  0.36813142  0.53052119  1  0.136132  0  0.10264  0.121585  0  1.033033  0
H  H22  1  0.62493295  0.09282254  0.46397787  1  0.12963  0  0.114214  0.134312  0  0.992734  0
H  H23  1  0.37700275  0.90435271  0.55003252  1  0.134343  0  0.110195  0.12925  0  1.008677  0
H  H24  1  0.87717252  0.14605352  0.72892864  1  0.156364  0  0.1103  0.129224  0  1.00998  0
H  H25  1  0.60477052  0.33104372  0.76831647  1  0.16268  0  0.106575  0.126153  0  1.024463  0
H  H26  1  0.10544999  0.83232495  0.26755006  1  0.130442  0  0.10826  0.127323  0  1.016873  0
H  H27  1  0.39005096  0.66438190  0.23234953  1  0.135178  0  0.110724  0.13044  0  1.006635  0
H  H28  1  0.13773494  0.86999421  0.72651628  1  0.141669  0  0.113118  0.13351  0  1.001851  0
H  H29  1  0.39981178  0.67290870  0.77033736  1  0.144602  0  0.115079  0.136299  0  0.991659  0
H  H30  1  0.89218539  0.16526458  0.27062296  1  0.104017  0  0.114549  0.135342  0  0.992818  0
H  H31  1  0.61378131  0.33990459  0.22893386  1  0.15714  0  0.113621  0.134008  0  0.996414  0
H  H32  1  0.73847721  0.72320729  0.13379581  1  0.119044  0  0.111611  0.13299  0  1.005899  0
H  H33  1  0.77755897  0.75684062  0.36531787  1  0.140123  0  0.103429  0.127357  0  1.02679  0
H  H34  1  0.28387423  0.25021931  0.86531955  1  0.143747  0  0.107526  0.128819  0  1.022607  0
H  H35  1  0.22903765  0.23497335  0.63437421  1  0.132961  0  0.103772  0.127571  0  1.025365  0
H  H36  1  0.83343071  0.89243223  0.73265993  1  0.128957  0  0.114992  0.136848  0  0.99032  0
H  H37  1  0.65076733  0.61804395  0.76876741  1  0.154965  0  0.114426  0.136281  0  0.992687  0
H  H38  1  0.13785300  0.13096557  0.26832236  1  0.106445  0  0.114489  0.136262  0  0.994355  0
H  H39  1  0.33136725  0.39760435  0.23214669  1  0.132694  0  0.115276  0.137419  0  0.989705  0
H  H40  1  0.40107420  0.86827443  0.01643891  1  0.13683  0  0.102701  0.124365  0  1.03398  0
H  H41  1  0.59917954  0.12863830  0.97214248  1  0.14303  0  0.101696  0.122441  0  1.043179  0
H  H42  1  0.86501452  0.59597681  0.99027274  1  0.155378  0  0.108235  0.129106  0  1.014787  0
H  H43  1  0.13250266  0.40258507  0.02444528  1  0.135401  0  0.104164  0.125515  0  1.031258  0
C  C44  1  0.19569073  0.49357556  0.50240072  1  1.575034  0  0.238045  0.65389  0  4.087189  0
C  C45  1  0.50259038  0.80219932  0.49897792  1  1.540523  0  0.236625  0.65188  0  4.093036  0
C  C46  1  0.80240963  0.50101381  0.49092260  1  1.530942  0  0.237374  0.654014  0  4.089011  0
C  C47  1  0.49661775  0.19526385  0.50945049  1  1.607135  0  0.237683  0.65276  0  4.09308  0
C  C48  1  0.35920711  0.34776900  0.65715906  1  1.572079  0  0.237921  0.653419  0  4.082204  0
C  C49  1  0.33725312  0.35049317  0.35232197  1  1.582105  0  0.237963  0.652485  0  4.086234  0
C  C50  1  0.64943035  0.64134236  0.34280201  1  1.564608  0  0.237675  0.651534  0  4.080151  0
C  C51  1  0.64928882  0.65982702  0.64801473  1  1.578176  0  0.238271  0.65203  0  4.085884  0
C  C52  1  0.35744222  0.66506284  0.64925098  1  1.578259  0  0.237455  0.652575  0  4.088039  0
C  C53  1  0.65324461  0.34454606  0.64907852  1  1.588379  0  0.237419  0.653  0  4.087287  0
C  C54  1  0.65390662  0.34690477  0.34992493  1  1.577093  0  0.237894  0.652967  0  4.086214  0
C  C55  1  0.33716939  0.64529074  0.35044550  1  1.581076  0  0.237482  0.652562  0  4.086387  0
C  C56  1  0.15892168  0.85184519  0.14965031  1  1.55869  0  0.237653  0.652922  0  4.087998  0
C  C57  1  0.84910267  0.15434977  0.15005845  1  1.558963  0  0.237545  0.65248  0  4.088145  0
C  C58  1  0.83375014  0.13914013  0.84945449  1  1.56294  0  0.236745  0.652134  0  4.089844  0
C  C59  1  0.16258063  0.85616581  0.84930173  1  1.569269  0  0.237864  0.652595  0  4.08454  0
C  C60  1  0.30331830  0.00951816  0.99161982  1  1.563005  0  0.237429  0.652963  0  4.084133  0
C  C61  1  0.00774268  0.69619484  0.00847240  1  1.561197  0  0.238429  0.654296  0  4.083757  0
C  C62  1  0.69683128  0.98872097  0.00062284  1  1.554761  0  0.237991  0.653942  0  4.082461  0
C  C63  1  0.99153776  0.30270071  0.99978076  1  1.539892  0  0.238194  0.6525  0  4.08359  0
C  C64  1  0.14437378  0.16710892  0.14696245  1  1.564393  0  0.238363  0.653202  0  4.083014  0
C  C65  1  0.14727764  0.14464712  0.84283619  1  1.571395  0  0.238417  0.653491  0  4.084533  0
C  C66  1  0.84364980  0.84386011  0.85230560  1  1.571793  0  0.238073  0.653106  0  4.084092  0
C  C67  1  0.86270145  0.84355293  0.15646996  1  1.555941  0  0.237663  0.652758  0  4.082787  0
C  C68  1  0.90363735  0.50109612  0.49023056  1  0.035267  0  -0.011907  -0.07157  0  3.920234  0
C  C69  1  0.09451978  0.49102311  0.50027712  1  0.039214  0  -0.011899  -0.069801  0  3.914817  0
C  C70  1  0.95812027  0.57378296  0.46971934  1  0.099962  0  0.022283  0.136825  0  4.009969  0
C  C71  1  0.04012159  0.41781828  0.52021787  1  0.028269  0  0.021334  0.135319  0  4.008785  0
C  C72  1  0.05172117  0.56754138  0.47522412  1  -0.036183  0  -0.08545  -0.146409  0  3.953775  0
C  C73  1  0.94641173  0.42399692  0.51465738  1  0.059269  0  -0.086617  -0.152344  0  3.961207  0
C  C74  1  0.50467281  0.90329055  0.50149382  1  0.088175  0  -0.011701  -0.072869  0  3.925643  0
C  C75  1  0.49658484  0.09398834  0.51144741  1  0.07453  0  -0.011321  -0.070389  0  3.92038  0
C  C76  1  0.57545245  0.95717801  0.47720283  1  0.015932  0  0.01999  0.131063  0  4.022361  0
C  C77  1  0.42654756  0.03999377  0.53667283  1  0.004324  0  0.021994  0.13265  0  4.016818  0
C  C78  1  0.57056045  0.05091065  0.48280618  1  -0.025028  0  -0.083019  -0.149966  0  3.952298  0
C  C79  1  0.43134075  0.94621851  0.53105899  1  0.072058  0  -0.081597  -0.143476  0  3.939936  0
C  C80  1  0.70108117  0.28878534  0.69826856  1  0.007939  0  -0.011238  -0.071507  0  3.91125  0
C  C81  1  0.78198521  0.18978173  0.79936774  1  0.004293  0  -0.01177  -0.07375  0  3.913441  0
C  C82  1  0.77860406  0.23499871  0.68721282  1  0.019687  0  0.022545  0.135709  0  4.006523  0
C  C83  1  0.70394938  0.24287808  0.81018100  1  0.034187  0  0.02278  0.136068  0  4.007503  0
C  C84  1  0.81694872  0.18678219  0.73738636  1  0.057108  0  -0.084566  -0.148826  0  3.951912  0
C  C85  1  0.66521695  0.29060808  0.75995403  1  0.030047  0  -0.084087  -0.146496  0  3.949658  0
C  C86  1  0.28765937  0.69844536  0.30054262  1  0.059084  0  -0.011383  -0.070825  0  3.911214  0
C  C87  1  0.20811089  0.79861887  0.19956271  1  0.035133  0  -0.010862  -0.071429  0  3.914454  0
C  C88  1  0.20699456  0.74778318  0.31035666  1  -0.000709  0  0.022362  0.133882  0  4.010352  0
C  C89  1  0.28978466  0.75085505  0.19004660  1  0.038516  0  0.021011  0.133839  0  4.014162  0
C  C90  1  0.16853488  0.79570936  0.26008926  1  0.04484  0  -0.082375  -0.14322  0  3.943562  0
C  C91  1  0.32721102  0.70136498  0.23993943  1  0.02497  0  -0.084616  -0.151104  0  3.950405  0
C  C92  1  0.31189994  0.72398834  0.69783987  1  0.023483  0  -0.011965  -0.077018  0  3.914345  0
C  C93  1  0.22230227  0.81468796  0.79933885  1  0.010774  0  -0.011301  -0.072236  0  3.906766  0
C  C94  1  0.23914644  0.78362050  0.68531938  1  0.053987  0  0.022054  0.135541  0  4.008674  0
C  C95  1  0.30012059  0.76158611  0.81124253  1  0.083835  0  0.023478  0.135036  0  4.011988  0
C  C96  1  0.19559186  0.82639710  0.73589998  1  0.00805  0  -0.08401  -0.150629  0  3.954371  0
C  C97  1  0.34199953  0.71657614  0.76089369  1  -0.000344  0  -0.083141  -0.147761  0  3.950223  0
C  C98  1  0.70854658  0.29869544  0.30023319  1  -0.026418  0  -0.011511  -0.072609  0  3.914969  0
C  C99  1  0.79694165  0.20582358  0.19943869  1  -0.019455  0  -0.011732  -0.074054  0  3.914608  0
C  C100  1  0.78871860  0.24918695  0.31185118  1  0.064923  0  0.022301  0.133387  0  4.014166  0
C  C101  1  0.71712154  0.25585842  0.18772895  1  0.060618  0  0.022535  0.13581  0  4.010712  0
C  C102  1  0.83075185  0.20390780  0.26172933  1  0.093156  0  -0.083048  -0.147937  0  3.950948  0
C  C103  1  0.67518168  0.30123230  0.23785701  1  0.042262  0  -0.083977  -0.15132  0  3.955919  0
C  C104  1  0.70333737  0.68922071  0.29237724  1  0.015487  0  -0.012031  -0.071738  0  3.901372  0
C  C105  1  0.81293297  0.79104643  0.20676458  1  -0.000602  0  -0.011724  -0.07274  0  3.903862  0
C  C106  1  0.69290828  0.67936268  0.22589662  1  0.037538  0  0.022384  0.137449  0  4.008199  0
C  C107  1  0.82441328  0.79970125  0.27323525  1  0.069106  0  0.021661  0.136189  0  4.007833  0
C  C108  1  0.74715222  0.72999929  0.18499900  1  0.071073  0  -0.084421  -0.148305  0  3.947927  0
C  C109  1  0.76965355  0.74964389  0.31410071  1  0.026464  0  -0.089193  -0.157166  0  3.971724  0
C  C110  1  0.31023332  0.29445842  0.70722536  1  -0.006664  0  -0.011517  -0.071725  0  3.907217  0
C  C111  1  0.20175596  0.19171417  0.79251825  1  0.015253  0  -0.011163  -0.071132  0  3.905225  0
C  C112  1  0.32641739  0.29787932  0.77340047  1  0.040203  0  0.022456  0.137466  0  4.007926  0
C  C113  1  0.18721880  0.18627386  0.72619153  1  0.049932  0  0.020857  0.135477  0  4.008376  0
C  C114  1  0.27220594  0.24725012  0.81424859  1  0.039995  0  -0.084483  -0.147042  0  3.948875  0
C  C115  1  0.24086164  0.23762719  0.68543506  1  0.056512  0  -0.08956  -0.15794  0  3.976196  0
C  C116  1  0.69649380  0.71310339  0.69899481  1  0.027944  0  -0.011535  -0.073792  0  3.913643  0
C  C117  1  0.78911284  0.79629528  0.80220599  1  0.032822  0  -0.011527  -0.072953  0  3.911023  0
C  C118  1  0.74753237  0.79266769  0.68918710  1  0.039579  0  0.021805  0.133592  0  4.021086  0
C  C119  1  0.73556779  0.71850562  0.81235477  1  0.014756  0  0.021592  0.13363  0  4.017229  0
C  C120  1  0.79294706  0.83190701  0.74038741  1  0.067432  0  -0.08223  -0.146057  0  3.942228  0
C  C121  1  0.69099580  0.67871672  0.76104618  1  -0.005299  0  -0.084171  -0.148871  0  3.950872  0
C  C122  1  0.28123712  0.30498817  0.30209500  1  0.025262  0  -0.01158  -0.074187  0  3.911971  0
C  C123  1  0.19035833  0.22151210  0.19804149  1  0.00416  0  -0.011665  -0.073897  0  3.909908  0
C  C124  1  0.22425764  0.22965580  0.31227852  1  -0.004329  0  0.022027  0.135045  0  4.018695  0
C  C125  1  0.24475819  0.29886683  0.18830241  1  0.08648  0  0.022455  0.133775  0  4.016445  0
C  C126  1  0.18052496  0.18991396  0.26057952  1  0.086242  0  -0.084891  -0.150192  0  3.950805  0
C  C127  1  0.28866211  0.33864178  0.23993381  1  0.018711  0  -0.083059  -0.14656  0  3.944429  0
C  C128  1  0.59553827  0.98910360  0.99816544  1  -0.00091  0  -0.011779  -0.070488  0  3.908001  0
C  C129  1  0.40467404  0.00815120  0.99117632  1  0.027906  0  -0.011855  -0.070494  0  3.910892  0
C  C130  1  0.53874049  0.91448930  0.01071896  1  0.046619  0  0.021462  0.137519  0  4.011208  0
C  C131  1  0.46151248  0.08261933  0.97845185  1  0.045728  0  0.021709  0.137123  0  4.01025  0
C  C132  1  0.44534526  0.92532613  0.00663933  1  0.055961  0  -0.088816  -0.156492  0  3.968898  0
C  C133  1  0.55490913  0.07166994  0.98212252  1  0.065225  0  -0.086233  -0.149723  0  3.957177  0
C  C134  1  0.99090799  0.40388982  0.00360458  1  0.011044  0  -0.01227  -0.072177  0  3.911417  0
C  C135  1  0.00700455  0.59489495  0.01032322  1  0.046416  0  -0.012719  -0.075575  0  3.916615  0
C  C136  1  0.91410970  0.45934803  0.99467974  1  0.100266  0  0.020669  0.136351  0  4.013968  0
C  C137  1  0.08327199  0.53935715  0.02090047  1  0.034447  0  0.021564  0.138216  0  4.010489  0
C  C138  1  0.92369664  0.55295116  0.99810842  1  -0.050735  0  -0.085637  -0.148364  0  3.951397  0
C  C139  1  0.07388479  0.44577397  0.01691051  1  0.068801  0  -0.085831  -0.14836  0  3.948782  0
Cl  Cl140  1  0.91617710  0.67125875  0.43553833  1  -0.177608  0  0.006692  -0.060335  0  1.589413  0
Cl  Cl141  1  0.08194770  0.32005424  0.55438500  1  -0.184891  0  -5.9e-05  -0.066739  0  1.55581  0
Cl  Cl142  1  0.66799820  0.91393280  0.43706168  1  -0.184681  0  -0.002474  -0.064899  0  1.526866  0
Cl  Cl143  1  0.33485518  0.08378590  0.57724348  1  -0.177875  0  0.0033  -0.060637  0  1.553927  0
Cl  Cl144  1  0.83315200  0.22611704  0.61469523  1  -0.179651  0  0.005745  -0.061737  0  1.541501  0
Cl  Cl145  1  0.65006732  0.25293102  0.88275031  1  -0.174024  0  0.011891  -0.054941  0  1.604244  0
Cl  Cl146  1  0.14958350  0.75258150  0.38180640  1  -0.169963  0  0.013828  -0.055607  0  1.587431  0
Cl  Cl147  1  0.35076794  0.75216065  0.11988186  1  -0.181182  0  0.004398  -0.063296  0  1.582905  0
Cl  Cl148  1  0.19726679  0.80735055  0.61037445  1  -0.16832  0  0.004984  -0.05862  0  1.511031  0
Cl  Cl149  1  0.34907894  0.74861650  0.88526708  1  -0.173868  0  0.004787  -0.055176  0  1.520446  0
Cl  Cl150  1  0.84135231  0.24238905  0.38507895  1  -0.178226  0  0.001969  -0.057073  0  1.505218  0
Cl  Cl151  1  0.66430640  0.26306375  0.11459128  1  -0.170899  0  0.000449  -0.060128  0  1.515999  0
Cl  Cl152  1  0.61533393  0.60808541  0.19025225  1  -0.175855  0  0.001385  -0.060446  0  1.495674  0
Cl  Cl153  1  0.90351604  0.86927189  0.30897091  1  -0.173667  0  0.004926  -0.056985  0  1.524136  0
Cl  Cl154  1  0.41068898  0.36154733  0.80861136  1  -0.172517  0  0.006547  -0.057397  0  1.528558  0
Cl  Cl155  1  0.10520944  0.12007736  0.69052227  1  -0.179362  0  0.0033  -0.057216  0  1.514994  0
Cl  Cl156  1  0.75604515  0.84674894  0.61668330  1  -0.168729  0  0.000686  -0.060358  0  1.508102  0
Cl  Cl157  1  0.72283011  0.66575526  0.88515010  1  -0.168975  0  0.001693  -0.065549  0  1.52958  0
Cl  Cl158  1  0.20653955  0.18007703  0.38556116  1  -0.163578  0  -0.000253  -0.062662  0  1.501593  0
Cl  Cl159  1  0.26161863  0.34945743  0.11524435  1  -0.177224  0  0.009449  -0.06013  0  1.56245  0
Cl  Cl160  1  0.57722938  0.80891274  0.03327015  1  -0.175006  0  -0.000382  -0.06406  0  1.536542  0
Cl  Cl161  1  0.42297667  0.18867847  0.95722091  1  -0.179663  0  0.005735  -0.061064  0  1.563061  0
Cl  Cl162  1  0.80741731  0.41887836  0.97716449  1  -0.170201  0  -0.004381  -0.071346  0  1.54569  0
Cl  Cl163  1  0.18920203  0.58032518  0.04001165  1  -0.173927  0  -0.002279  -0.066259  0  1.548348  0
O  O164  1  0.23700390  0.41796077  0.50454768  1  -1.161683  0  -0.359558  -0.617153  0  2.358877  0
O  O165  1  0.57847902  0.76126021  0.49754238  1  -1.175279  0  -0.359064  -0.621453  0  2.360987  0
O  O166  1  0.76244349  0.57742222  0.49226766  1  -1.167953  0  -0.356781  -0.616322  0  2.337354  0
O  O167  1  0.42011308  0.23501613  0.50741146  1  -1.168877  0  -0.356295  -0.619217  0  2.332587  0
O  O168  1  0.41515557  0.40879134  0.67435941  1  -1.165462  0  -0.355395  -0.620497  0  2.325337  0
O  O169  1  0.39864808  0.40461933  0.33200577  1  -1.181697  0  -0.361161  -0.62214  0  2.279446  0
O  O170  1  0.58843162  0.58529948  0.32581577  1  -1.172674  0  -0.354213  -0.618553  0  2.331687  0
O  O171  1  0.59363126  0.59945982  0.66774033  1  -1.187802  0  -0.363038  -0.622962  0  2.291515  0
O  O172  1  0.33625193  0.67720425  0.59105374  1  -1.171046  0  -0.361409  -0.622214  0  2.371413  0
O  O173  1  0.67086057  0.32790952  0.59087320  1  -1.17036  0  -0.358442  -0.618072  0  2.361826  0
O  O174  1  0.66889732  0.32655726  0.40792498  1  -1.166417  0  -0.358373  -0.619777  0  2.351178  0
O  O175  1  0.32119858  0.66420203  0.40858187  1  -1.162253  0  -0.356795  -0.620075  0  2.337845  0
O  O176  1  0.59811128  0.40471216  0.66915642  1  -1.18138  0  -0.347094  -0.609471  0  2.257551  0
O  O177  1  0.59423801  0.40291352  0.33047162  1  -1.176269  0  -0.347431  -0.609329  0  2.265206  0
O  O178  1  0.39427071  0.58675680  0.33074974  1  -1.180314  0  -0.347134  -0.608893  0  2.260393  0
O  O179  1  0.41272862  0.60536450  0.66959990  1  -1.176007  0  -0.345071  -0.607686  0  2.256086  0
O  O180  1  0.33879861  0.32873627  0.59969863  1  -1.171957  0  -0.351131  -0.61144  0  2.324238  0
O  O181  1  0.66868050  0.67495438  0.59013375  1  -1.165581  0  -0.342322  -0.602583  0  2.324089  0
O  O182  1  0.66864344  0.66174479  0.40030339  1  -1.15895  0  -0.351133  -0.61285  0  2.312744  0
O  O183  1  0.32191383  0.33235710  0.41035511  1  -1.166856  0  -0.344136  -0.602736  0  2.340886  0
O  O184  1  0.57371954  0.23383373  0.50679088  1  -1.182069  0  -0.347277  -0.605196  0  2.269524  0
O  O185  1  0.23320069  0.57134625  0.50118522  1  -1.172225  0  -0.346183  -0.60865  0  2.263812  0
O  O186  1  0.42490133  0.76467686  0.49916286  1  -1.170328  0  -0.345566  -0.603276  0  2.261632  0
O  O187  1  0.76370628  0.42391689  0.49280343  1  -1.176951  0  -0.349208  -0.611483  0  2.293921  0
O  O188  1  0.49689570  0.36208589  0.43468563  1  -1.241707  0  -0.693736  -1.070058  0  2.356229  0
O  O189  1  0.63607760  0.50100920  0.56493155  1  -1.240355  0  -0.694593  -1.06964  0  2.361583  0
O  O190  1  0.49657432  0.63130173  0.43076083  1  -1.260985  0  -0.694451  -1.069107  0  2.362891  0
O  O191  1  0.36724972  0.50134061  0.56980909  1  -1.236993  0  -0.693455  -1.06829  0  2.357496  0
O  O192  1  0.50079757  0.59958299  0.54791824  1  -1.198139  0  -0.790065  -1.149131  0  2.126986  0
O  O193  1  0.39855082  0.49734636  0.45223523  1  -1.19116  0  -0.790686  -1.149917  0  2.127006  0
O  O194  1  0.59679267  0.49727257  0.44865910  1  -1.194568  0  -0.790934  -1.148785  0  2.12665  0
O  O195  1  0.50126007  0.40131742  0.55110593  1  -1.192939  0  -0.7922  -1.149856  0  2.128948  0
O  O196  1  0.17643958  0.83412205  0.09164653  1  -1.15804  0  -0.354302  -0.616201  0  2.351793  0
O  O197  1  0.83080952  0.17005425  0.09193252  1  -1.158082  0  -0.355481  -0.614125  0  2.363836  0
O  O198  1  0.81821921  0.15895869  0.90741925  1  -1.161837  0  -0.353384  -0.615744  0  2.346932  0
O  O199  1  0.17684390  0.83444326  0.90707578  1  -1.164191  0  -0.354704  -0.614976  0  2.347837  0
O  O200  1  0.26245280  0.08540589  0.99225879  1  -1.174485  0  -0.351709  -0.614246  0  2.322797  0
O  O201  1  0.92992103  0.73435129  0.00787981  1  -1.168555  0  -0.360803  -0.617717  0  2.296467  0
O  O202  1  0.73814510  0.91320506  0.00289170  1  -1.168848  0  -0.351796  -0.613147  0  2.335064  0
O  O203  1  0.06960288  0.26537190  0.99595721  1  -1.166511  0  -0.358127  -0.615429  0  2.284257  0
O  O204  1  0.09016407  0.10550323  0.16657906  1  -1.174977  0  -0.359476  -0.620065  0  2.288801  0
O  O205  1  0.08708034  0.08793626  0.82576733  1  -1.171778  0  -0.353255  -0.617972  0  2.341338  0
O  O206  1  0.90315965  0.89985600  0.83191294  1  -1.182859  0  -0.358678  -0.619144  0  2.276114  0
O  O207  1  0.91900802  0.90420432  0.17347976  1  -1.167033  0  -0.351342  -0.617607  0  2.326388  0
O  O208  1  0.16520937  0.16658027  0.90031715  1  -1.168222  0  -0.353521  -0.611135  0  2.292504  0
O  O209  1  0.82836665  0.82591965  0.91045066  1  -1.159215  0  -0.347209  -0.609956  0  2.337341  0
O  O210  1  0.84238504  0.82423798  0.09893184  1  -1.168248  0  -0.352796  -0.611872  0  2.294905  0
O  O211  1  0.16347574  0.18275864  0.08900785  1  -1.160553  0  -0.34551  -0.609558  0  2.320699  0
O  O212  1  0.26498121  0.93213117  0.99337435  1  -1.181584  0  -0.355019  -0.613867  0  2.322698  0
O  O213  1  0.91641963  0.26088968  0.00039224  1  -1.169068  0  -0.348964  -0.606208  0  2.345312  0
O  O214  1  0.73470793  0.06644511  0.00023091  1  -1.174008  0  -0.355201  -0.614349  0  2.308734  0
O  O215  1  0.08318473  0.73722161  0.00543944  1  -1.170281  0  -0.34623  -0.605801  0  2.33132  0
O  O216  1  0.09909376  0.90801486  0.82995123  1  -1.174975  0  -0.350246  -0.611702  0  2.270378  0
O  O217  1  0.10202338  0.91076072  0.16929761  1  -1.172888  0  -0.349708  -0.610978  0  2.259409  0
O  O218  1  0.90836920  0.09807540  0.16999727  1  -1.175203  0  -0.349789  -0.612216  0  2.262924  0
O  O219  1  0.89236673  0.08182080  0.82999226  1  -1.175245  0  -0.349842  -0.612119  0  2.26335  0
O  O220  1  0.00246455  0.86262788  0.93428811  1  -1.241924  0  -0.693968  -1.070479  0  2.358119  0
O  O221  1  0.99353617  0.13150519  0.93017726  1  -1.250107  0  -0.694053  -1.068927  0  2.360947  0
O  O222  1  0.86808891  0.99690692  0.06914247  1  -1.255907  0  -0.694997  -1.069711  0  2.364852  0
O  O223  1  0.13674708  0.00649389  0.06475147  1  -1.236563  0  -0.693351  -1.069164  0  2.355602  0
O  O224  1  0.99867580  0.09999568  0.04756746  1  -1.20063  0  -0.790501  -1.149627  0  2.129974  0
O  O225  1  0.00498052  0.90194019  0.05069141  1  -1.192577  0  -0.791213  -1.14968  0  2.12809  0
O  O226  1  0.89957055  0.99446488  0.95166617  1  -1.20015  0  -0.791702  -1.150613  0  2.129045  0
O  O227  1  0.09761795  0.00101951  0.94854373  1  -1.190829  0  -0.790284  -1.148065  0  2.127876  0
