# generated using pymatgen
data_MgH3C7SO3
_symmetry_space_group_name_H-M   'P 1'
_cell_length_a   6.87753391
_cell_length_b   25.73864861
_cell_length_c   25.72249625
_cell_angle_alpha   119.28002028
_cell_angle_beta   95.10710118
_cell_angle_gamma   95.06839286
_symmetry_Int_Tables_number   1
_chemical_formula_structural   MgH3C7SO3
_chemical_formula_sum   'Mg6 H18 C42 S6 O18'
_cell_volume   3910.00715651
_cell_formula_units_Z   6
loop_
 _symmetry_equiv_pos_site_id
 _symmetry_equiv_pos_as_xyz
  1  'x, y, z'
loop_
 _atom_site_type_symbol
 _atom_site_label
 _atom_site_symmetry_multiplicity
 _atom_site_fract_x
 _atom_site_fract_y
 _atom_site_fract_z
 _atom_site_occupancy
 _atom_site_pbe_bader_charge
 _atom_site_pbe_bader_spin_density
 _atom_site_pbe_cm5_charge
 _atom_site_pbe_ddec_charge
 _atom_site_pbe_ddec_spin_density
 _atom_site_pbe_ddec_sum_bond_order
 _atom_site_pbe_magmom
Mg  Mg0  1  0.60073783  0.66901874  0.29358535  1  1.684992  0  0.907077  1.413727  0  1.32238  0
Mg  Mg1  1  0.30704689  0.70660859  0.37560520  1  1.682536  0  0.907325  1.414796  0  1.321326  0
Mg  Mg2  1  0.93179460  0.62458111  0.33109936  1  1.684914  0  0.907175  1.414314  0  1.321998  0
Mg  Mg3  1  0.65341135  0.32009744  0.69905157  1  1.682745  0  0.907755  1.40671  0  1.329425  0
Mg  Mg4  1  0.95436625  0.30111677  0.62080642  1  1.683665  0  0.907885  1.407419  0  1.328258  0
Mg  Mg5  1  0.33324332  0.37928505  0.68008261  1  1.68341  0  0.9078  1.407123  0  1.329052  0
H  H6  1  0.39679631  0.84607033  0.36757045  1  0.08939  0  0.107672  0.134401  0  0.98646  0
H  H7  1  0.02866918  0.63236453  0.47829796  1  0.101427  0  0.1076  0.134224  0  0.987406  0
H  H8  1  0.55124492  0.52153467  0.15406042  1  0.101922  0  0.107746  0.134928  0  0.986915  0
H  H9  1  0.10063835  0.87518555  0.45224084  1  0.102593  0  0.107998  0.113043  0  0.992014  0
H  H10  1  0.64883128  0.54798818  0.42313906  1  0.118849  0  0.107847  0.113019  0  0.99244  0
H  H11  1  0.22637221  0.57642358  0.12479290  1  0.1034  0  0.107919  0.113621  0  0.99147  0
H  H12  1  0.95183321  0.96393871  0.46246287  1  0.079327  0  0.091563  0.100789  0  1.045207  0
H  H13  1  0.48924093  0.53770049  0.50156801  1  0.081178  0  0.091399  0.100429  0  1.045328  0
H  H14  1  0.98866409  0.49778116  0.03599263  1  0.053245  0  0.091421  0.100386  0  1.0449  0
H  H15  1  0.87762098  0.15301926  0.55870838  1  0.07185  0  0.105024  0.13218  0  1.021758  0
H  H16  1  0.31730613  0.44137059  0.59408352  1  0.091057  0  0.105246  0.132675  0  1.021612  0
H  H17  1  0.72404878  0.40590071  0.84709204  1  0.101754  0  0.105432  0.132726  0  1.022177  0
H  H18  1  0.15043523  0.13256532  0.51325114  1  0.063427  0  0.098943  0.097976  0  1.032945  0
H  H19  1  0.63530623  0.48667324  0.61915336  1  0.078389  0  0.09926  0.09798  0  1.033125  0
H  H20  1  0.01736493  0.38055770  0.86746789  1  0.05967  0  0.099  0.097169  0  1.032738  0
H  H21  1  0.31781192  0.04515393  0.45313523  1  0.099008  0  0.091706  0.100982  0  1.042512  0
H  H22  1  0.86218267  0.54665015  0.59165908  1  0.094411  0  0.091747  0.101556  0  1.042638  0
H  H23  1  0.27204124  0.40758509  0.95477111  1  0.054622  0  0.091725  0.101513  0  1.041983  0
C  C24  1  0.66710345  0.90999645  0.41343300  1  -0.171298  0  -0.006571  0.102783  0  4.063689  0
C  C25  1  0.25320689  0.58661098  0.49651275  1  -0.201194  0  -0.006508  0.10385  0  4.064465  0
C  C26  1  0.75758214  0.50314351  0.09001414  1  -0.183993  0  -0.006002  0.10471  0  4.064268  0
C  C27  1  0.55141506  0.85328940  0.38678884  1  -0.038135  0  -0.114464  -0.272062  0  3.925334  0
C  C28  1  0.16437732  0.61326799  0.46643748  1  -0.076958  0  -0.11445  -0.272527  0  3.926587  0
C  C29  1  0.69867191  0.53338130  0.14679677  1  -0.055196  0  -0.115004  -0.27425  0  3.924982  0
C  C30  1  0.63293264  0.80270173  0.38097017  1  0.600829  0  0.097091  0.384452  0  4.084146  0
C  C31  1  0.25221285  0.61923967  0.42183149  1  0.64177  0  0.097318  0.384097  0  4.083498  0
C  C32  1  0.83089895  0.57812698  0.19739786  1  0.629492  0  0.097379  0.384829  0  4.080159  0
C  C33  1  0.83866310  0.81113906  0.40337853  1  -0.014725  0  -0.046708  -0.22312  0  3.96479  0
C  C34  1  0.43578782  0.59691462  0.40795251  1  -0.044535  0  -0.046355  -0.22003  0  3.962142  0
C  C35  1  0.02827803  0.59192604  0.18892619  1  -0.003164  0  -0.046246  -0.220379  0  3.96285  0
C  C36  1  0.94589441  0.86991875  0.43432603  1  -0.062838  0  -0.081073  -0.040864  0  4.00621  0
C  C37  1  0.51194274  0.56593995  0.43576746  1  -0.027208  0  -0.080923  -0.04216  0  4.006657  0
C  C38  1  0.07678046  0.56389262  0.13009338  1  -0.04195  0  -0.080973  -0.043528  0  4.005253  0
C  C39  1  0.86399414  0.91928776  0.43997505  1  0.013784  0  -0.117682  -0.18265  0  4.045697  0
C  C40  1  0.42398165  0.56020530  0.47939577  1  0.009721  0  -0.117487  -0.182366  0  4.045711  0
C  C41  1  0.94542529  0.52016152  0.08069865  1  0.004646  0  -0.118049  -0.182404  0  4.04367  0
C  C42  1  0.94793579  0.76082157  0.39150227  1  1.516559  0  0.23423  0.675913  0  4.133975  0
C  C43  1  0.55692224  0.60879018  0.36951957  1  1.499783  0  0.233964  0.67436  0  4.133719  0
C  C44  1  0.18764387  0.63045367  0.23925249  1  1.503686  0  0.234677  0.676569  0  4.132276  0
C  C45  1  0.60943372  0.09432801  0.50094326  1  -0.184117  0  -0.005923  0.105868  0  4.062613  0
C  C46  1  0.10640578  0.49899988  0.59315455  1  -0.152124  0  -0.005479  0.106491  0  4.062082  0
C  C47  1  0.51450245  0.40647485  0.90565767  1  -0.195942  0  -0.005883  0.105011  0  4.064447  0
C  C48  1  0.71735879  0.14758958  0.54852950  1  -0.053176  0  -0.115217  -0.27641  0  3.920668  0
C  C49  1  0.16713453  0.45148388  0.59883436  1  -0.026031  0  -0.115864  -0.277524  0  3.922197  0
C  C50  1  0.56925598  0.40105497  0.85249466  1  -0.011333  0  -0.116017  -0.277381  0  3.923272  0
C  C51  1  0.62422603  0.19733844  0.58420723  1  0.629329  0  0.098424  0.385475  0  4.071124  0
C  C52  1  0.03883228  0.41585568  0.61293704  1  0.60501  0  0.098693  0.385588  0  4.072861  0
C  C53  1  0.42653563  0.38712217  0.80280552  1  0.575821  0  0.098452  0.385265  0  4.071269  0
C  C54  1  0.41438988  0.19171225  0.56957067  1  -0.018718  0  -0.046286  -0.219231  0  3.958785  0
C  C55  1  0.84356715  0.43051414  0.62202461  1  -0.022238  0  -0.046162  -0.220207  0  3.959988  0
C  C56  1  0.22231496  0.37799170  0.80838510  1  0.030594  0  -0.046496  -0.220215  0  3.959032  0
C  C57  1  0.30966931  0.13585175  0.52346449  1  -0.006331  0  -0.082937  -0.042579  0  4.012989  0
C  C58  1  0.78445729  0.47653075  0.61224655  1  0.010064  0  -0.082778  -0.040662  0  4.010123  0
C  C59  1  0.17332096  0.38749266  0.86417150  1  -0.027617  0  -0.082172  -0.039956  0  4.008581  0
C  C60  1  0.40223757  0.08720183  0.48947962  1  0.040342  0  -0.115396  -0.178582  0  4.042346  0
C  C61  1  0.91066403  0.51043781  0.59749322  1  -0.048683  0  -0.115921  -0.180538  0  4.041283  0
C  C62  1  0.31446090  0.40201352  0.91276612  1  0.044945  0  -0.115644  -0.17928  0  4.041049  0
C  C63  1  0.30456132  0.24273301  0.59651532  1  1.496049  0  0.234643  0.676089  0  4.133534  0
C  C64  1  0.70716943  0.40357388  0.64609151  1  1.484458  0  0.235761  0.676816  0  4.131799  0
C  C65  1  0.06165175  0.35409278  0.75737848  1  1.483807  0  0.23529  0.676082  0  4.131078  0
S  S66  1  0.75034683  0.04272561  0.45084384  1  0.050084  0  0.03592  0.001089  0  2.742237  0
S  S67  1  0.29739744  0.54895620  0.59167271  1  0.053313  0  0.036017  0.001381  0  2.743231  0
S  S68  1  0.70704864  0.40788363  0.95710253  1  0.053188  0  0.03634  0.00175  0  2.743612  0
S  S69  1  0.55923186  0.96364097  0.40077207  1  0.061843  0  0.030576  -0.007334  0  2.722774  0
S  S70  1  0.15677072  0.59906650  0.56263755  1  0.058467  0  0.030316  -0.007995  0  2.722731  0
S  S71  1  0.59560075  0.43696245  0.03636409  1  0.059057  0  0.030129  -0.00817  0  2.724323  0
O  O72  1  0.13095835  0.77017846  0.41203270  1  -1.239664  0  -0.360424  -0.650578  0  2.137061  0
O  O73  1  0.71950386  0.58827187  0.35831118  1  -1.24808  0  -0.360037  -0.650291  0  2.13756  0
O  O74  1  0.36132159  0.64159794  0.22991757  1  -1.242444  0  -0.360466  -0.650947  0  2.136501  0
O  O75  1  0.85457145  0.70645990  0.35718451  1  -1.305053  0  -0.404167  -0.771108  0  2.417191  0
O  O76  1  0.49766379  0.64308706  0.34948943  1  -1.286167  0  -0.404896  -0.771061  0  2.416326  0
O  O77  1  0.14838378  0.65067412  0.29364564  1  -1.299808  0  -0.405169  -0.772215  0  2.41521  0
O  O78  1  0.51593924  0.74907480  0.35323899  1  -1.316512  0  -0.445799  -0.780813  0  2.311808  0
O  O79  1  0.16308119  0.64699954  0.39595860  1  -1.308908  0  -0.446149  -0.781231  0  2.313174  0
O  O80  1  0.76748609  0.60417588  0.25107739  1  -1.314229  0  -0.445945  -0.780781  0  2.311646  0
O  O81  1  0.12358469  0.23789862  0.57646528  1  -1.250193  0  -0.357478  -0.648118  0  2.16464  0
O  O82  1  0.54618391  0.42363011  0.66133750  1  -1.245166  0  -0.35862  -0.648232  0  2.164086  0
O  O83  1  0.88547932  0.33890820  0.76219078  1  -1.247506  0  -0.357831  -0.647382  0  2.164814  0
O  O84  1  0.39613906  0.29367492  0.64082216  1  -1.310151  0  -0.407705  -0.773283  0  2.420977  0
O  O85  1  0.75479106  0.35931168  0.65269343  1  -1.301796  0  -0.407761  -0.773226  0  2.419702  0
O  O86  1  0.10245664  0.34753030  0.70646645  1  -1.303146  0  -0.408116  -0.773507  0  2.419172  0
O  O87  1  0.73730723  0.24729112  0.62890618  1  -1.313615  0  -0.440492  -0.765658  0  2.287891  0
O  O88  1  0.10751302  0.37118027  0.61812588  1  -1.302925  0  -0.440925  -0.765827  0  2.287436  0
O  O89  1  0.48974561  0.38212427  0.75294595  1  -1.301556  0  -0.440839  -0.765487  0  2.286442  0
