# generated using pymatgen
data_Al6H74C90O31
_symmetry_space_group_name_H-M   'P 1'
_cell_length_a   13.12678818
_cell_length_b   13.41939148
_cell_length_c   27.53064826
_cell_angle_alpha   90.41924485
_cell_angle_beta   89.27403267
_cell_angle_gamma   59.39321609
_symmetry_Int_Tables_number   1
_chemical_formula_structural   Al6H74C90O31
_chemical_formula_sum   'Al6 H74 C90 O31'
_cell_volume   4173.11052209
_cell_formula_units_Z   1
loop_
 _symmetry_equiv_pos_site_id
 _symmetry_equiv_pos_as_xyz
  1  'x, y, z'
loop_
 _atom_site_type_symbol
 _atom_site_label
 _atom_site_symmetry_multiplicity
 _atom_site_fract_x
 _atom_site_fract_y
 _atom_site_fract_z
 _atom_site_occupancy
 _atom_site_pbe_bader_charge
 _atom_site_pbe_bader_spin_density
 _atom_site_pbe_cm5_charge
 _atom_site_pbe_ddec_charge
 _atom_site_pbe_ddec_spin_density
 _atom_site_pbe_ddec_sum_bond_order
 _atom_site_pbe_magmom
Al  Al0  1  0.84662147  0.56735755  0.49354422  1  2.500243  0  0.400104  1.688807  0  2.545469  0
Al  Al1  1  0.58942396  0.59476051  0.49848394  1  2.482096  0  0.50439  1.658245  0  2.515516  0
Al  Al2  1  0.60492983  0.80967555  0.49917328  1  2.47862  0  0.500043  1.654904  0  2.523067  0
Al  Al3  1  0.82765680  0.08142949  0.98420060  1  2.492805  0  0.394977  1.685417  0  2.556633  0
Al  Al4  1  0.07495390  0.07542747  0.98405891  1  2.478628  0  0.504564  1.660992  0  2.508634  0
Al  Al5  1  0.08065968  0.84892782  0.98469268  1  2.479162  0  0.503085  1.66224  0  2.507739  0
H  H6  1  0.50003366  0.80937723  0.17922501  1  0.060301  0  0.100175  0.104755  0  0.986826  0
H  H7  1  0.17216788  0.83111448  0.22146303  1  0.020943  0  0.090545  0.085013  0  1.020296  0
H  H8  1  0.79659759  0.00311880  0.21051010  1  0.057379  0  0.094809  0.098969  0  1.01575  0
H  H9  1  0.96012043  0.38462833  0.19725408  1  0.031652  0  0.09466  0.091216  0  0.985438  0
H  H10  1  0.36449776  0.67158331  0.77686981  1  0.060286  0  0.104426  0.102753  0  1.002368  0
H  H11  1  0.67966789  0.95392450  0.78129500  1  0.020986  0  0.102187  0.100359  0  1.005529  0
H  H12  1  0.99541165  0.32633115  0.76896503  1  0.059193  0  0.101322  0.099351  0  1.005385  0
H  H13  1  0.32347677  0.69325183  0.86578517  1  0.100786  0  0.114951  0.117866  0  0.979243  0
H  H14  1  0.71204685  0.97377328  0.86908418  1  0.108078  0  0.119074  0.126144  0  0.974499  0
H  H15  1  0.02122591  0.27833732  0.85683111  1  0.086302  0  0.110101  0.112503  0  0.987189  0
H  H16  1  0.34774073  0.98742541  0.71017210  1  0.081892  0  0.099693  0.099168  0  1.024012  0
H  H17  1  0.86894285  0.65462677  0.18620123  1  0.018386  0  0.096016  0.095857  0  0.997054  0
H  H18  1  0.00085861  0.66232685  0.70619383  1  0.036606  0  0.09723  0.096704  0  1.024688  0
H  H19  1  0.67036283  0.34403533  0.71238901  1  0.039788  0  0.098189  0.097429  0  1.023976  0
H  H20  1  0.21739569  0.04068929  0.76728065  1  0.064602  0  0.102022  0.100865  0  1.012427  0
H  H21  1  0.05730907  0.75042859  0.75710160  1  0.043086  0  0.09932  0.096955  0  1.01523  0
H  H22  1  0.76445400  0.18690601  0.75769555  1  0.050857  0  0.101388  0.099648  0  1.008693  0
H  H23  1  0.18818708  0.05908763  0.85651813  1  0.133523  0  0.110186  0.11181  0  1.015655  0
H  H24  1  0.08759772  0.76161712  0.84539992  1  0.069893  0  0.103856  0.105314  0  1.021708  0
H  H25  1  0.78384296  0.14772158  0.84630704  1  0.085777  0  0.11261  0.118453  0  1.002912  0
H  H26  1  0.29523972  0.69623886  0.70026033  1  0.047618  0  0.10245  0.101592  0  1.007248  0
H  H27  1  0.69077727  0.00278796  0.70311472  1  0.051675  0  0.099465  0.098039  0  1.010862  0
H  H28  1  0.68022042  0.30776247  0.19022795  1  0.066159  0  0.099588  0.105024  0  0.976368  0
H  H29  1  0.02906810  0.26249572  0.68734662  1  0.015241  0  0.099707  0.098796  0  1.007767  0
H  H30  1  0.51588660  0.84079801  0.26189973  1  0.02667  0  0.095715  0.09579  0  0.995134  0
H  H31  1  0.88727744  0.64017902  0.27075555  1  0.048319  0  0.099136  0.103595  0  0.980601  0
H  H32  1  0.63324980  0.35764592  0.27245292  1  0.011351  0  0.097382  0.099302  0  0.972104  0
H  H33  1  0.35928709  0.67014445  0.61398403  1  0.074199  0  0.112658  0.115045  0  0.997474  0
H  H34  1  0.65665616  0.96298161  0.61871484  1  0.096734  0  0.106599  0.107433  0  1.012655  0
H  H35  1  0.97278067  0.34751519  0.60530810  1  0.09643  0  0.109798  0.111216  0  1.001891  0
H  H36  1  0.19581304  0.97656739  0.29285326  1  0.056113  0  0.098652  0.109008  0  0.973628  0
H  H37  1  0.94303068  0.88309038  0.28796936  1  0.015488  0  0.098222  0.106925  0  0.97211  0
H  H38  1  0.96008649  0.20923647  0.29308733  1  0.045032  0  0.098687  0.105942  0  0.977331  0
H  H39  1  0.55361550  0.69484074  0.26912827  1  0.027868  0  0.091991  0.087658  0  1.007555  0
H  H40  1  0.31345556  0.00512051  0.28938796  1  0.060859  0  0.105063  0.11646  0  0.977987  0
H  H41  1  0.00996761  0.73093550  0.29455115  1  0.075065  0  0.108003  0.122179  0  0.97212  0
H  H42  1  0.83984576  0.18673147  0.28387235  1  0.058613  0  0.104568  0.116063  0  0.975407  0
H  H43  1  0.17643707  0.01501914  0.20969494  1  0.066047  0  0.099386  0.035127  0  1.01084  0
H  H44  1  0.00740560  0.83770585  0.20708046  1  0.017976  0  0.09546  0.027125  0  1.028385  0
H  H45  1  0.00271404  0.18744633  0.21015783  1  0.000917  0  0.097455  0.027446  0  1.011689  0
H  H46  1  0.38239958  0.65552426  0.27679424  1  0.043878  0  0.097347  0.099151  0  0.976536  0
H  H47  1  0.63688302  0.94414906  0.26730043  1  0.005311  0  0.092672  0.091881  0  0.986511  0
H  H48  1  0.78278906  0.53081439  0.27062355  1  0.045212  0  0.093107  0.090266  0  1.011522  0
H  H49  1  0.24294616  0.76491736  0.29918788  1  0.033232  0  0.099899  0.104854  0  0.969861  0
H  H50  1  0.73071762  0.72436613  0.27259084  1  0.029428  0  0.090658  0.084538  0  1.016979  0
H  H51  1  0.71562258  0.01044154  0.28779997  1  0.027698  0  0.095926  0.09759  0  0.975809  0
H  H52  1  0.92661210  0.41515211  0.28130137  1  0.059258  0  0.099563  0.102543  0  0.967532  0
H  H53  1  0.29144835  0.69779244  0.20036591  1  0.046716  0  0.099778  0.103211  0  0.98294  0
H  H54  1  0.68251578  0.98286506  0.18875731  1  0.027856  0  0.098776  0.103722  0  0.96997  0
H  H55  1  0.81490215  0.49833089  0.18677816  1  0.027283  0  0.096648  0.099779  0  0.978801  0
H  H56  1  0.39151466  0.06115522  0.64749303  1  0.028995  0  0.08713  0.118351  0  1.005238  0
H  H57  1  0.50020090  0.95528837  0.60656844  1  0.119135  0  0.098313  0.14308  0  1.041886  0
H  H58  1  0.35307658  0.03874068  0.58808100  1  0.049691  0  0.100595  0.145187  0  0.979314  0
H  H59  1  0.07161708  0.54283413  0.64228303  1  -0.001296  0  0.082217  0.110969  0  1.013213  0
H  H60  1  0.95801498  0.53732978  0.60941266  1  0.07637  0  0.098712  0.142007  0  1.018207  0
H  H61  1  0.61337000  0.49630750  0.26279159  1  0.02707  0  0.089259  0.083486  0  1.008762  0
H  H62  1  0.03382749  0.59785658  0.58191384  1  0.099889  0  0.104984  0.157147  0  0.985512  0
H  H63  1  0.52876283  0.42611002  0.65845180  1  0.008789  0  0.084892  0.114836  0  1.008948  0
H  H64  1  0.53670934  0.52281279  0.61644718  1  0.087526  0  0.094219  0.134902  0  1.043423  0
H  H65  1  0.57349829  0.38388943  0.59653826  1  0.052016  0  0.099885  0.144206  0  0.980715  0
H  H66  1  0.24021888  0.17256216  0.23908452  1  0.014283  0  0.090481  0.082865  0  0.998821  0
H  H67  1  0.18384552  0.17010307  0.18006917  1  -0.002541  0  0.091902  0.083048  0  1.011703  0
H  H68  1  0.32024080  0.16900987  0.18523000  1  0.062963  0  0.110507  0.118959  0  0.966322  0
H  H69  1  0.13687234  0.69630953  0.15404833  1  0.056326  0  0.092803  0.086779  0  1.018151  0
H  H70  1  0.05894593  0.62327538  0.14017059  1  0.051114  0  0.09222  0.092798  0  1.008405  0
H  H71  1  0.19565481  0.54875150  0.17203748  1  0.045053  0  0.101052  0.105115  0  0.976291  0
H  H72  1  0.49257682  0.68329978  0.19017116  1  0.053145  0  0.094059  0.093317  0  0.98358  0
H  H73  1  0.03929983  0.96941882  0.18086903  1  0.008441  0  0.080275  0.066843  0  1.065054  0
H  H74  1  0.00516146  0.08907622  0.14265340  1  0.048515  0  0.095091  0.094062  0  1.034108  0
H  H75  1  0.91574180  0.02414583  0.14121741  1  0.074133  0  0.103066  0.117998  0  0.997731  0
H  H76  1  0.72162174  0.77258161  0.18985692  1  0.042293  0  0.094201  0.09597  0  0.980444  0
H  H77  1  0.64528631  0.45116667  0.17926954  1  0.030828  0  0.093101  0.091533  0  0.986117  0
H  H78  1  0.03979628  0.41775197  0.50934105  1  0.581848  0  0.288156  0.373841  0  0.938096  0
H  H79  1  0.63313955  0.19627151  0.01362160  1  0.580708  0  0.291291  0.382577  0  0.923854  0
C  C80  1  0.77634510  0.76655978  0.42876759  1  1.672775  0  0.280324  0.718709  0  4.156582  0
C  C81  1  0.29262200  0.85524683  0.14366916  1  0.041736  0  -0.005281  0.001729  0  3.995297  0
C  C82  1  0.86959363  0.83245793  0.14115363  1  -0.437636  0  -0.011589  -0.013324  0  4.026242  0
C  C83  1  0.85409209  0.30716085  0.13735988  1  -0.396184  0  -0.010399  -0.007651  0  4.017113  0
C  C84  1  0.39704277  0.81125137  0.33909307  1  -0.562469  0  -0.006539  -0.002822  0  3.986469  0
C  C85  1  0.80273878  0.81430767  0.33821929  1  -0.300171  0  -0.012075  -0.011345  0  4.001358  0
C  C86  1  0.77200553  0.38924075  0.33470169  1  -0.570233  0  -0.015053  -0.021941  0  4.007738  0
C  C87  1  0.41916133  0.80225665  0.38214484  1  0.295919  0  -0.048728  -0.224349  0  3.962038  0
C  C88  1  0.79297163  0.79965619  0.38114149  1  0.037571  0  -0.049964  -0.224663  0  3.972443  0
C  C89  1  0.76009284  0.41114748  0.37802647  1  0.296978  0  -0.049116  -0.217394  0  3.969301  0
C  C90  1  0.90153117  0.22257442  0.04813398  1  1.657418  0  0.278051  0.718772  0  4.155173  0
C  C91  1  0.74470353  0.45665463  0.42679654  1  1.635477  0  0.276408  0.716338  0  4.159486  0
C  C92  1  0.20806492  0.89581674  0.05456739  1  1.649478  0  0.281183  0.730334  0  4.136982  0
C  C93  1  0.90641580  0.88462146  0.05288926  1  1.645977  0  0.275853  0.717679  0  4.15849  0
C  C94  1  0.39072270  0.81238905  0.61316077  1  -0.039546  0  -0.015157  -0.122165  0  3.917503  0
C  C95  1  0.80799288  0.79103354  0.61475662  1  0.048372  0  -0.017038  -0.115048  0  3.918166  0
C  C96  1  0.79164231  0.39125275  0.61207101  1  -0.035499  0  -0.016896  -0.117332  0  3.916298  0
C  C97  1  0.38162030  0.90751240  0.63992572  1  0.044363  0  0.012079  0.190528  0  3.91947  0
C  C98  1  0.90973040  0.70553981  0.63886579  1  0.009276  0  0.011033  0.189142  0  3.920582  0
C  C99  1  0.70513874  0.38700764  0.64184215  1  -0.009872  0  0.007012  0.183712  0  3.930406  0
C  C100  1  0.34802004  0.91832314  0.68896426  1  -0.06597  0  -0.090516  -0.200059  0  3.928148  0
C  C101  1  0.92583778  0.72984846  0.68670819  1  -0.056214  0  -0.093128  -0.202255  0  3.93396  0
C  C102  1  0.46469756  0.78035574  0.43048080  1  1.644444  0  0.281994  0.729701  0  4.143895  0
C  C103  1  0.73833007  0.34154334  0.68832725  1  0.040066  0  -0.093589  -0.20206  0  3.938245  0
C  C104  1  0.32051152  0.84221579  0.71242005  1  -0.026621  0  0.002259  0.089267  0  4.00458  0
C  C105  1  0.84774734  0.83376106  0.71132382  1  0.019039  0  -0.002828  0.084858  0  4.022202  0
C  C106  1  0.85248433  0.29888355  0.70626539  1  -0.068532  0  -0.001881  0.085242  0  4.022964  0
C  C107  1  0.77387584  0.76900109  0.56631986  1  1.542429  0  0.269361  0.636195  0  4.083766  0
C  C108  1  0.76452871  0.45146389  0.56462761  1  1.542013  0  0.269489  0.64717  0  4.077953  0
C  C109  1  0.44869479  0.77753559  0.56437879  1  1.511715  0  0.276396  0.64957  0  4.066767  0
C  C110  1  0.32142978  0.75399947  0.68413701  1  -0.036514  0  -0.091448  -0.143663  0  3.992841  0
C  C111  1  0.75086177  0.91922957  0.68580984  1  -0.029325  0  -0.097223  -0.148921  0  4.013559  0
C  C112  1  0.93832699  0.29876642  0.67524033  1  -0.03313  0  -0.095181  -0.145638  0  4.008377  0
C  C113  1  0.26911742  0.77649948  0.22122482  1  -0.021804  0  -0.153034  -0.188193  0  3.854768  0
C  C114  1  0.35634495  0.73981564  0.63560381  1  0.010607  0  -0.077129  -0.071132  0  3.99887  0
C  C115  1  0.73205248  0.89735891  0.63847044  1  -0.147413  0  -0.082691  -0.078279  0  4.013059  0
C  C116  1  0.90742894  0.34499614  0.62921421  1  -0.012391  0  -0.080325  -0.07606  0  4.008832  0
C  C117  1  0.32358763  0.75725432  0.79396728  1  -0.012355  0  -0.085036  -0.130873  0  3.964973  0
C  C118  1  0.76942405  0.91346191  0.79503074  1  0.009783  0  -0.087512  -0.13361  0  3.978154  0
C  C119  1  0.95116422  0.28447920  0.78553661  1  0.02238  0  -0.089873  -0.135435  0  3.981338  0
C  C120  1  0.30279911  0.76845646  0.84393658  1  -0.049573  0  -0.073043  -0.076653  0  3.974921  0
C  C121  1  0.78658006  0.92321383  0.84416120  1  -0.029491  0  -0.073609  -0.078072  0  3.970283  0
C  C122  1  0.96467070  0.25916627  0.83480606  1  -0.086975  0  -0.080265  -0.08628  0  3.992861  0
C  C123  1  0.22768538  0.97445648  0.83871566  1  -0.040576  0  -0.074339  -0.074451  0  3.96421  0
C  C124  1  0.75914754  0.94632674  0.21267953  1  -0.019765  0  -0.154568  -0.191005  0  3.846536  0
C  C125  1  0.99861319  0.80277588  0.83097307  1  -0.017359  0  -0.080182  -0.080797  0  3.982173  0
C  C126  1  0.82995020  0.18645753  0.82879030  1  0.055889  0  -0.075151  -0.074652  0  3.965428  0
C  C127  1  0.24523307  0.96327516  0.78868872  1  -0.010796  0  -0.085306  -0.12777  0  3.967044  0
C  C128  1  0.98108527  0.79602313  0.78172511  1  -0.013861  0  -0.090605  -0.13477  0  3.987443  0
C  C129  1  0.81859804  0.20968574  0.77951400  1  -0.065077  0  -0.088436  -0.131964  0  3.983986  0
C  C130  1  0.29510989  0.85437317  0.76526923  1  -0.034367  0  0.003951  0.082796  0  3.971171  0
C  C131  1  0.86623050  0.84911239  0.76293063  1  -0.057924  0  -5e-06  0.078409  0  3.989541  0
C  C132  1  0.87643123  0.26184235  0.75719591  1  -0.02855  0  -0.001054  0.076606  0  3.992384  0
C  C133  1  0.25575788  0.87724244  0.86685374  1  -0.028897  0  -0.014005  -0.053927  0  3.981086  0
C  C134  1  0.90141133  0.86611417  0.86260540  1  0.000516  0  -0.015637  -0.052116  0  3.988857  0
C  C135  1  0.86661961  0.41774831  0.20687647  1  -0.015924  0  -0.152993  -0.183616  0  3.859935  0
C  C136  1  0.90242292  0.21186349  0.85697773  1  -0.043865  0  -0.015715  -0.051209  0  3.983958  0
C  C137  1  0.91412686  0.18248209  0.90934058  1  1.545841  0  0.268641  0.632612  0  4.10233  0
C  C138  1  0.22110931  0.89517157  0.91902910  1  1.530881  0  0.278298  0.645331  0  4.082834  0
C  C139  1  0.92093807  0.88057974  0.91446675  1  1.559013  0  0.273269  0.635103  0  4.102664  0
C  C140  1  0.48446131  0.77980861  0.25640981  1  -0.0153  0  -0.152218  -0.192686  0  3.841967  0
C  C141  1  0.81109003  0.72309507  0.26007373  1  -0.031701  0  -0.154205  -0.194742  0  3.844323  0
C  C142  1  0.67466599  0.40328096  0.25627002  1  0.007138  0  -0.154358  -0.188304  0  3.852869  0
C  C143  1  0.28180739  0.94920343  0.27512727  1  -0.072906  0  -0.157009  -0.274503  0  3.842361  0
C  C144  1  0.94154351  0.80606578  0.27521284  1  -0.00651  0  -0.152611  -0.261548  0  3.841039  0
C  C145  1  0.87944663  0.23781539  0.27209966  1  -0.025533  0  -0.153162  -0.261652  0  3.837319  0
C  C146  1  0.31500348  0.74758248  0.27350933  1  -0.010098  0  -0.151611  -0.188473  0  3.846193  0
C  C147  1  0.27046035  0.96253280  0.21940283  1  0.441795  0  0.0091  0.13541  0  3.805403  0
C  C148  1  0.97045076  0.78507625  0.22045006  1  0.474599  0  0.00999  0.137845  0  3.8023  0
C  C149  1  0.90914169  0.21467900  0.21731500  1  0.492944  0  0.013405  0.151912  0  3.777639  0
C  C150  1  0.26152008  0.87043226  0.10159230  1  -0.309519  0  -0.048465  -0.224105  0  3.947801  0
C  C151  1  0.88345846  0.84905959  0.09886538  1  0.138625  0  -0.050251  -0.229815  0  3.969033  0
C  C152  1  0.87201839  0.28269851  0.09427335  1  0.118032  0  -0.050813  -0.228108  0  3.958887  0
C  C153  1  0.37016048  0.82154151  0.28780418  1  0.13424  0  0.002566  0.175252  0  3.895924  0
C  C154  1  0.81825057  0.82200654  0.28648781  1  0.116314  0  0.00174  0.176032  0  3.897983  0
C  C155  1  0.79138327  0.36761016  0.28274518  1  0.154176  0  0.001311  0.175243  0  3.907016  0
C  C156  1  0.45841509  0.77327542  0.20224373  1  -0.058514  0  -0.151902  -0.18113  0  3.841334  0
C  C157  1  0.72327100  0.93876672  0.26541448  1  0.009518  0  -0.155323  -0.191209  0  3.86901  0
C  C158  1  0.81071235  0.73804459  0.20454251  1  0.001138  0  -0.154617  -0.184081  0  3.864531  0
C  C159  1  0.69982472  0.37480519  0.20139270  1  -0.06635  0  -0.155227  -0.18425  0  3.853735  0
C  C160  1  0.32275071  0.84146128  0.19477338  1  0.160422  0  0.001771  0.107633  0  3.889128  0
C  C161  1  0.85271188  0.82391602  0.19272083  1  0.123807  0  -0.003077  0.1017  0  3.886275  0
C  C162  1  0.83173263  0.32966148  0.18909545  1  0.134773  0  -0.003278  0.097888  0  3.901051  0
C  C163  1  0.40812812  0.99556482  0.61955294  1  -0.097604  0  -0.240292  -0.421033  0  3.968642  0
C  C164  1  0.99860242  0.58980840  0.61706644  1  -0.050235  0  -0.240331  -0.422234  0  3.965507  0
C  C165  1  0.57906406  0.43240194  0.62766473  1  -0.053882  0  -0.241211  -0.41675  0  3.975808  0
C  C166  1  0.26502517  0.13800045  0.20151402  1  0.454192  0  -0.140101  -0.171017  0  3.974848  0
C  C167  1  0.11424156  0.63253897  0.16743910  1  0.380537  0  -0.146477  -0.175889  0  3.960092  0
C  C168  1  0.84449553  0.43899523  0.26220903  1  -0.061994  0  -0.153004  -0.189872  0  3.841299  0
C  C169  1  0.96675861  0.04827143  0.16477119  1  0.398939  0  -0.151736  -0.182954  0  3.940377  0
O  O170  1  0.82636979  0.46949207  0.44347775  1  -1.212591  0  -0.208539  -0.555795  0  2.278452  0
O  O171  1  0.83990162  0.47474239  0.54722902  1  -1.254278  0  -0.226382  -0.597275  0  2.372435  0
O  O172  1  0.47553393  0.67682759  0.54782803  1  -1.270925  0  -0.236226  -0.602506  0  2.298757  0
O  O173  1  0.66872670  0.84502582  0.55157873  1  -1.281049  0  -0.253409  -0.624207  0  2.293296  0
O  O174  1  0.84408677  0.67785736  0.54283588  1  -1.250416  0  -0.208951  -0.553575  0  2.378952  0
O  O175  1  0.66523237  0.47989094  0.54459812  1  -1.273783  0  -0.241565  -0.603393  0  2.318635  0
O  O176  1  0.47651155  0.84409030  0.54230762  1  -1.269856  0  -0.227141  -0.58963  0  2.346129  0
O  O177  1  0.67868738  0.65750699  0.49699462  1  -1.612847  0  -0.3908  -1.269933  0  2.309067  0
O  O178  1  0.99663978  0.00124702  0.98494792  1  -1.609135  0  -0.392237  -1.270587  0  2.302871  0
O  O179  1  0.82955308  0.19568663  0.03142678  1  -1.221847  0  -0.209376  -0.561558  0  2.279204  0
O  O180  1  0.18326507  0.99186816  0.03550355  1  -1.244011  0  -0.227162  -0.587686  0  2.241587  0
O  O181  1  0.47424548  0.69206567  0.45196799  1  -1.250188  0  -0.229029  -0.591985  0  2.25132  0
O  O182  1  0.99790565  0.80882455  0.02799216  1  -1.257197  0  -0.24539  -0.612212  0  2.225068  0
O  O183  1  0.83893782  0.96434895  0.93842066  1  -1.25575  0  -0.21423  -0.556417  0  2.335813  0
O  O184  1  0.00214318  0.17703296  0.93229255  1  -1.273586  0  -0.252897  -0.621151  0  2.278049  0
O  O185  1  0.20798702  0.81830662  0.94072260  1  -1.259724  0  -0.234761  -0.594958  0  2.286417  0
O  O186  1  0.83888891  0.16092106  0.92768585  1  -1.244992  0  -0.214502  -0.5601  0  2.367715  0
O  O187  1  0.19801273  0.99153021  0.93889225  1  -1.269665  0  -0.236899  -0.599791  0  2.297889  0
O  O188  1  0.02399898  0.80829309  0.93137017  1  -1.278954  0  -0.250164  -0.616089  0  2.288479  0
O  O189  1  0.33293632  0.01492977  0.19995662  1  -1.043302  0  -0.232289  -0.21126  0  2.495936  0
O  O190  1  0.05724081  0.66549175  0.21422924  1  -1.040197  0  -0.237164  -0.217831  0  2.487919  0
O  O191  1  0.88866165  0.12444049  0.20233338  1  -1.056818  0  -0.23564  -0.223823  0  2.49069  0
O  O192  1  0.69106839  0.84464371  0.45551822  1  -1.26658  0  -0.246048  -0.615107  0  2.240643  0
O  O193  1  0.83786398  0.98898422  0.04171024  1  -1.225452  0  -0.211216  -0.562615  0  2.294764  0
O  O194  1  0.00346247  0.19500562  0.02912493  1  -1.251007  0  -0.243935  -0.605323  0  2.219126  0
O  O195  1  0.18453405  0.82150389  0.03654030  1  -1.249224  0  -0.231741  -0.596655  0  2.241225  0
O  O196  1  0.84405735  0.66207997  0.43993401  1  -1.220714  0  -0.200187  -0.530111  0  2.272089  0
O  O197  1  0.64534428  0.48528967  0.44861382  1  -1.252712  0  -0.2457  -0.608541  0  2.223786  0
O  O198  1  0.49749735  0.84859003  0.44745278  1  -1.24125  0  -0.230945  -0.590562  0  2.241624  0
O  O199  1  0.00183440  0.48702142  0.49018537  1  -1.379394  0  -0.578594  -0.993471  0  1.809887  0
O  O200  1  0.67259830  0.15483485  0.98396215  1  -1.370088  0  -0.579642  -0.997631  0  1.791557  0
