# generated using pymatgen
data_ZnPH10C6N3O5
_symmetry_space_group_name_H-M   'P 1'
_cell_length_a   8.41767306
_cell_length_b   8.51860374
_cell_length_c   16.63504023
_cell_angle_alpha   98.02970320
_cell_angle_beta   89.99983770
_cell_angle_gamma   119.60885453
_symmetry_Int_Tables_number   1
_chemical_formula_structural   ZnPH10C6N3O5
_chemical_formula_sum   'Zn4 P4 H40 C24 N12 O20'
_cell_volume   1023.60963045
_cell_formula_units_Z   4
loop_
 _symmetry_equiv_pos_site_id
 _symmetry_equiv_pos_as_xyz
  1  'x, y, z'
loop_
 _atom_site_type_symbol
 _atom_site_label
 _atom_site_symmetry_multiplicity
 _atom_site_fract_x
 _atom_site_fract_y
 _atom_site_fract_z
 _atom_site_occupancy
 _atom_site_hle17_bader_spin_density
 _atom_site_hle17_ddec_charge
 _atom_site_hle17_ddec_spin_density
 _atom_site_hle17_ddec_sum_bond_order
 _atom_site_hle17_magmom
 _atom_site_hse06_10hf_bader_spin_density
 _atom_site_hse06_10hf_ddec_charge
 _atom_site_hse06_10hf_ddec_spin_density
 _atom_site_hse06_10hf_ddec_sum_bond_order
 _atom_site_hse06_10hf_magmom
 _atom_site_hse06_bader_spin_density
 _atom_site_hse06_ddec_charge
 _atom_site_hse06_ddec_spin_density
 _atom_site_hse06_ddec_sum_bond_order
 _atom_site_hse06_magmom
 _atom_site_pbe_bader_spin_density
 _atom_site_pbe_cm5_charge
 _atom_site_pbe_ddec_charge
 _atom_site_pbe_ddec_spin_density
 _atom_site_pbe_ddec_sum_bond_order
 _atom_site_pbe_magmom
Zn  Zn0  1  0.87544510  0.75040192  0.93300068  1  0  1.131184  0  1.820512  0  0  0.952699  0  2.306601  0  0  0.997005  0  2.247722  0  0  0.705511  0.921503  0  2.347275  0
Zn  Zn1  1  0.12503831  0.24958771  0.56699873  1  0  1.131226  0  1.820451  0  0  0.952754  0  2.306516  0  0  0.997069  0  2.247638  0  0  0.705537  0.921559  0  2.347193  0
Zn  Zn2  1  0.12455832  0.24960141  0.06699865  1  0  1.131199  0  1.820478  0  0  0.952706  0  2.306566  0  0  0.99702  0  2.247693  0  0  0.705509  0.921508  0  2.347238  0
Zn  Zn3  1  0.87495623  0.75040737  0.43300177  1  0  1.131219  0  1.82041  0  0  0.952735  0  2.30649  0  0  0.997041  0  2.247615  0  0  0.705529  0.921537  0  2.347164  0
P  P4  1  0.79363616  0.88325067  0.10988988  1  0  1.428774  0  4.963539  0  0  1.238371  0  5.476765  0  0  1.289046  0  5.440367  0  0  0.274775  1.203149  0  5.501089  0
P  P5  1  0.91038403  0.11675765  0.39011121  1  0  1.428724  0  4.963596  0  0  1.238323  0  5.476834  0  0  1.288996  0  5.440431  0  0  0.274694  1.203106  0  5.501152  0
P  P6  1  0.20636776  0.11675127  0.89010994  1  0  1.428739  0  4.963558  0  0  1.238348  0  5.476787  0  0  1.289021  0  5.440389  0  0  0.274722  1.203124  0  5.501114  0
P  P7  1  0.08961426  0.88324018  0.60988890  1  0  1.428677  0  4.963614  0  0  1.238288  0  5.476846  0  0  1.288962  0  5.440443  0  0  0.274694  1.203073  0  5.501163  0
H  H8  1  0.78262022  0.75521369  0.15842597  1  0  -0.175339  0  0.932614  0  0  -0.13925  0  1.016843  0  0  -0.143947  0  1.012805  0  0  0.076176  -0.136215  0  1.019882  0
H  H9  1  0.02740665  0.24479380  0.34157569  1  0  -0.175276  0  0.932578  0  0  -0.139201  0  1.016829  0  0  -0.143893  0  1.012786  0  0  0.0762  -0.136174  0  1.019868  0
H  H10  1  0.21738437  0.24478960  0.84157516  1  0  -0.175322  0  0.932641  0  0  -0.139231  0  1.016869  0  0  -0.143926  0  1.01283  0  0  0.076189  -0.136198  0  1.019909  0
H  H11  1  0.97259078  0.75519992  0.65842411  1  0  -0.175276  0  0.932554  0  0  -0.139203  0  1.016815  0  0  -0.143895  0  1.012771  0  0  0.076192  -0.136176  0  1.019855  0
H  H12  1  0.44551203  0.14028589  0.68684106  1  0  0.34174  0  0.89391  0  0  0.318838  0  0.956485  0  0  0.327789  0  0.94978  0  0  0.302918  0.312587  0  0.961123  0
H  H13  1  0.30522071  0.85971340  0.81316168  1  0  0.34165  0  0.894009  0  0  0.318803  0  0.956539  0  0  0.327756  0  0.949828  0  0  0.302884  0.312552  0  0.961179  0
H  H14  1  0.55449167  0.85971327  0.31316036  1  0  0.341645  0  0.894029  0  0  0.318794  0  0.956561  0  0  0.327746  0  0.949852  0  0  0.302903  0.312542  0  0.961199  0
H  H15  1  0.69478132  0.14028716  0.18683864  1  0  0.34163  0  0.894048  0  0  0.31878  0  0.956582  0  0  0.327732  0  0.949872  0  0  0.302878  0.312532  0  0.961218  0
H  H16  1  0.67111404  0.28945157  0.72257462  1  0  0.337733  0  0.889436  0  0  0.318672  0  0.949936  0  0  0.327684  0  0.942401  0  0  0.304617  0.312303  0  0.955292  0
H  H17  1  0.38165982  0.71054613  0.77742899  1  0  0.337719  0  0.889427  0  0  0.318712  0  0.949901  0  0  0.327694  0  0.942411  0  0  0.304608  0.312342  0  0.955261  0
H  H18  1  0.32888799  0.71054897  0.27742631  1  0  0.337737  0  0.889438  0  0  0.318733  0  0.949901  0  0  0.327715  0  0.94241  0  0  0.304627  0.312363  0  0.955258  0
H  H19  1  0.61834458  0.28945441  0.22257193  1  0  0.337765  0  0.889328  0  0  0.318743  0  0.949829  0  0  0.327728  0  0.942332  0  0  0.304634  0.312374  0  0.955189  0
H  H20  1  0.49586789  0.20574844  0.78656859  1  0  0.330281  0  0.881667  0  0  0.308522  0  0.945145  0  0  0.316825  0  0.938591  0  0  0.307068  0.30268  0  0.949756  0
H  H21  1  0.29011789  0.79424811  0.71343331  1  0  0.330291  0  0.881684  0  0  0.308539  0  0.945187  0  0  0.316846  0  0.938628  0  0  0.307072  0.302697  0  0.9498  0
H  H22  1  0.50413345  0.79425074  0.21343223  1  0  0.3303  0  0.881638  0  0  0.308548  0  0.945132  0  0  0.316853  0  0.938576  0  0  0.307077  0.302707  0  0.949741  0
H  H23  1  0.70988533  0.20575245  0.28656701  1  0  0.330295  0  0.881651  0  0  0.308546  0  0.945146  0  0  0.316851  0  0.938589  0  0  0.307085  0.302705  0  0.949758  0
H  H24  1  0.35272665  0.35364242  0.72527687  1  0  0.075994  0  0.929516  0  0  0.08186  0  0.999097  0  0  0.084117  0  0.997536  0  0  0.116815  0.080212  0  1.000319  0
H  H25  1  0.99907923  0.64634430  0.77472088  1  0  0.076037  0  0.929632  0  0  0.081834  0  0.999171  0  0  0.084089  0  0.997613  0  0  0.116808  0.080188  0  1.000392  0
H  H26  1  0.64727011  0.64634997  0.27472163  1  0  0.076007  0  0.929568  0  0  0.081835  0  0.999145  0  0  0.084095  0  0.997576  0  0  0.1168  0.080186  0  1.000367  0
H  H27  1  0.00092418  0.35365902  0.22527906  1  0  0.076018  0  0.929599  0  0  0.08181  0  0.999146  0  0  0.084068  0  0.997581  0  0  0.116802  0.080163  0  1.000365  0
H  H28  1  0.72706167  0.58270504  0.66207708  1  0  0.092889  0  0.96107  0  0  0.108452  0  1.021746  0  0  0.10943  0  1.02195  0  0  0.097932  0.107687  0  1.021705  0
H  H29  1  0.14434159  0.41728591  0.83792733  1  0  0.092996  0  0.96099  0  0  0.108499  0  1.021695  0  0  0.109477  0  1.021897  0  0  0.097949  0.107743  0  1.021639  0
H  H30  1  0.27293746  0.41728734  0.33792201  1  0  0.09291  0  0.961093  0  0  0.108456  0  1.021771  0  0  0.109435  0  1.021975  0  0  0.097946  0.107694  0  1.021722  0
H  H31  1  0.85565805  0.58271461  0.16207479  1  0  0.093005  0  0.96102  0  0  0.108533  0  1.021657  0  0  0.109514  0  1.021855  0  0  0.097951  0.10778  0  1.021614  0
H  H32  1  0.52493850  0.59303874  0.64764937  1  0  0.106999  0  0.939335  0  0  0.118508  0  1.005608  0  0  0.120385  0  1.004616  0  0  0.104256  0.117123  0  1.00636  0
H  H33  1  0.93189007  0.40696145  0.85235475  1  0  0.107049  0  0.939363  0  0  0.118544  0  1.00564  0  0  0.120413  0  1.004654  0  0  0.104265  0.117157  0  1.006391  0
H  H34  1  0.47506149  0.40695774  0.35235004  1  0  0.10698  0  0.939354  0  0  0.11848  0  1.005627  0  0  0.120357  0  1.004637  0  0  0.104232  0.117092  0  1.006378  0
H  H35  1  0.06811232  0.59304457  0.14764660  1  0  0.107078  0  0.939326  0  0  0.118601  0  1.005525  0  0  0.120476  0  1.004536  0  0  0.104286  0.117223  0  1.00628  0
H  H36  1  0.26482075  0.08187871  0.41901147  1  0  0.100932  0  0.952686  0  0  0.111029  0  1.013142  0  0  0.114231  0  1.009009  0  0  0.136026  0.108646  0  1.016116  0
H  H37  1  0.18295447  0.91813452  0.08098908  1  0  0.10098  0  0.952642  0  0  0.111086  0  1.013091  0  0  0.114288  0  1.008956  0  0  0.136015  0.108704  0  1.016066  0
H  H38  1  0.73517209  0.91811772  0.58098974  1  0  0.100986  0  0.952589  0  0  0.111039  0  1.013091  0  0  0.11424  0  1.008961  0  0  0.136028  0.108659  0  1.016067  0
H  H39  1  0.81704823  0.08186738  0.91901255  1  0  0.100939  0  0.952666  0  0  0.111041  0  1.013115  0  0  0.114244  0  1.00898  0  0  0.136013  0.108661  0  1.016091  0
H  H40  1  0.60046189  0.13828556  0.42256813  1  0  0.314288  0  0.935197  0  0  0.292806  0  0.994403  0  0  0.301782  0  0.987712  0  0  0.308516  0.286507  0  0.999128  0
H  H41  1  0.46218255  0.86171771  0.07743182  1  0  0.314282  0  0.935236  0  0  0.292797  0  0.994421  0  0  0.301773  0  0.987732  0  0  0.308529  0.286502  0  0.999137  0
H  H42  1  0.39953147  0.86170955  0.57743117  1  0  0.314271  0  0.935219  0  0  0.292804  0  0.994414  0  0  0.301781  0  0.987722  0  0  0.308514  0.286505  0  0.99914  0
H  H43  1  0.53781880  0.13828148  0.92256840  1  0  0.314298  0  0.935185  0  0  0.292826  0  0.994376  0  0  0.301802  0  0.987686  0  0  0.308514  0.286527  0  0.999099  0
H  H44  1  0.79121770  0.36158521  0.54497244  1  0  0.133375  0  0.962892  0  0  0.14124  0  1.024454  0  0  0.144686  0  1.022133  0  0  0.123478  0.138707  0  1.026284  0
H  H45  1  0.42962426  0.63840828  0.95503133  1  0  0.133333  0  0.962944  0  0  0.141239  0  1.024456  0  0  0.144685  0  1.022134  0  0  0.1235  0.138706  0  1.026286  0
H  H46  1  0.20877756  0.63841130  0.45502577  1  0  0.133356  0  0.962898  0  0  0.141252  0  1.024416  0  0  0.144699  0  1.022092  0  0  0.123478  0.138719  0  1.026245  0
H  H47  1  0.57037420  0.36159227  0.04496959  1  0  0.133354  0  0.962883  0  0  0.141234  0  1.024436  0  0  0.144681  0  1.022112  0  0  0.123483  0.1387  0  1.026265  0
C  C48  1  0.59315733  0.55633684  0.80325300  1  0  0.640556  0  3.866034  0  0  0.589595  0  4.174529  0  0  0.622101  0  4.168532  0  0  0.214603  0.567516  0  4.177918  0
C  C49  1  0.03682525  0.44366116  0.69674912  1  0  0.640339  0  3.866297  0  0  0.589297  0  4.174803  0  0  0.621806  0  4.168802  0  0  0.214381  0.567218  0  4.178191  0
C  C50  1  0.40683999  0.44366380  0.19674432  1  0  0.640549  0  3.866014  0  0  0.589512  0  4.174559  0  0  0.622026  0  4.168556  0  0  0.214577  0.567432  0  4.177946  0
C  C51  1  0.96317696  0.55634214  0.30325141  1  0  0.640513  0  3.866038  0  0  0.589376  0  4.174678  0  0  0.621884  0  4.168678  0  0  0.214416  0.567299  0  4.178063  0
C  C52  1  0.50162514  0.40855988  0.72777053  1  0  0.062673  0  3.536587  0  0  0.036458  0  3.791149  0  0  0.035703  0  3.802028  0  0  0.00931  0.036834  0  3.783966  0
C  C53  1  0.09306435  0.59143678  0.77223151  1  0  0.062494  0  3.536971  0  0  0.036657  0  3.790991  0  0  0.035897  0  3.801877  0  0  0.009347  0.037026  0  3.783815  0
C  C54  1  0.49837246  0.59143658  0.27222948  1  0  0.062559  0  3.536875  0  0  0.036532  0  3.791201  0  0  0.035776  0  3.802081  0  0  0.009339  0.036905  0  3.784015  0
C  C55  1  0.90693648  0.40856377  0.22776941  1  0  0.062518  0  3.536849  0  0  0.03668  0  3.790869  0  0  0.035915  0  3.801765  0  0  0.009346  0.037063  0  3.783697  0
C  C56  1  0.57730847  0.49908733  0.65173751  1  0  -0.209027  0  3.702817  0  0  -0.256074  0  3.951006  0  0  -0.257486  0  3.963943  0  0  -0.153878  -0.254854  0  3.942111  0
C  C57  1  0.07821134  0.50090926  0.84826569  1  0  -0.209243  0  3.70306  0  0  -0.256275  0  3.951067  0  0  -0.257677  0  3.96398  0  0  -0.15389  -0.25505  0  3.942161  0
C  C58  1  0.42269340  0.50091053  0.34826140  1  0  -0.209085  0  3.703118  0  0  -0.256104  0  3.951147  0  0  -0.257516  0  3.964082  0  0  -0.153893  -0.254874  0  3.942233  0
C  C59  1  0.92179086  0.49909402  0.15173544  1  0  -0.209345  0  3.703113  0  0  -0.256332  0  3.950989  0  0  -0.257742  0  3.963913  0  0  -0.153942  -0.255154  0  3.942144  0
C  C60  1  0.53427307  0.37105452  0.57384359  1  0  0.164244  0  3.76945  0  0  0.165613  0  4.030903  0  0  0.167434  0  4.056673  0  0  0.068554  0.164268  0  4.01351  0
C  C61  1  0.16321153  0.62894345  0.92615849  1  0  0.164356  0  3.769398  0  0  0.165746  0  4.030755  0  0  0.167574  0  4.056512  0  0  0.06857  0.164392  0  4.013373  0
C  C62  1  0.46572406  0.62894336  0.42615473  1  0  0.16423  0  3.769522  0  0  0.165615  0  4.030922  0  0  0.167438  0  4.05669  0  0  0.068546  0.164268  0  4.013528  0
C  C63  1  0.83678761  0.37105845  0.07384314  1  0  0.164291  0  3.769372  0  0  0.165616  0  4.030765  0  0  0.167445  0  4.056521  0  0  0.06853  0.164279  0  4.013386  0
C  C64  1  0.37623206  0.17420461  0.46473691  1  0  0.222626  0  3.666795  0  0  0.163517  0  3.935621  0  0  0.177775  0  3.947195  0  0  0.14372  0.154306  0  3.927475  0
C  C65  1  0.20203368  0.82580303  0.03526432  1  0  0.222492  0  3.666824  0  0  0.163327  0  3.93565  0  0  0.177584  0  3.947226  0  0  0.143686  0.154114  0  3.927504  0
C  C66  1  0.62376249  0.82579050  0.53526239  1  0  0.222539  0  3.666905  0  0  0.163482  0  3.935743  0  0  0.17774  0  3.947318  0  0  0.143726  0.154267  0  3.927602  0
C  C67  1  0.79796990  0.17420299  0.96473702  1  0  0.222577  0  3.66684  0  0  0.163463  0  3.935666  0  0  0.17772  0  3.947241  0  0  0.143698  0.154248  0  3.927525  0
C  C68  1  0.64918484  0.32241851  0.53257750  1  0  -0.04794  0  3.627936  0  0  -0.095842  0  3.893728  0  0  -0.094068  0  3.910959  0  0  0.004511  -0.096989  0  3.882283  0
C  C69  1  0.32676382  0.67757932  0.96742316  1  0  -0.047887  0  3.627902  0  0  -0.095865  0  3.893679  0  0  -0.094091  0  3.910906  0  0  0.004493  -0.097013  0  3.88224  0
C  C70  1  0.35080991  0.67757937  0.46742081  1  0  -0.047958  0  3.627804  0  0  -0.095866  0  3.8936  0  0  -0.094095  0  3.910832  0  0  0.004543  -0.097014  0  3.882157  0
C  C71  1  0.67323326  0.32241845  0.03257875  1  0  -0.047868  0  3.627773  0  0  -0.09578  0  3.893555  0  0  -0.094007  0  3.91078  0  0  0.004561  -0.096927  0  3.882109  0
N  N72  1  0.53411671  0.25343252  0.73123098  1  0  -0.526536  0  3.198181  0  0  -0.479833  0  3.404859  0  0  -0.495012  0  3.401082  0  0  -0.613902  -0.469467  0  3.407667  0
N  N73  1  0.28068123  0.74656673  0.76877171  1  0  -0.526328  0  3.198224  0  0  -0.479911  0  3.404945  0  0  -0.495093  0  3.401242  0  0  -0.613875  -0.469527  0  3.407723  0
N  N74  1  0.46588649  0.74656801  0.26877054  1  0  -0.526387  0  3.198245  0  0  -0.47987  0  3.40491  0  0  -0.495028  0  3.401171  0  0  -0.613891  -0.469506  0  3.407721  0
N  N75  1  0.71932081  0.25343384  0.23122862  1  0  -0.526331  0  3.198196  0  0  -0.479901  0  3.404908  0  0  -0.495081  0  3.401201  0  0  -0.613883  -0.46952  0  3.40768  0
N  N76  1  0.36366920  0.27763721  0.53021542  1  0  -0.479208  0  3.28235  0  0  -0.400968  0  3.581603  0  0  -0.422743  0  3.594498  0  0  -0.363942  -0.386111  0  3.572607  0
N  N77  1  0.08603326  0.72237049  0.96978698  1  0  -0.47915  0  3.282365  0  0  -0.400886  0  3.581576  0  0  -0.42266  0  3.594467  0  0  -0.363856  -0.386025  0  3.572578  0
N  N78  1  0.63632654  0.72235788  0.46978449  1  0  -0.479177  0  3.282508  0  0  -0.400921  0  3.581695  0  0  -0.422695  0  3.594586  0  0  -0.363924  -0.386063  0  3.5727  0
N  N79  1  0.91396587  0.27763139  0.03021525  1  0  -0.479176  0  3.282306  0  0  -0.400925  0  3.581557  0  0  -0.4227  0  3.594448  0  0  -0.363873  -0.386063  0  3.572556  0
N  N80  1  0.54733292  0.19945409  0.46484719  1  0  -0.264745  0  3.456525  0  0  -0.198971  0  3.698856  0  0  -0.21451  0  3.713365  0  0  -0.37604  -0.188589  0  3.688873  0
N  N81  1  0.34787963  0.80054514  0.03515377  1  0  -0.264733  0  3.456572  0  0  -0.198891  0  3.698865  0  0  -0.214431  0  3.713378  0  0  -0.376056  -0.188512  0  3.68888  0
N  N82  1  0.45266419  0.80054375  0.53515232  1  0  -0.264641  0  3.456468  0  0  -0.198924  0  3.698856  0  0  -0.214463  0  3.713364  0  0  -0.376052  -0.188544  0  3.688875  0
N  N83  1  0.65212101  0.19945262  0.96484874  1  0  -0.264732  0  3.456449  0  0  -0.198981  0  3.698815  0  0  -0.214521  0  3.713325  0  0  -0.376043  -0.1886  0  3.688834  0
O  O84  1  0.73973743  0.78410132  0.02132985  1  0  -0.857651  0  2.063243  0  0  -0.760098  0  2.380558  0  0  -0.787776  0  2.35325  0  0  -0.390134  -0.740536  0  2.3988  0
O  O85  1  0.95563253  0.21589876  0.47867242  1  0  -0.857724  0  2.063295  0  0  -0.760178  0  2.380627  0  0  -0.787854  0  2.353314  0  0  -0.390166  -0.740617  0  2.398872  0
O  O86  1  0.26026560  0.21589649  0.97867086  1  0  -0.857649  0  2.063188  0  0  -0.760101  0  2.380513  0  0  -0.78778  0  2.353203  0  0  -0.390118  -0.740538  0  2.398755  0
O  O87  1  0.04436676  0.78409632  0.52132808  1  0  -0.857676  0  2.063273  0  0  -0.760146  0  2.380604  0  0  -0.787821  0  2.353291  0  0  -0.390185  -0.740584  0  2.398846  0
O  O88  1  0.99307769  0.03936626  0.12640572  1  0  -0.853019  0  2.025796  0  0  -0.757819  0  2.324384  0  0  -0.785321  0  2.298289  0  0  -0.391845  -0.738365  0  2.341748  0
O  O89  1  0.95370599  0.96064057  0.37359449  1  0  -0.853017  0  2.025859  0  0  -0.757792  0  2.324419  0  0  -0.785306  0  2.298354  0  0  -0.391801  -0.738335  0  2.341781  0
O  O90  1  0.00692623  0.96063570  0.87359351  1  0  -0.853013  0  2.025788  0  0  -0.757834  0  2.324391  0  0  -0.78534  0  2.298308  0  0  -0.391853  -0.738379  0  2.341759  0
O  O91  1  0.04628925  0.03935591  0.62640492  1  0  -0.853007  0  2.025866  0  0  -0.757792  0  2.324438  0  0  -0.785302  0  2.298362  0  0  -0.391778  -0.738337  0  2.341802  0
O  O92  1  0.64927221  0.93449809  0.14032493  1  0  -0.829038  0  1.985263  0  0  -0.73911  0  2.218361  0  0  -0.766104  0  2.203161  0  0  -0.374328  -0.720054  0  2.228331  0
O  O93  1  0.71477393  0.06550777  0.35967381  1  0  -0.829031  0  1.98525  0  0  -0.739095  0  2.218338  0  0  -0.76609  0  2.203138  0  0  -0.374299  -0.720036  0  2.228308  0
O  O94  1  0.35073051  0.06550386  0.85967490  1  0  -0.829062  0  1.985296  0  0  -0.739132  0  2.218386  0  0  -0.766126  0  2.203186  0  0  -0.374313  -0.720072  0  2.228358  0
O  O95  1  0.28522557  0.93449009  0.64032511  1  0  -0.829069  0  1.985282  0  0  -0.739113  0  2.218364  0  0  -0.766111  0  2.203166  0  0  -0.374314  -0.720054  0  2.228334  0
O  O96  1  0.55497134  0.68171649  0.81525223  1  0  -0.59539  0  1.947726  0  0  -0.549774  0  2.168468  0  0  -0.572808  0  2.160191  0  0  -0.310906  -0.533763  0  2.173702  0
O  O97  1  0.87326088  0.31828258  0.68474340  1  0  -0.595297  0  1.947774  0  0  -0.54971  0  2.1686  0  0  -0.572756  0  2.160318  0  0  -0.310891  -0.533697  0  2.173833  0
O  O98  1  0.44502385  0.31828702  0.18474050  1  0  -0.59536  0  1.947799  0  0  -0.549743  0  2.168587  0  0  -0.572773  0  2.160295  0  0  -0.310888  -0.533738  0  2.173826  0
O  O99  1  0.12674202  0.68172209  0.31525724  1  0  -0.595406  0  1.947663  0  0  -0.549813  0  2.16855  0  0  -0.572847  0  2.160269  0  0  -0.310944  -0.5338  0  2.173782  0
O  O100  1  0.71023202  0.54225398  0.84724268  1  0  -0.646361  0  2.036348  0  0  -0.568422  0  2.306837  0  0  -0.596177  0  2.291332  0  0  -0.323812  -0.549073  0  2.316984  0
O  O101  1  0.16799427  0.45774505  0.65276656  1  0  -0.646256  0  2.036326  0  0  -0.568315  0  2.306833  0  0  -0.59608  0  2.29134  0  0  -0.32367  -0.548968  0  2.316977  0
O  O102  1  0.28977217  0.45776039  0.15275389  1  0  -0.646386  0  2.036133  0  0  -0.568413  0  2.306615  0  0  -0.5962  0  2.291138  0  0  -0.323842  -0.549067  0  2.316761  0
O  O103  1  0.83200727  0.54225690  0.34723327  1  0  -0.646322  0  2.03633  0  0  -0.568339  0  2.306868  0  0  -0.596097  0  2.291371  0  0  -0.323664  -0.548993  0  2.317012  0
