# generated using pymatgen
data_UH8C5O6
_symmetry_space_group_name_H-M   'P 1'
_cell_length_a   6.20205524
_cell_length_b   7.33192937
_cell_length_c   9.25080728
_cell_angle_alpha   99.32898622
_cell_angle_beta   102.31165082
_cell_angle_gamma   103.02848030
_symmetry_Int_Tables_number   1
_chemical_formula_structural   UH8C5O6
_chemical_formula_sum   'U2 H16 C10 O12'
_cell_volume   390.52559293
_cell_formula_units_Z   2
loop_
 _symmetry_equiv_pos_site_id
 _symmetry_equiv_pos_as_xyz
  1  'x, y, z'
loop_
 _atom_site_type_symbol
 _atom_site_label
 _atom_site_symmetry_multiplicity
 _atom_site_fract_x
 _atom_site_fract_y
 _atom_site_fract_z
 _atom_site_occupancy
 _atom_site_hle17_bader_spin_density
 _atom_site_hle17_ddec_charge
 _atom_site_hle17_ddec_spin_density
 _atom_site_hle17_ddec_sum_bond_order
 _atom_site_hle17_magmom
 _atom_site_hse06_10hf_bader_spin_density
 _atom_site_hse06_10hf_ddec_charge
 _atom_site_hse06_10hf_ddec_spin_density
 _atom_site_hse06_10hf_ddec_sum_bond_order
 _atom_site_hse06_10hf_magmom
 _atom_site_hse06_bader_spin_density
 _atom_site_hse06_ddec_charge
 _atom_site_hse06_ddec_spin_density
 _atom_site_hse06_ddec_sum_bond_order
 _atom_site_hse06_magmom
 _atom_site_pbe_bader_spin_density
 _atom_site_pbe_cm5_charge
 _atom_site_pbe_ddec_charge
 _atom_site_pbe_ddec_spin_density
 _atom_site_pbe_ddec_sum_bond_order
 _atom_site_pbe_magmom
U  U0  1  0.30718856  0.76845048  0.86573671  1  0  2.498289  0  4.149289  0  0  2.566153  0  4.794969  0  0  2.675553  0  4.759458  0  0  2.171504  2.488824  0  4.820791  0
U  U1  1  0.69282479  0.23154787  0.13427689  1  0  2.498045  0  4.149665  0  0  2.566054  0  4.795189  0  0  2.675347  0  4.759842  0  0  2.171453  2.488745  0  4.820975  0
H  H2  1  0.21004393  0.11218000  0.05271880  1  0  0.434342  0  0.867337  0  0  0.417338  0  0.912419  0  0  0.430955  0  0.892942  0  0  0.303175  0.40755  0  0.926297  0
H  H3  1  0.78996926  0.88782261  0.94728666  1  0  0.434286  0  0.867399  0  0  0.41726  0  0.912523  0  0  0.43088  0  0.893046  0  0  0.303122  0.40747  0  0.926403  0
H  H4  1  0.78094251  0.50005964  0.53599140  1  0  0.095747  0  0.904941  0  0  0.100253  0  0.965113  0  0  0.103086  0  0.962517  0  0  0.131168  0.098335  0  0.967102  0
H  H5  1  0.21904951  0.49993863  0.46400820  1  0  0.095742  0  0.904969  0  0  0.10022  0  0.96515  0  0  0.103063  0  0.962565  0  0  0.131175  0.098307  0  0.96713  0
H  H6  1  0.55344879  0.23550105  0.70620042  1  0  0.093176  0  0.952379  0  0  0.108978  0  1.014168  0  0  0.110471  0  1.013441  0  0  0.104853  0.107701  0  1.015099  0
H  H7  1  0.44654428  0.76450586  0.29380581  1  0  0.093086  0  0.952415  0  0  0.108977  0  1.014116  0  0  0.110501  0  1.013363  0  0  0.104836  0.107703  0  1.015048  0
H  H8  1  0.53903909  0.19393269  0.50873971  1  0  0.093432  0  0.945233  0  0  0.109806  0  1.006301  0  0  0.110543  0  1.007239  0  0  0.10379  0.109233  0  1.005729  0
H  H9  1  0.46094766  0.80606991  0.49126397  1  0  0.093519  0  0.945122  0  0  0.109876  0  1.006238  0  0  0.110617  0  1.007187  0  0  0.103798  0.109302  0  1.005662  0
H  H10  1  0.77941750  0.01283002  0.70227850  1  0  0.08995  0  0.947166  0  0  0.107634  0  1.008481  0  0  0.109102  0  1.008351  0  0  0.106612  0.106699  0  1.008529  0
H  H11  1  0.22057289  0.98716825  0.29771978  1  0  0.089952  0  0.94717  0  0  0.107627  0  1.008488  0  0  0.109093  0  1.008365  0  0  0.106609  0.10669  0  1.008542  0
H  H12  1  0.87232953  0.07812499  0.54282034  1  0  0.090666  0  0.949955  0  0  0.110124  0  1.004462  0  0  0.111225  0  1.004428  0  0  0.098376  0.109485  0  1.004489  0
H  H13  1  0.12765098  0.92187326  0.45717429  1  0  0.090633  0  0.950018  0  0  0.110087  0  1.004521  0  0  0.11121  0  1.004455  0  0  0.098372  0.109447  0  1.00454  0
H  H14  1  0.03157161  0.30579137  0.87348842  1  0  0.066621  0  0.95032  0  0  0.074953  0  1.021821  0  0  0.076248  0  1.020228  0  0  0.114026  0.074119  0  1.023088  0
H  H15  1  0.96843324  0.69420544  0.12650643  1  0  0.06661  0  0.950257  0  0  0.074954  0  1.021757  0  0  0.076247  0  1.020166  0  0  0.114076  0.07415  0  1.022995  0
H  H16  1  0.20840516  0.25531423  0.75059482  1  0  0.08103  0  0.929748  0  0  0.094826  0  0.992084  0  0  0.095734  0  0.990409  0  0  0.121218  0.094338  0  0.993124  0
H  H17  1  0.79158279  0.74467110  0.24939717  1  0  0.081037  0  0.929719  0  0  0.094862  0  0.992022  0  0  0.095769  0  0.990347  0  0  0.121248  0.094375  0  0.993069  0
C  C18  1  0.73671732  0.60038186  0.75452355  1  0  0.692451  0  3.781581  0  0  0.651562  0  4.078338  0  0  0.68967  0  4.065283  0  0  0.252866  0.625348  0  4.086507  0
C  C19  1  0.26330841  0.39962360  0.24547872  1  0  0.692633  0  3.781433  0  0  0.651812  0  4.078037  0  0  0.68993  0  4.064977  0  0  0.252954  0.625592  0  4.086227  0
C  C20  1  0.79683692  0.45358729  0.64440114  1  0  0.058027  0  3.543157  0  0  0.046036  0  3.785769  0  0  0.047432  0  3.792772  0  0  0.016879  0.044675  0  3.781263  0
C  C21  1  0.20316642  0.54641528  0.35559852  1  0  0.058074  0  3.542973  0  0  0.046157  0  3.785509  0  0  0.0475  0  3.79262  0  0  0.016915  0.044804  0  3.780977  0
C  C22  1  0.65467784  0.24523512  0.62283660  1  0  -0.139502  0  3.593636  0  0  -0.183923  0  3.839188  0  0  -0.1846  0  3.850594  0  0  -0.152293  -0.183289  0  3.831549  0
C  C23  1  0.34531880  0.75476749  0.37716962  1  0  -0.139548  0  3.593479  0  0  -0.184082  0  3.83913  0  0  -0.184801  0  3.850597  0  0  -0.152326  -0.183448  0  3.831491  0
C  C24  1  0.83528360  0.13255567  0.64970522  1  0  -0.137562  0  3.649658  0  0  -0.178584  0  3.904287  0  0  -0.180185  0  3.914916  0  0  -0.161443  -0.177269  0  3.896639  0
C  C25  1  0.16470768  0.86744548  0.35029571  1  0  -0.137479  0  3.649668  0  0  -0.178492  0  3.904303  0  0  -0.180095  0  3.914943  0  0  -0.161381  -0.177177  0  3.896662  0
C  C26  1  0.04288737  0.28114022  0.75546042  1  0  0.096211  0  3.541082  0  0  0.040131  0  3.816138  0  0  0.049446  0  3.81921  0  0  -0.056315  0.033785  0  3.81343  0
C  C27  1  0.95710920  0.71885660  0.24453535  1  0  0.096171  0  3.541023  0  0  0.040084  0  3.816083  0  0  0.049405  0  3.819145  0  0  -0.056423  0.033716  0  3.813371  0
O  O28  1  0.34933597  0.63770841  0.01476241  1  0  -0.700992  0  1.570891  0  0  -0.71334  0  1.870222  0  0  -0.736203  0  1.85852  0  0  -0.747785  -0.699456  0  1.879354  0
O  O29  1  0.65067593  0.36228985  0.98523474  1  0  -0.701043  0  1.570715  0  0  -0.713346  0  1.869909  0  0  -0.736188  0  1.858229  0  0  -0.747638  -0.699465  0  1.879037  0
O  O30  1  0.24312586  0.88322718  0.70827346  1  0  -0.713657  0  1.543957  0  0  -0.722939  0  1.831469  0  0  -0.746304  0  1.820248  0  0  -0.75564  -0.709065  0  1.840317  0
O  O31  1  0.75687426  0.11676534  0.29172448  1  0  -0.713503  0  1.544223  0  0  -0.722888  0  1.83181  0  0  -0.746223  0  1.820611  0  0  -0.755719  -0.709019  0  1.840653  0
O  O32  1  0.90153712  0.71639262  0.86064594  1  0  -0.669604  0  2.095265  0  0  -0.635613  0  2.347028  0  0  -0.667662  0  2.338077  0  0  -0.334294  -0.612575  0  2.352272  0
O  O33  1  0.09845771  0.28360424  0.13935714  1  0  -0.669782  0  2.095029  0  0  -0.635865  0  2.346762  0  0  -0.667902  0  2.337805  0  0  -0.334415  -0.612813  0  2.352  0
O  O34  1  0.52997764  0.60515693  0.73231129  1  0  -0.63894  0  2.035927  0  0  -0.621703  0  2.306694  0  0  -0.653935  0  2.298659  0  0  -0.345127  -0.598683  0  2.311254  0
O  O35  1  0.47001228  0.39484991  0.26768256  1  0  -0.638845  0  2.036262  0  0  -0.621675  0  2.307084  0  0  -0.653888  0  2.299054  0  0  -0.345078  -0.598651  0  2.311646  0
O  O36  1  0.03616763  0.45818178  0.70088984  1  0  -0.388224  0  2.272195  0  0  -0.344161  0  2.541929  0  0  -0.367595  0  2.547345  0  0  -0.254267  -0.326437  0  2.537019  0
O  O37  1  0.96383560  0.54181502  0.29910260  1  0  -0.388216  0  2.272222  0  0  -0.344199  0  2.54195  0  0  -0.367607  0  2.547378  0  0  -0.254276  -0.326468  0  2.537036  0
O  O38  1  0.31837896  0.03282109  0.04030295  1  0  -1.001478  0  1.781681  0  0  -1.027538  0  2.048837  0  0  -1.072981  0  2.029979  0  0  -0.717338  -0.993352  0  2.060842  0
O  O39  1  0.68163256  0.96718152  0.95970333  1  0  -1.001354  0  1.78176  0  0  -1.027416  0  2.048913  0  0  -1.072857  0  2.030041  0  0  -0.717268  -0.993226  0  2.060914  0
