# generated using pymatgen
data_Ag2H3C8BrN2(O2F3)2
_symmetry_space_group_name_H-M   'P 1'
_cell_length_a   7.75316910
_cell_length_b   8.37330331
_cell_length_c   11.60425491
_cell_angle_alpha   70.65387302
_cell_angle_beta   76.17970670
_cell_angle_gamma   79.60042077
_symmetry_Int_Tables_number   1
_chemical_formula_structural   Ag2H3C8BrN2(O2F3)2
_chemical_formula_sum   'Ag4 H6 C16 Br2 N4 O8 F12'
_cell_volume   685.98982814
_cell_formula_units_Z   2
loop_
 _symmetry_equiv_pos_site_id
 _symmetry_equiv_pos_as_xyz
  1  'x, y, z'
loop_
 _atom_site_type_symbol
 _atom_site_label
 _atom_site_symmetry_multiplicity
 _atom_site_fract_x
 _atom_site_fract_y
 _atom_site_fract_z
 _atom_site_occupancy
 _atom_site_hle17_bader_spin_density
 _atom_site_hle17_ddec_charge
 _atom_site_hle17_ddec_spin_density
 _atom_site_hle17_ddec_sum_bond_order
 _atom_site_hle17_magmom
 _atom_site_hse06_10hf_bader_spin_density
 _atom_site_hse06_10hf_ddec_charge
 _atom_site_hse06_10hf_ddec_spin_density
 _atom_site_hse06_10hf_ddec_sum_bond_order
 _atom_site_hse06_10hf_magmom
 _atom_site_hse06_bader_spin_density
 _atom_site_hse06_ddec_charge
 _atom_site_hse06_ddec_spin_density
 _atom_site_hse06_ddec_sum_bond_order
 _atom_site_hse06_magmom
 _atom_site_pbe_bader_spin_density
 _atom_site_pbe_cm5_charge
 _atom_site_pbe_ddec_charge
 _atom_site_pbe_ddec_spin_density
 _atom_site_pbe_ddec_sum_bond_order
 _atom_site_pbe_magmom
Ag  Ag0  1  0.58241601  0.83557212  0.55533562  1  0  0.541772  0  1.480633  0  0  0.415864  0  1.96519  0  0  0.450752  0  1.900313  0  0  0.415562  0.392058  0  2.010131  0
Ag  Ag1  1  0.41758502  0.16442743  0.44466425  1  0  0.54177  0  1.480679  0  0  0.415872  0  1.965224  0  0  0.450748  0  1.900359  0  0  0.41556  0.39206  0  2.010162  0
Ag  Ag2  1  0.83276734  0.05425425  0.57970090  1  0  0.572093  0  1.362535  0  0  0.437301  0  1.827416  0  0  0.475094  0  1.763968  0  0  0.408687  0.41082  0  1.871892  0
Ag  Ag3  1  0.16723369  0.94574530  0.42029724  1  0  0.572119  0  1.362539  0  0  0.437354  0  1.827386  0  0  0.475146  0  1.76394  0  0  0.408697  0.410874  0  1.871863  0
H  H4  1  0.69869286  0.45057596  0.51301676  1  0  0.080154  0  0.948216  0  0  0.084546  0  1.018273  0  0  0.087295  0  1.014611  0  0  0.124393  0.082425  0  1.021151  0
H  H5  1  0.30131067  0.54942487  0.48698326  1  0  0.080164  0  0.948245  0  0  0.08456  0  1.018299  0  0  0.087311  0  1.014636  0  0  0.124402  0.08244  0  1.02118  0
H  H6  1  0.57180955  0.07540389  0.85002830  1  0  0.090075  0  0.948919  0  0  0.092725  0  1.024536  0  0  0.095982  0  1.02087  0  0  0.110226  0.090276  0  1.027245  0
H  H7  1  0.42818852  0.92459820  0.14997143  1  0  0.090059  0  0.948922  0  0  0.092696  0  1.024557  0  0  0.09597  0  1.020874  0  0  0.110211  0.090247  0  1.02727  0
H  H8  1  0.40969626  0.61007900  0.81476972  1  0  0.106617  0  0.94483  0  0  0.109573  0  1.01693  0  0  0.113037  0  1.01298  0  0  0.11592  0.10681  0  1.020112  0
H  H9  1  0.59030181  0.38992309  0.18522915  1  0  0.106625  0  0.944828  0  0  0.109557  0  1.016941  0  0  0.113021  0  1.012991  0  0  0.115914  0.106804  0  1.020115  0
C  C10  1  0.63345663  0.41836573  0.61088308  1  0  0.276547  0  3.681651  0  0  0.224939  0  3.94518  0  0  0.239572  0  3.95986  0  0  0.173041  0.215247  0  3.935455  0
C  C11  1  0.36654439  0.58163383  0.38911851  1  0  0.276528  0  3.681415  0  0  0.224899  0  3.945  0  0  0.23953  0  3.959675  0  0  0.173035  0.215208  0  3.935276  0
C  C12  1  0.56453569  0.21031419  0.79730514  1  0  0.146645  0  3.64215  0  0  0.103198  0  3.893662  0  0  0.113206  0  3.91018  0  0  0.061464  0.096696  0  3.88282  0
C  C13  1  0.43546370  0.78968791  0.20269524  1  0  0.146674  0  3.642109  0  0  0.103245  0  3.893604  0  0  0.11324  0  3.910117  0  0  0.061503  0.096746  0  3.882765  0
C  C14  1  0.48074608  0.33580269  0.85292974  1  0  -0.006907  0  3.690658  0  0  0.011098  0  3.96785  0  0  0.006577  0  3.987771  0  0  -0.010357  0.013095  0  3.954965  0
C  C15  1  0.51925259  0.66419431  0.14707025  1  0  -0.006882  0  3.690697  0  0  0.011119  0  3.96788  0  0  0.006598  0  3.987806  0  0  -0.010361  0.013108  0  3.955007  0
C  C16  1  0.47461364  0.50520149  0.77832166  1  0  0.134698  0  3.647911  0  0  0.086369  0  3.909474  0  0  0.097255  0  3.924001  0  0  0.056978  0.079456  0  3.89998  0
C  C17  1  0.52538708  0.49480061  0.22167765  1  0  0.134604  0  3.648078  0  0  0.086308  0  3.909643  0  0  0.097191  0  3.92417  0  0  0.056931  0.079391  0  3.900147  0
C  C18  1  0.74453018  0.00358594  0.28956441  1  0  0.499062  0  3.994574  0  0  0.443515  0  4.283249  0  0  0.475202  0  4.281486  0  0  0.190648  0.421987  0  4.283844  0
C  C19  1  0.25547380  0.99641107  0.71043473  1  0  0.499165  0  3.99457  0  0  0.443532  0  4.283322  0  0  0.475204  0  4.281589  0  0  0.190683  0.422007  0  4.283907  0
C  C20  1  0.87823215  0.02306048  0.16371228  1  0  0.680387  0  3.653463  0  0  0.611024  0  3.994902  0  0  0.63722  0  3.969084  0  0  0.292461  0.592273  0  4.013503  0
C  C21  1  0.12177020  0.97693907  0.83628737  1  0  0.680247  0  3.653648  0  0  0.611008  0  3.994925  0  0  0.637209  0  3.969101  0  0  0.292422  0.592265  0  4.013512  0
C  C22  1  0.99824726  0.68839419  0.67910008  1  0  0.506548  0  3.98886  0  0  0.452377  0  4.272949  0  0  0.484496  0  4.270334  0  0  0.196261  0.430513  0  4.274183  0
C  C23  1  0.00175111  0.31160535  0.32090193  1  0  0.50661  0  3.988758  0  0  0.452489  0  4.272776  0  0  0.4846  0  4.270172  0  0  0.196285  0.430629  0  4.274011  0
C  C24  1  0.01103544  0.50221991  0.76792485  1  0  0.670078  0  3.665135  0  0  0.605296  0  3.999302  0  0  0.631244  0  3.973731  0  0  0.29496  0.586418  0  4.018278  0
C  C25  1  0.98896130  0.49778217  0.23207509  1  0  0.669984  0  3.665263  0  0  0.605168  0  3.999478  0  0  0.631117  0  3.973907  0  0  0.294871  0.58628  0  4.018471  0
Br  Br26  1  0.38228434  0.28044461  0.02443613  1  0  0.039178  0  1.351576  0  0  0.035857  0  1.627081  0  0  0.031634  0  1.616165  0  0  0.095096  0.03906  0  1.635056  0
Br  Br27  1  0.61771373  0.71955748  0.97556360  1  0  0.039151  0  1.351621  0  0  0.035843  0  1.627106  0  0  0.031623  0  1.616184  0  0  0.09509  0.039052  0  1.635086  0
N  N28  1  0.55228573  0.54568626  0.65717116  1  0  -0.31896  0  3.210719  0  0  -0.240872  0  3.495247  0  0  -0.263111  0  3.509781  0  0  -0.32512  -0.22591  0  3.485327  0
N  N29  1  0.44771647  0.45431456  0.34282649  1  0  -0.318865  0  3.210592  0  0  -0.240786  0  3.495121  0  0  -0.263016  0  3.509649  0  0  -0.32505  -0.225822  0  3.4852  0
N  N30  1  0.64098958  0.25249767  0.67588224  1  0  -0.326269  0  3.189721  0  0  -0.247351  0  3.470454  0  0  -0.270035  0  3.485265  0  0  -0.316822  -0.232354  0  3.460609  0
N  N31  1  0.35901278  0.74750189  0.32411655  1  0  -0.326273  0  3.189701  0  0  -0.247362  0  3.470455  0  0  -0.270046  0  3.485271  0  0  -0.316855  -0.232367  0  3.460613  0
O  O32  1  0.79453300  0.89560832  0.38427338  1  0  -0.567144  0  2.170967  0  0  -0.501571  0  2.44484  0  0  -0.531872  0  2.432382  0  0  -0.316124  -0.48061  0  2.452766  0
O  O33  1  0.20547083  0.10438996  0.61572635  1  0  -0.56717  0  2.170962  0  0  -0.501572  0  2.444858  0  0  -0.531869  0  2.432411  0  0  -0.316129  -0.480612  0  2.452777  0
O  O34  1  0.59912625  0.09758696  0.27987423  1  0  -0.548845  0  2.149082  0  0  -0.492543  0  2.419346  0  0  -0.522326  0  2.410983  0  0  -0.312095  -0.471929  0  2.424483  0
O  O35  1  0.40087640  0.90241004  0.72012598  1  0  -0.54886  0  2.149081  0  0  -0.492542  0  2.419402  0  0  -0.522322  0  2.411049  0  0  -0.312102  -0.471932  0  2.42454  0
O  O36  1  0.85267302  0.77956369  0.70022382  1  0  -0.553855  0  2.133587  0  0  -0.487392  0  2.403892  0  0  -0.517789  0  2.393001  0  0  -0.316912  -0.466391  0  2.411046  0
O  O37  1  0.14733169  0.22043842  0.29977571  1  0  -0.553928  0  2.133515  0  0  -0.487484  0  2.403799  0  0  -0.517878  0  2.392912  0  0  -0.31691  -0.466472  0  2.410932  0
O  O38  1  0.13754158  0.72535481  0.59878107  1  0  -0.559775  0  2.154081  0  0  -0.497915  0  2.422366  0  0  -0.528698  0  2.413272  0  0  -0.312113  -0.476422  0  2.427987  0
O  O39  1  0.86245857  0.27464091  0.40121640  1  0  -0.559776  0  2.15412  0  0  -0.497947  0  2.422414  0  0  -0.528725  0  2.413324  0  0  -0.312131  -0.476456  0  2.428029  0
F  F40  1  0.82091119  0.94848029  0.09331117  1  0  -0.253554  0  1.192526  0  0  -0.220376  0  1.368972  0  0  -0.230189  0  1.353354  0  0  -0.109538  -0.213594  0  1.379967  0
F  F41  1  0.17909131  0.05151799  0.90668963  1  0  -0.253551  0  1.192538  0  0  -0.220401  0  1.36895  0  0  -0.230218  0  1.35333  0  0  -0.109569  -0.213623  0  1.379944  0
F  F42  1  0.04575455  0.94912216  0.17810888  1  0  -0.246376  0  1.22281  0  0  -0.208709  0  1.40284  0  0  -0.218466  0  1.386603  0  0  -0.104013  -0.201572  0  1.414071  0
F  F43  1  0.95424898  0.05087867  0.82189028  1  0  -0.246318  0  1.222869  0  0  -0.208669  0  1.402843  0  0  -0.218426  0  1.386605  0  0  -0.103975  -0.201537  0  1.41407  0
F  F44  1  0.88940107  0.18977138  0.09791534  1  0  -0.238184  0  1.192943  0  0  -0.204426  0  1.36372  0  0  -0.212969  0  1.347313  0  0  -0.105222  -0.198148  0  1.375052  0
F  F45  1  0.11059731  0.81022817  0.90208409  1  0  -0.238161  0  1.192946  0  0  -0.204443  0  1.363697  0  0  -0.212986  0  1.347286  0  0  -0.105224  -0.198168  0  1.375026  0
F  F46  1  0.06490248  0.49625249  0.87260508  1  0  -0.242165  0  1.226716  0  0  -0.206045  0  1.401527  0  0  -0.215944  0  1.386585  0  0  -0.099598  -0.198793  0  1.411989  0
F  F47  1  0.93509073  0.50374577  0.12739806  1  0  -0.242163  0  1.226705  0  0  -0.20602  0  1.401506  0  0  -0.215917  0  1.386564  0  0  -0.099567  -0.198766  0  1.411973  0
F  F48  1  0.13131498  0.39722697  0.71194155  1  0  -0.244683  0  1.198853  0  0  -0.20045  0  1.361818  0  0  -0.210735  0  1.347507  0  0  -0.10596  -0.192946  0  1.371883  0
F  F49  1  0.86868089  0.60277130  0.28806203  1  0  -0.244599  0  1.198985  0  0  -0.200371  0  1.361979  0  0  -0.210657  0  1.347666  0  0  -0.105901  -0.192862  0  1.372046  0
F  F50  1  0.85246431  0.43567942  0.80427522  1  0  -0.237145  0  1.223059  0  0  -0.206042  0  1.40014  0  0  -0.21644  0  1.386762  0  0  -0.101823  -0.198482  0  1.409598  0
F  F51  1  0.14753360  0.56432394  0.19572251  1  0  -0.237149  0  1.223101  0  0  -0.206041  0  1.400198  0  0  -0.21644  0  1.386815  0  0  -0.101832  -0.198479  0  1.409659  0
