# generated using pymatgen
data_NiH20C21(NO)6
_symmetry_space_group_name_H-M   'P 1'
_cell_length_a   10.27413928
_cell_length_b   10.95842200
_cell_length_c   10.85038550
_cell_angle_alpha   71.42425989
_cell_angle_beta   69.18443004
_cell_angle_gamma   70.24216179
_symmetry_Int_Tables_number   1
_chemical_formula_structural   NiH20C21(NO)6
_chemical_formula_sum   'Ni2 H40 C42 N12 O12'
_cell_volume   1046.97088049
_cell_formula_units_Z   2
loop_
 _symmetry_equiv_pos_site_id
 _symmetry_equiv_pos_as_xyz
  1  'x, y, z'
loop_
 _atom_site_type_symbol
 _atom_site_label
 _atom_site_symmetry_multiplicity
 _atom_site_fract_x
 _atom_site_fract_y
 _atom_site_fract_z
 _atom_site_occupancy
 _atom_site_pbe_cm5_charge
 _atom_site_pbe_ddec_charge
 _atom_site_pbe_ddec_spin_density
 _atom_site_pbe_ddec_sum_bond_order
 _atom_site_pbe_magmom
Ni  Ni0  1  0.46991030  0.30399233  0.43831739  1  0.61816  0.719738  0.005506  2.522681  0.006
Ni  Ni1  1  0.53008846  0.69600823  0.56168340  1  0.61814  0.719725  0.005488  2.522687  0.006
H  H2  1  0.22417027  0.45064868  0.48551772  1  0.282877  0.373055  0.000146  0.974139  0.0
H  H3  1  0.77583195  0.54935089  0.51447764  1  0.282879  0.37306  0.000146  0.974139  0.0
H  H4  1  0.30357120  0.53562854  0.52265431  1  0.286384  0.386482  0.00074  0.951151  0.001
H  H5  1  0.69643049  0.46436904  0.47734462  1  0.28639  0.386479  0.000739  0.951156  0.001
H  H6  1  0.90706643  0.00233948  0.33759288  1  0.105676  0.116213  0.00059  1.037492  0.0
H  H7  1  0.09293394  0.99765909  0.66240710  1  0.10565  0.116192  0.00059  1.037432  0.0
H  H8  1  0.31599137  0.05299993  0.31085060  1  0.107126  0.124795  -0.00043  1.019689  0.0
H  H9  1  0.68400977  0.94699964  0.68914788  1  0.107124  0.124772  -0.00043  1.019703  0.0
H  H10  1  0.92750327  0.35744583  0.41166780  1  0.105926  0.111246  0.000576  1.044329  0.0
H  H11  1  0.07249373  0.64255372  0.58833110  1  0.105905  0.111234  0.000576  1.044338  0.0
H  H12  1  0.05630437  0.77521175  0.37396242  1  0.094895  0.10306  -3.4e-05  1.029655  0.0
H  H13  1  0.94369707  0.22478682  0.62603536  1  0.094899  0.103046  -3.4e-05  1.029672  0.0
H  H14  1  0.04565240  0.87022275  0.20734912  1  0.089562  0.086212  -1.7e-05  1.070448  0.0
H  H15  1  0.95434980  0.12977682  0.79264809  1  0.08955  0.086202  -1.7e-05  1.070457  0.0
H  H16  1  0.19868655  0.73499987  0.22746736  1  0.10022  0.105628  -2.1e-05  1.025297  0.0
H  H17  1  0.80131667  0.26499970  0.77253044  1  0.100184  0.105558  -2.1e-05  1.025367  0.0
H  H18  1  0.29223462  0.52663282  0.23600943  1  0.135692  0.100796  -0.000104  1.035249  0.0
H  H19  1  0.70776780  0.47336576  0.76399172  1  0.135689  0.100835  -0.000104  1.035215  0.0
H  H20  1  0.73342285  0.41563617  0.20533267  1  0.144169  0.11518  0.00012  1.022898  0.0
H  H21  1  0.26658090  0.58436141  0.79466744  1  0.144174  0.115202  0.00012  1.022931  0.0
H  H22  1  0.69681206  0.64497113  0.88085032  1  0.117847  0.108788  2e-06  1.00034  0.0
H  H23  1  0.30319140  0.35502744  0.11915049  1  0.117823  0.108747  2e-06  1.000414  0.0
H  H24  1  0.67606187  0.74076020  0.99476598  1  0.11696  0.107677  3.4e-05  1.004837  0.0
H  H25  1  0.32393846  0.25923837  0.00523677  1  0.116985  0.107724  3.4e-05  1.004719  0.0
H  H26  1  0.83298510  0.63504191  0.16620583  1  0.104313  0.110361  0.00013  1.010622  0.0
H  H27  1  0.16701570  0.36495865  0.83379706  1  0.104337  0.110381  0.00013  1.010586  0.0
H  H28  1  0.92270358  0.48571185  0.81325659  1  0.10476  0.115634  2.7e-05  1.017862  0.0
H  H29  1  0.07729777  0.51428672  0.18674674  1  0.104754  0.115615  2.7e-05  1.017883  0.0
H  H30  1  0.50523332  0.28064582  0.72261616  1  0.138453  0.108915  0.000105  0.993998  0.0
H  H31  1  0.49476545  0.71935473  0.27738369  1  0.138464  0.108959  0.000105  0.993945  0.0
H  H32  1  0.36296359  0.02549157  0.60901144  1  0.148944  0.138889  4.9e-05  0.999036  0.0
H  H33  1  0.63703020  0.97451197  0.39098909  1  0.148958  0.13893  4.9e-05  0.998994  0.0
H  H34  1  0.34910426  0.84421227  0.84487382  1  0.121024  0.120319  -3.1e-05  0.988123  0.0
H  H35  1  0.65089498  0.15579027  0.15512710  1  0.121032  0.120296  -3.1e-05  0.98806  0.0
H  H36  1  0.36320421  0.89360062  0.97994186  1  0.12284  0.119541  4.6e-05  0.977391  0.0
H  H37  1  0.63679270  0.10640292  0.02005766  1  0.122823  0.119528  4.6e-05  0.977411  0.0
H  H38  1  0.12446346  0.79220681  0.91695748  1  0.09898  0.100923  3.6e-05  1.016292  0.0
H  H39  1  0.87553581  0.20779574  0.08304159  1  0.09901  0.100946  3.6e-05  1.016296  0.0
H  H40  1  0.14023742  0.14871936  0.99218329  1  0.100542  0.102052  -9e-06  1.034743  0.0
H  H41  1  0.85976185  0.85128319  0.00781485  1  0.100545  0.102044  -9e-06  1.034743  0.0
C  C42  1  0.74196504  0.22689079  0.40693320  1  0.199069  0.548733  -0.000525  4.19009  -0.001
C  C43  1  0.25803290  0.77310877  0.59307185  1  0.199054  0.548655  -0.000525  4.190357  -0.001
C  C44  1  0.90155612  0.18321117  0.37788927  1  -0.024122  -0.023901  0.00085  4.028345  0.001
C  C45  1  0.09844322  0.81678740  0.62211011  1  -0.024088  -0.023796  0.000851  4.028158  0.001
C  C46  1  0.97190282  0.06037772  0.34182925  1  -0.097858  -0.216654  0.000547  3.966516  0.0
C  C47  1  0.02809547  0.93962085  0.65817140  1  -0.097829  -0.216652  0.000547  3.966332  0.0
C  C48  1  0.12143600  0.01487762  0.31412233  1  0.082811  0.253541  -0.000207  4.068517  0.0
C  C49  1  0.87856410  0.98512195  0.68587648  1  0.082808  0.253522  -0.000207  4.068561  0.0
C  C50  1  0.20014056  0.09051895  0.32677217  1  -0.090629  -0.190617  -0.000356  3.911114  0.0
C  C51  1  0.79985850  0.90948061  0.67322698  1  -0.090631  -0.190563  -0.000356  3.911066  0.0
C  C52  1  0.12962565  0.21275691  0.36272196  1  -0.023881  -0.028384  -0.007376  4.017307  -0.006
C  C53  1  0.87037422  0.78724365  0.63727386  1  -0.023883  -0.02843  -0.007376  4.017271  -0.006
C  C54  1  0.98003984  0.26095677  0.38595906  1  -0.094209  -0.150224  -0.00045  3.986948  0.0
C  C55  1  0.01995925  0.73904279  0.61403824  1  -0.094227  -0.150274  -0.00045  3.986918  0.0
C  C56  1  0.21212042  0.29094973  0.38410288  1  0.202181  0.553548  -0.001856  4.215764  0.001
C  C57  1  0.78787868  0.70904984  0.61589349  1  0.202179  0.553614  -0.001855  4.215714  0.001
C  C58  1  0.11808216  0.81560811  0.27170823  1  -0.147926  -0.173688  -9.6e-05  3.879553  0.0
C  C59  1  0.88192105  0.18439147  0.72829050  1  -0.147905  -0.173601  -9.6e-05  3.879503  0.0
C  C60  1  0.40575546  0.52491820  0.19867832  1  0.144627  0.128632  0.000441  3.987445  0.0
C  C61  1  0.59424723  0.47507937  0.80132305  1  0.144633  0.128525  0.000442  3.987391  0.0
C  C62  1  0.62929638  0.46395027  0.18697468  1  0.163999  0.083505  -3.4e-05  3.888978  0.0
C  C63  1  0.37070683  0.53604930  0.81302404  1  0.164036  0.083555  -3.3e-05  3.888872  0.0
C  C64  1  0.70876180  0.63898283  0.97918997  1  -0.042713  -0.141107  1.7e-05  3.868587  0.0
C  C65  1  0.29123799  0.36101773  0.02081140  1  -0.04274  -0.141165  1.7e-05  3.86859  0.0
C  C66  1  0.90630298  0.57718088  0.09184088  1  -0.08817  -0.126899  0.000192  3.966818  0.0
C  C67  1  0.09369941  0.42281769  0.90816212  1  -0.088242  -0.127  0.000192  3.966875  0.0
C  C68  1  0.86017233  0.56880794  0.98833724  1  -0.014123  0.076837  1.3e-05  3.989344  0.0
C  C69  1  0.13982980  0.43119163  0.01166460  1  -0.014102  0.076859  1.3e-05  3.98949  0.0
C  C70  1  0.95524848  0.49086336  0.89655545  1  -0.086601  -0.12098  4e-05  3.958703  0.0
C  C71  1  0.04475393  0.50913521  0.10344662  1  -0.086615  -0.120996  4e-05  3.9588  0.0
C  C72  1  0.45942725  0.20271325  0.72847308  1  0.147153  0.137369  -0.00107  3.98755  -0.001
C  C73  1  0.54056992  0.79728930  0.27152759  1  0.147163  0.137365  -0.00107  3.987561  -0.001
C  C74  1  0.38929231  0.07495086  0.66581376  1  0.172195  0.094884  0.000875  3.818315  0.001
C  C75  1  0.61070250  0.92505268  0.33418736  1  0.1722  0.094838  0.000875  3.818255  0.001
C  C76  1  0.31411152  0.92610603  0.89609721  1  -0.038771  -0.143632  0.000332  3.868635  0.0
C  C77  1  0.68588696  0.07389552  0.10390335  1  -0.038731  -0.143536  0.000332  3.868506  0.0
C  C78  1  0.07029212  0.88336636  0.95385102  1  -0.088387  -0.126718  0.000114  3.990914  0.0
C  C79  1  0.92970507  0.11663619  0.04614780  1  -0.088426  -0.1268  0.000114  3.990952  0.0
C  C80  1  0.15151867  0.96653611  0.94712846  1  -0.010942  0.087118  8.8e-05  3.965084  0.0
C  C81  1  0.84848039  0.03346345  0.05287070  1  -0.010949  0.087196  8.8e-05  3.965022  0.0
C  C82  1  0.07919479  0.08365383  0.99400364  1  -0.092293  -0.135017  5e-05  3.981915  0.0
C  C83  1  0.92080400  0.91634673  0.00599529  1  -0.092262  -0.135022  5e-05  3.981927  0.0
N  N84  1  0.50411491  0.43464838  0.26281551  1  -0.351853  -0.30032  0.004237  3.616809  0.004
N  N85  1  0.49588930  0.56535119  0.73718566  1  -0.351894  -0.300352  0.004252  3.616783  0.004
N  N86  1  0.60544703  0.56757524  0.08369586  1  -0.130681  0.167576  3.3e-05  3.729566  0.0
N  N87  1  0.39455568  0.43242234  0.91630459  1  -0.130647  0.167596  3.3e-05  3.729461  0.0
N  N88  1  0.46304571  0.60842602  0.08929645  1  -0.223197  -0.266328  0.000645  3.091964  0.001
N  N89  1  0.53695726  0.39157056  0.91070515  1  -0.223218  -0.26627  0.000646  3.091918  0.001
N  N90  1  0.44263725  0.18195409  0.61806948  1  -0.348226  -0.273932  0.007192  3.60577  0.007
N  N91  1  0.55735994  0.81804845  0.38193026  1  -0.34825  -0.273911  0.00721  3.605769  0.007
N  N92  1  0.37444737  0.03469257  0.79989861  1  -0.129211  0.176435  0.00027  3.719283  0.0
N  N93  1  0.62555084  0.96530997  0.20010172  1  -0.129208  0.176403  0.00027  3.719237  0.0
N  N94  1  0.41806717  0.11557791  0.84192450  1  -0.224542  -0.281078  -6.7e-05  3.116462  0.0
N  N95  1  0.58193131  0.88442364  0.15807606  1  -0.224584  -0.28115  -6.5e-05  3.116395  0.0
O  O96  1  0.66831495  0.32365037  0.46564771  1  -0.300189  -0.537123  -0.062298  2.251542  -0.063
O  O97  1  0.33168686  0.67634620  0.53436256  1  -0.30024  -0.537203  -0.062303  2.251655  -0.063
O  O98  1  0.67905385  0.16898292  0.36855014  1  -0.303443  -0.534431  0.071997  2.250713  0.076
O  O99  1  0.32094303  0.83102062  0.63145123  1  -0.303363  -0.534285  0.071985  2.250776  0.076
O  O100  1  0.14852164  0.40923584  0.39799777  1  -0.320663  -0.548675  -0.000703  2.171794  -0.001
O  O101  1  0.85147740  0.59076372  0.60200324  1  -0.320645  -0.548674  -0.000703  2.171844  -0.001
O  O102  1  0.34200833  0.22984113  0.38795264  1  -0.315657  -0.541503  -0.079898  2.331167  -0.085
O  O103  1  0.65799024  0.77016043  0.61204235  1  -0.315659  -0.541552  -0.079903  2.331184  -0.085
O  O104  1  0.29256500  0.44531370  0.53545912  1  -0.581688  -0.756906  0.059669  2.123946  0.06
O  O105  1  0.70743646  0.55468487  0.46453681  1  -0.581699  -0.756932  0.059661  2.12393  0.06
O  O106  1  0.19840139  0.89796050  0.27599660  1  -0.187402  -0.165523  -0.000122  2.570065  0.0
O  O107  1  0.80159898  0.10203807  0.72400337  1  -0.187357  -0.165484  -0.000122  2.570013  0.0
