# generated using pymatgen
data_CdH16C16(N2O3)2
_symmetry_space_group_name_H-M   'P 1'
_cell_length_a   9.42166838
_cell_length_b   10.05569476
_cell_length_c   11.06442309
_cell_angle_alpha   109.04976037
_cell_angle_beta   111.09325399
_cell_angle_gamma   94.99546337
_symmetry_Int_Tables_number   1
_chemical_formula_structural   CdH16C16(N2O3)2
_chemical_formula_sum   'Cd2 H32 C32 N8 O12'
_cell_volume   899.25267757
_cell_formula_units_Z   2
loop_
 _symmetry_equiv_pos_site_id
 _symmetry_equiv_pos_as_xyz
  1  'x, y, z'
loop_
 _atom_site_type_symbol
 _atom_site_label
 _atom_site_symmetry_multiplicity
 _atom_site_fract_x
 _atom_site_fract_y
 _atom_site_fract_z
 _atom_site_occupancy
 _atom_site_hle17_bader_spin_density
 _atom_site_hle17_ddec_charge
 _atom_site_hle17_ddec_spin_density
 _atom_site_hle17_ddec_sum_bond_order
 _atom_site_hle17_magmom
 _atom_site_hse06_10hf_bader_spin_density
 _atom_site_hse06_10hf_ddec_charge
 _atom_site_hse06_10hf_ddec_spin_density
 _atom_site_hse06_10hf_ddec_sum_bond_order
 _atom_site_hse06_10hf_magmom
 _atom_site_hse06_bader_spin_density
 _atom_site_hse06_ddec_charge
 _atom_site_hse06_ddec_spin_density
 _atom_site_hse06_ddec_sum_bond_order
 _atom_site_hse06_magmom
 _atom_site_pbe_bader_spin_density
 _atom_site_pbe_cm5_charge
 _atom_site_pbe_ddec_charge
 _atom_site_pbe_ddec_spin_density
 _atom_site_pbe_ddec_sum_bond_order
 _atom_site_pbe_magmom
Cd  Cd0  1  0.56326320  0.39814258  0.63321398  1  0  1.12492  0  1.671609  0  0  0.924656  0  2.117646  0  0  0.98253  0  2.067941  0  0  0.777075  0.883789  0  2.150267  0
Cd  Cd1  1  0.43673382  0.60185678  0.36678862  1  0  1.124881  0  1.671728  0  0  0.92461  0  2.11777  0  0  0.982486  0  2.068064  0  0  0.777058  0.883743  0  2.150393  0
H  H2  1  0.15134050  0.47630796  0.79102749  1  0  0.084106  0  0.965486  0  0  0.090768  0  1.038787  0  0  0.092556  0  1.037867  0  0  0.106003  0.089583  0  1.039497  0
H  H3  1  0.84865765  0.52369137  0.20897364  1  0  0.084064  0  0.965497  0  0  0.090734  0  1.038791  0  0  0.092523  0  1.03787  0  0  0.105997  0.089548  0  1.039501  0
H  H4  1  0.05562256  0.42118885  0.60644982  1  0  0.104974  0  0.888776  0  0  0.122395  0  0.937688  0  0  0.124079  0  0.936301  0  0  0.121634  0.121101  0  0.938832  0
H  H5  1  0.94437218  0.57881048  0.39354937  1  0  0.104875  0  0.888836  0  0  0.12231  0  0.937751  0  0  0.123992  0  0.936363  0  0  0.121596  0.121016  0  0.938894  0
H  H6  1  0.29591511  0.39042067  0.93129293  1  0  0.110831  0  0.970145  0  0  0.121986  0  1.031056  0  0  0.124832  0  1.030961  0  0  0.101344  0.119754  0  1.031957  0
H  H7  1  0.70408927  0.60958078  0.06870710  1  0  0.110833  0  0.970149  0  0  0.121983  0  1.031065  0  0  0.12483  0  1.030967  0  0  0.101357  0.11975  0  1.031965  0
H  H8  1  0.38020438  0.27452889  0.10101008  1  0  0.09446  0  0.952905  0  0  0.10746  0  1.009495  0  0  0.110099  0  1.007795  0  0  0.102044  0.105663  0  1.010448  0
H  H9  1  0.61979518  0.72547151  0.89899089  1  0  0.09447  0  0.952928  0  0  0.107499  0  1.009487  0  0  0.110141  0  1.007781  0  0  0.102049  0.105701  0  1.010439  0
H  H10  1  0.23785356  0.02634049  0.04858994  1  0  0.109447  0  0.958369  0  0  0.117909  0  1.023975  0  0  0.121307  0  1.023064  0  0  0.100327  0.115523  0  1.024838  0
H  H11  1  0.76214486  0.97365991  0.95140977  1  0  0.109461  0  0.958382  0  0  0.117909  0  1.024005  0  0  0.121308  0  1.023095  0  0  0.100329  0.115535  0  1.024855  0
H  H12  1  0.93058410  0.00840872  0.64116333  1  0  0.127727  0  0.96924  0  0  0.13554  0  1.036583  0  0  0.13973  0  1.03386  0  0  0.106656  0.13259  0  1.038624  0
H  H13  1  0.06941602  0.99159385  0.35883934  1  0  0.127709  0  0.969203  0  0  0.135543  0  1.036533  0  0  0.139734  0  1.033805  0  0  0.106647  0.132576  0  1.038595  0
H  H14  1  0.87311484  0.78314116  0.60408402  1  0  0.096797  0  0.941576  0  0  0.108043  0  1.001249  0  0  0.110145  0  0.999677  0  0  0.110358  0.106445  0  1.002797  0
H  H15  1  0.12688187  0.21686143  0.39591852  1  0  0.096803  0  0.941512  0  0  0.108044  0  1.001171  0  0  0.110145  0  0.9996  0  0  0.110388  0.106448  0  1.002718  0
H  H16  1  0.77213127  0.87208043  0.70213689  1  0  0.087722  0  0.912779  0  0  0.100446  0  0.97361  0  0  0.102069  0  0.972443  0  0  0.110158  0.09911  0  0.975068  0
H  H17  1  0.22786544  0.12792217  0.29786656  1  0  0.087662  0  0.912783  0  0  0.100402  0  0.973601  0  0  0.102024  0  0.972433  0  0  0.11013  0.099069  0  0.975055  0
H  H18  1  0.66706251  0.07900885  0.59854628  1  0  0.084707  0  0.941337  0  0  0.095253  0  1.004253  0  0  0.097216  0  1.002313  0  0  0.132028  0.093607  0  1.005968  0
H  H19  1  0.33293934  0.92098717  0.40144778  1  0  0.084656  0  0.941374  0  0  0.095248  0  1.004254  0  0  0.097213  0  1.002313  0  0  0.132013  0.093601  0  1.005971  0
H  H20  1  0.65822928  0.02010627  0.19922539  1  0  0.098471  0  0.99107  0  0  0.108728  0  1.0525  0  0  0.110072  0  1.053989  0  0  0.113933  0.107688  0  1.051655  0
H  H21  1  0.34177141  0.97989410  0.80077229  1  0  0.09848  0  0.991085  0  0  0.108736  0  1.052516  0  0  0.110081  0  1.054006  0  0  0.113938  0.107695  0  1.051672  0
H  H22  1  0.59650183  0.28854717  0.31472998  1  0  0.116234  0  0.989023  0  0  0.122701  0  1.055061  0  0  0.126029  0  1.052719  0  0  0.111793  0.119935  0  1.057285  0
H  H23  1  0.40350081  0.71145644  0.68526925  1  0  0.116286  0  0.988881  0  0  0.122724  0  1.054951  0  0  0.126051  0  1.052608  0  0  0.111789  0.119958  0  1.057175  0
H  H24  1  0.92330648  0.38894866  0.86062065  1  0  0.092538  0  0.952725  0  0  0.100915  0  1.017535  0  0  0.103294  0  1.014934  0  0  0.131849  0.098654  0  1.020501  0
H  H25  1  0.07669252  0.61104956  0.13937680  1  0  0.092507  0  0.952689  0  0  0.100935  0  1.017431  0  0  0.103298  0  1.014872  0  0  0.131843  0.098674  0  1.020398  0
H  H26  1  0.71847005  0.23880715  0.08868497  1  0  0.114017  0  0.945154  0  0  0.126416  0  0.999388  0  0  0.129432  0  0.997616  0  0  0.124679  0.124405  0  1.000527  0
H  H27  1  0.28153183  0.76118892  0.91131544  1  0  0.114014  0  0.945127  0  0  0.126406  0  0.99937  0  0  0.129423  0  0.997599  0  0  0.12468  0.124395  0  1.000509  0
H  H28  1  0.48583056  0.27036767  0.86557477  1  0  0.093208  0  1.001981  0  0  0.101123  0  1.067835  0  0  0.102934  0  1.068236  0  0  0.106519  0.099243  0  1.068649  0
H  H29  1  0.51417103  0.72962731  0.13442434  1  0  0.093257  0  1.001995  0  0  0.101166  0  1.067836  0  0  0.102987  0  1.068228  0  0  0.106555  0.099284  0  1.068651  0
H  H30  1  0.69479806  0.90802169  0.38399568  1  0  0.3154  0  0.928021  0  0  0.294098  0  0.992744  0  0  0.302823  0  0.985629  0  0  0.309652  0.287439  0  0.99863  0
H  H31  1  0.30520316  0.09198083  0.61600099  1  0  0.315474  0  0.927964  0  0  0.294151  0  0.992697  0  0  0.302877  0  0.98558  0  0  0.309662  0.28749  0  0.998585  0
H  H32  1  0.97427007  0.32256627  0.07724352  1  0  0.314179  0  0.931585  0  0  0.290333  0  1.000981  0  0  0.299902  0  0.993162  0  0  0.30666  0.283578  0  1.006614  0
H  H33  1  0.02573149  0.67743303  0.92275593  1  0  0.314132  0  0.93167  0  0  0.290302  0  1.001033  0  0  0.29987  0  0.993218  0  0  0.306657  0.283546  0  1.006665  0
C  C34  1  0.28746225  0.38654750  0.67718774  1  0  0.642035  0  3.90879  0  0  0.591213  0  4.212694  0  0  0.623355  0  4.208003  0  0  0.192795  0.569598  0  4.215084  0
C  C35  1  0.71253310  0.61344969  0.32281372  1  0  0.64205  0  3.908756  0  0  0.59119  0  4.212712  0  0  0.623328  0  4.208023  0  0  0.192758  0.569575  0  4.2151  0
C  C36  1  0.13196166  0.39139235  0.69047741  1  0  -0.064177  0  3.641849  0  0  -0.121391  0  3.908738  0  0  -0.118013  0  3.908343  0  0  -0.065955  -0.123946  0  3.90866  0
C  C37  1  0.86803422  0.60860699  0.30952213  1  0  -0.063949  0  3.641721  0  0  -0.12117  0  3.908637  0  0  -0.117789  0  3.908238  0  0  -0.065855  -0.123718  0  3.908546  0
C  C38  1  0.10604935  0.20450580  0.77507323  1  0  0.291155  0  3.834024  0  0  0.282381  0  4.09904  0  0  0.295404  0  4.114083  0  0  0.076871  0.273737  0  4.089135  0
C  C39  1  0.89395421  0.79549242  0.22492651  1  0  0.291176  0  3.834058  0  0  0.28235  0  4.099141  0  0  0.295375  0  4.114179  0  0  0.076875  0.273707  0  4.089231  0
C  C40  1  0.23312199  0.28139553  0.90404382  1  0  -0.24519  0  3.766042  0  0  -0.266835  0  4.018902  0  0  -0.274562  0  4.038819  0  0  -0.129183  -0.262241  0  4.007541  0
C  C41  1  0.76688010  0.71860593  0.09595552  1  0  -0.245203  0  3.766081  0  0  -0.266835  0  4.018968  0  0  -0.274561  0  4.038882  0  0  -0.129209  -0.262241  0  4.007605  0
C  C42  1  0.28013643  0.21509921  0.00101481  1  0  -0.015264  0  3.798523  0  0  -0.025006  0  4.046639  0  0  -0.021076  0  4.064688  0  0  -0.091787  -0.02678  0  4.033737  0
C  C43  1  0.71986767  0.78490115  0.99898392  1  0  -0.015256  0  3.798664  0  0  -0.025019  0  4.046763  0  0  -0.021085  0  4.064809  0  0  -0.09179  -0.026793  0  4.033865  0
C  C44  1  0.20208435  0.07751219  0.97300532  1  0  -0.217797  0  3.769015  0  0  -0.246128  0  4.033002  0  0  -0.252346  0  4.050227  0  0  -0.121153  -0.242137  0  4.020928  0
C  C45  1  0.79791404  0.92249256  0.02699746  1  0  -0.217878  0  3.769023  0  0  -0.246209  0  4.033005  0  0  -0.252429  0  4.050229  0  0  -0.121152  -0.242229  0  4.020926  0
C  C46  1  0.07254604  0.00307577  0.84388031  1  0  0.291387  0  3.828032  0  0  0.282874  0  4.090544  0  0  0.296497  0  4.104585  0  0  0.080295  0.273948  0  4.080686  0
C  C47  1  0.92745408  0.99692680  0.15612236  1  0  0.291333  0  3.827961  0  0  0.282856  0  4.09045  0  0  0.296481  0  4.104492  0  0  0.080248  0.273935  0  4.080592  0
C  C48  1  0.02558924  0.06524660  0.74434334  1  0  -0.329454  0  3.737338  0  0  -0.361278  0  3.999048  0  0  -0.370054  0  4.01554  0  0  -0.130255  -0.355495  0  3.987931  0
C  C49  1  0.97441173  0.93475488  0.25565746  1  0  -0.329438  0  3.737277  0  0  -0.361281  0  3.998979  0  0  -0.370057  0  4.015469  0  0  -0.130267  -0.355482  0  3.98787  0
C  C50  1  0.85577409  0.80192135  0.70103479  1  0  -0.068051  0  3.648319  0  0  -0.122656  0  3.907737  0  0  -0.119849  0  3.908676  0  0  -0.067861  -0.124813  0  3.907336  0
C  C51  1  0.14422489  0.19808122  0.29896663  1  0  -0.067992  0  3.648201  0  0  -0.122566  0  3.907558  0  0  -0.119761  0  3.908499  0  0  -0.067854  -0.124727  0  3.907171  0
C  C52  1  0.78283742  0.65777567  0.69468977  1  0  0.673009  0  3.876194  0  0  0.621353  0  4.176367  0  0  0.654727  0  4.169865  0  0  0.206229  0.59879  0  4.179675  0
C  C53  1  0.21716328  0.34222473  0.30531155  1  0  0.672933  0  3.876349  0  0  0.621292  0  4.176479  0  0  0.654669  0  4.16998  0  0  0.206212  0.598729  0  4.17979  0
C  C54  1  0.65477841  0.10061674  0.50594351  1  0  0.207324  0  3.71269  0  0  0.144509  0  3.99004  0  0  0.158587  0  4.003525  0  0  0.133441  0.135576  0  3.980488  0
C  C55  1  0.34522141  0.89938472  0.49405423  1  0  0.207433  0  3.71275  0  0  0.144536  0  3.990082  0  0  0.158611  0  4.003568  0  0  0.133445  0.135603  0  3.980529  0
C  C56  1  0.64970791  0.07282082  0.29796310  1  0  -0.017474  0  3.711585  0  0  -0.053399  0  3.967192  0  0  -0.052557  0  3.988501  0  0  -0.006065  -0.054149  0  3.953159  0
C  C57  1  0.35029700  0.92718278  0.70203500  1  0  -0.017337  0  3.711485  0  0  -0.053285  0  3.967035  0  0  -0.052443  0  3.988342  0  0  -0.006  -0.054033  0  3.952999  0
C  C58  1  0.61787244  0.20404794  0.35527289  1  0  -0.017263  0  3.743993  0  0  -0.048574  0  4.00283  0  0  -0.047189  0  4.02333  0  0  -0.014291  -0.049273  0  3.989113  0
C  C59  1  0.38213220  0.79595458  0.64472663  1  0  -0.017337  0  3.743728  0  0  -0.048638  0  4.002578  0  0  -0.047252  0  4.023072  0  0  -0.014314  -0.049337  0  3.988862  0
C  C60  1  0.83447142  0.35130598  0.88996052  1  0  0.212233  0  3.686645  0  0  0.153272  0  3.958352  0  0  0.166882  0  3.972411  0  0  0.134604  0.144112  0  3.950046  0
C  C61  1  0.16552931  0.64869008  0.11003774  1  0  0.212391  0  3.686445  0  0  0.153405  0  3.958154  0  0  0.167011  0  3.972204  0  0  0.134655  0.144242  0  3.949851  0
C  C62  1  0.72441302  0.27275524  0.00701404  1  0  -0.021188  0  3.715145  0  0  -0.057448  0  3.979135  0  0  -0.055643  0  3.996317  0  0  -0.003099  -0.058686  0  3.967583  0
C  C63  1  0.27558995  0.72724516  0.99298887  1  0  -0.021192  0  3.71517  0  0  -0.05744  0  3.979156  0  0  -0.055635  0  3.996337  0  0  -0.00313  -0.058679  0  3.967602  0
C  C64  1  0.61091533  0.28934279  0.89644601  1  0  -0.016837  0  3.777197  0  0  -0.049397  0  4.040242  0  0  -0.047681  0  4.06177  0  0  -0.016321  -0.050027  0  4.025903  0
C  C65  1  0.38908569  0.71065437  0.10355537  1  0  -0.01692  0  3.777287  0  0  -0.049474  0  4.04034  0  0  -0.04777  0  4.061868  0  0  -0.016361  -0.050102  0  4.026001  0
N  N66  1  0.62098136  0.21959211  0.48526859  1  0  -0.406583  0  3.281758  0  0  -0.326237  0  3.569301  0  0  -0.348369  0  3.586316  0  0  -0.368008  -0.311172  0  3.55675  0
N  N67  1  0.37902300  0.78040933  0.51472962  1  0  -0.406567  0  3.281629  0  0  -0.32621  0  3.569168  0  0  -0.348347  0  3.586195  0  0  -0.367935  -0.311145  0  3.556618  0
N  N68  1  0.67291759  0.00966515  0.39478403  1  0  -0.28108  0  3.460718  0  0  -0.213494  0  3.697425  0  0  -0.229374  0  3.712178  0  0  -0.380624  -0.202889  0  3.688145  0
N  N69  1  0.32707995  0.99033630  0.60521120  1  0  -0.28136  0  3.460869  0  0  -0.213677  0  3.697494  0  0  -0.229557  0  3.712242  0  0  -0.380743  -0.203069  0  3.688214  0
N  N70  1  0.68115237  0.33855650  0.82389816  1  0  -0.416826  0  3.268809  0  0  -0.336875  0  3.550691  0  0  -0.359168  0  3.568692  0  0  -0.365757  -0.321349  0  3.537432  0
N  N71  1  0.31884892  0.66144175  0.17610361  1  0  -0.416792  0  3.268733  0  0  -0.336845  0  3.550628  0  0  -0.359138  0  3.56863  0  0  -0.365717  -0.321319  0  3.537368  0
N  N72  1  0.86443832  0.31146627  0.00034790  1  0  -0.287399  0  3.469199  0  0  -0.221758  0  3.709893  0  0  -0.237971  0  3.724615  0  0  -0.381556  -0.211208  0  3.700916  0
N  N73  1  0.13556324  0.68853304  0.99965246  1  0  -0.287491  0  3.469258  0  0  -0.221868  0  3.709987  0  0  -0.238077  0  3.724704  0  0  -0.381614  -0.211316  0  3.701012  0
O  O74  1  0.31419178  0.26481118  0.62023187  1  0  -0.653084  0  2.033668  0  0  -0.590428  0  2.276459  0  0  -0.617843  0  2.267911  0  0  -0.323339  -0.571145  0  2.282102  0
O  O75  1  0.68579987  0.73518493  0.37976724  1  0  -0.653099  0  2.033702  0  0  -0.590431  0  2.276514  0  0  -0.617854  0  2.26799  0  0  -0.323316  -0.571148  0  2.282156  0
O  O76  1  0.38100358  0.50662403  0.71872654  1  0  -0.624455  0  1.950773  0  0  -0.563524  0  2.190539  0  0  -0.592313  0  2.182741  0  0  -0.323777  -0.543888  0  2.195824  0
O  O77  1  0.61899088  0.49337422  0.28127134  1  0  -0.624465  0  1.95064  0  0  -0.563515  0  2.190406  0  0  -0.592303  0  2.182611  0  0  -0.323784  -0.543882  0  2.195694  0
O  O78  1  0.04787104  0.25565621  0.67049851  1  0  -0.264154  0  2.322612  0  0  -0.200119  0  2.559648  0  0  -0.215723  0  2.560085  0  0  -0.187401  -0.188632  0  2.558381  0
O  O79  1  0.95212656  0.74434093  0.32949910  1  0  -0.264199  0  2.322611  0  0  -0.200148  0  2.559683  0  0  -0.215752  0  2.560114  0  0  -0.187417  -0.188663  0  2.558414  0
O  O80  1  0.99944388  0.86818792  0.82245805  1  0  -0.264975  0  2.349279  0  0  -0.194735  0  2.581732  0  0  -0.211981  0  2.584567  0  0  -0.178737  -0.182634  0  2.579174  0
O  O81  1  0.00055510  0.13181467  0.17754518  1  0  -0.264851  0  2.349256  0  0  -0.194651  0  2.581695  0  0  -0.211897  0  2.58453  0  0  -0.178683  -0.182554  0  2.579147  0
O  O82  1  0.85689411  0.59918586  0.77427716  1  0  -0.616249  0  1.983657  0  0  -0.567441  0  2.218894  0  0  -0.592564  0  2.210951  0  0  -0.311726  -0.54903  0  2.222854  0
O  O83  1  0.14310742  0.40081778  0.22572535  1  0  -0.616239  0  1.983677  0  0  -0.56746  0  2.218949  0  0  -0.592566  0  2.210974  0  0  -0.31172  -0.549048  0  2.222909  0
O  O84  1  0.64173325  0.60138684  0.60189932  1  0  -0.659335  0  2.049102  0  0  -0.577623  0  2.311969  0  0  -0.610196  0  2.301324  0  0  -0.330036  -0.55435  0  2.317621  0
O  O85  1  0.35826974  0.39861360  0.39810813  1  0  -0.65936  0  2.049254  0  0  -0.577638  0  2.312095  0  0  -0.610215  0  2.301448  0  0  -0.330035  -0.554356  0  2.317734  0
