# generated using pymatgen
data_SmH20C24Cl3O10
_symmetry_space_group_name_H-M   'P 1'
_cell_length_a   7.87391258
_cell_length_b   12.51082248
_cell_length_c   13.85532228
_cell_angle_alpha   80.27718100
_cell_angle_beta   79.29169741
_cell_angle_gamma   75.48943557
_symmetry_Int_Tables_number   1
_chemical_formula_structural   SmH20C24Cl3O10
_chemical_formula_sum   'Sm2 H40 C48 Cl6 O20'
_cell_volume   1287.54824431
_cell_formula_units_Z   2
loop_
 _symmetry_equiv_pos_site_id
 _symmetry_equiv_pos_as_xyz
  1  'x, y, z'
loop_
 _atom_site_type_symbol
 _atom_site_label
 _atom_site_symmetry_multiplicity
 _atom_site_fract_x
 _atom_site_fract_y
 _atom_site_fract_z
 _atom_site_occupancy
 _atom_site_hle17_bader_spin_density
 _atom_site_hle17_ddec_charge
 _atom_site_hle17_ddec_spin_density
 _atom_site_hle17_ddec_sum_bond_order
 _atom_site_hle17_magmom
 _atom_site_hse06_10hf_bader_spin_density
 _atom_site_hse06_10hf_ddec_charge
 _atom_site_hse06_10hf_ddec_spin_density
 _atom_site_hse06_10hf_ddec_sum_bond_order
 _atom_site_hse06_10hf_magmom
 _atom_site_hse06_bader_spin_density
 _atom_site_hse06_ddec_charge
 _atom_site_hse06_ddec_spin_density
 _atom_site_hse06_ddec_sum_bond_order
 _atom_site_hse06_magmom
 _atom_site_pbe_bader_spin_density
 _atom_site_pbe_cm5_charge
 _atom_site_pbe_ddec_charge
 _atom_site_pbe_ddec_spin_density
 _atom_site_pbe_ddec_sum_bond_order
 _atom_site_pbe_magmom
Sm  Sm0  1  0.27898159  0.97657991  0.46332492  1  0  2.319313  0  1.597311  0  0  2.235281  0  1.931066  0  0  2.278405  0  1.891008  0  0  1.518178  2.13633  0  2.082077  0
Sm  Sm1  1  0.72101446  0.02342386  0.53667298  1  0  2.319312  0  1.59729  0  0  2.235287  0  1.931031  0  0  2.278409  0  1.890974  0  0  1.518199  2.136297  0  2.082098  0
H  H2  1  0.03705995  0.89447474  0.35296367  1  0  0.448144  0  0.845965  0  0  0.411955  0  0.919425  0  0  0.423229  0  0.902616  0  0  0.306564  0.40372  0  0.93143  0
H  H3  1  0.96293638  0.10552817  0.64703721  1  0  0.448176  0  0.845942  0  0  0.411985  0  0.91939  0  0  0.423259  0  0.90258  0  0  0.306583  0.403753  0  0.93139  0
H  H4  1  0.22240649  0.80711223  0.33716783  1  0  0.44455  0  0.815622  0  0  0.421486  0  0.879074  0  0  0.429144  0  0.867906  0  0  0.321881  0.415755  0  0.88724  0
H  H5  1  0.77758968  0.19288734  0.66283427  1  0  0.444654  0  0.815535  0  0  0.421582  0  0.878959  0  0  0.429243  0  0.867784  0  0  0.321905  0.415852  0  0.887125  0
H  H6  1  0.22471645  0.78609012  0.69176335  1  0  0.088215  0  0.951339  0  0  0.093293  0  1.023297  0  0  0.095415  0  1.021753  0  0  0.110894  0.091963  0  1.024132  0
H  H7  1  0.77527801  0.21391451  0.30823170  1  0  0.088187  0  0.951297  0  0  0.093308  0  1.02324  0  0  0.095428  0  1.021697  0  0  0.110912  0.09198  0  1.024072  0
H  H8  1  0.09993334  0.88353110  0.77350818  1  0  0.115596  0  0.935006  0  0  0.122097  0  0.999568  0  0  0.124628  0  0.997793  0  0  0.120952  0.120187  0  1.001247  0
H  H9  1  0.90006113  0.11647352  0.22648904  1  0  0.11559  0  0.934925  0  0  0.122067  0  0.999584  0  0  0.124589  0  0.997814  0  0  0.120932  0.120158  0  1.001261  0
H  H10  1  0.86385251  0.59013377  0.90099009  1  0  0.107416  0  0.963372  0  0  0.113369  0  1.032033  0  0  0.117241  0  1.029385  0  0  0.096825  0.110612  0  1.033982  0
H  H11  1  0.13612342  0.40988345  0.09900653  1  0  0.107475  0  0.963403  0  0  0.113407  0  1.03208  0  0  0.117279  0  1.029431  0  0  0.096808  0.110649  0  1.034029  0
H  H12  1  0.84050813  0.41518630  0.84449449  1  0  0.109381  0  0.937538  0  0  0.121079  0  0.993825  0  0  0.123625  0  0.993164  0  0  0.103204  0.119234  0  0.994363  0
H  H13  1  0.15947052  0.58482671  0.15550605  1  0  0.109342  0  0.937566  0  0  0.121078  0  0.993829  0  0  0.123624  0  0.993168  0  0  0.103235  0.119238  0  0.994371  0
H  H14  1  0.14140640  0.50328297  0.56157538  1  0  0.115484  0  0.962616  0  0  0.119995  0  1.030521  0  0  0.12419  0  1.027217  0  0  0.103394  0.116967  0  1.032926  0
H  H15  1  0.85860588  0.49670731  0.43843072  1  0  0.115422  0  0.962671  0  0  0.119922  0  1.030589  0  0  0.124119  0  1.027283  0  0  0.103352  0.116891  0  1.032989  0
H  H16  1  0.16543468  0.67515337  0.61594565  1  0  0.118353  0  0.966527  0  0  0.129082  0  1.025656  0  0  0.13238  0  1.024273  0  0  0.107322  0.126591  0  1.027056  0
H  H17  1  0.83457718  0.32484195  0.38405399  1  0  0.118376  0  0.966583  0  0  0.129118  0  1.025683  0  0  0.132406  0  1.024324  0  0  0.107329  0.126627  0  1.027084  0
H  H18  1  0.79484320  0.81959155  0.20692194  1  0  0.081194  0  0.963402  0  0  0.083941  0  1.044984  0  0  0.085733  0  1.043233  0  0  0.101683  0.08262  0  1.04657  0
H  H19  1  0.20515715  0.18040716  0.79308058  1  0  0.081196  0  0.963437  0  0  0.083943  0  1.045014  0  0  0.085741  0  1.043267  0  0  0.101683  0.082623  0  1.046596  0
H  H20  1  0.69677618  0.96095224  0.16443288  1  0  0.093079  0  0.932808  0  0  0.10257  0  0.998408  0  0  0.103681  0  0.997947  0  0  0.106387  0.101725  0  0.999118  0
H  H21  1  0.30322231  0.03904816  0.83556815  1  0  0.093088  0  0.932801  0  0  0.102568  0  0.99841  0  0  0.10368  0  0.997949  0  0  0.106379  0.101724  0  0.99912  0
H  H22  1  0.92077025  0.82310643  0.05373202  1  0  0.104286  0  0.970606  0  0  0.114154  0  1.034157  0  0  0.117251  0  1.032686  0  0  0.097417  0.111917  0  1.035313  0
H  H23  1  0.07922077  0.17690062  0.94627315  1  0  0.104363  0  0.970457  0  0  0.114211  0  1.034026  0  0  0.117307  0  1.032554  0  0  0.09745  0.111971  0  1.035186  0
H  H24  1  0.16318013  0.76849177  0.91913229  1  0  0.111577  0  0.977562  0  0  0.118437  0  1.042484  0  0  0.122311  0  1.039507  0  0  0.102837  0.115628  0  1.044665  0
H  H25  1  0.83680468  0.23150706  0.08087184  1  0  0.11143  0  0.977687  0  0  0.118397  0  1.042507  0  0  0.122268  0  1.039526  0  0  0.10281  0.115581  0  1.044691  0
H  H26  1  0.50462228  0.91504181  0.04018345  1  0  0.097481  0  0.966199  0  0  0.107683  0  1.029593  0  0  0.110371  0  1.0281  0  0  0.097124  0.10568  0  1.030816  0
H  H27  1  0.49537976  0.08494443  0.95982142  1  0  0.097375  0  0.966218  0  0  0.107603  0  1.029612  0  0  0.110293  0  1.028115  0  0  0.097127  0.105601  0  1.030832  0
H  H28  1  0.25984830  0.97060731  0.17718738  1  0  0.127574  0  0.940998  0  0  0.13562  0  1.003243  0  0  0.13992  0  1.000307  0  0  0.111222  0.132494  0  1.00556  0
H  H29  1  0.74015967  0.02938802  0.82281410  1  0  0.127553  0  0.940973  0  0  0.135585  0  1.003242  0  0  0.139884  0  1.000307  0  0  0.111195  0.132457  0  1.005559  0
H  H30  1  0.79750065  0.70560047  0.50772858  1  0  0.102981  0  0.933077  0  0  0.108396  0  1.004274  0  0  0.110882  0  1.002074  0  0  0.114628  0.106722  0  1.005813  0
H  H31  1  0.20250344  0.29439493  0.49226969  1  0  0.102988  0  0.933028  0  0  0.108414  0  1.00421  0  0  0.1109  0  1.002011  0  0  0.114637  0.106739  0  1.005759  0
H  H32  1  0.73017096  0.69978374  0.63713510  1  0  0.103545  0  0.940149  0  0  0.111072  0  1.006351  0  0  0.112507  0  1.006776  0  0  0.114833  0.109964  0  1.006493  0
H  H33  1  0.26982638  0.30022001  0.36286266  1  0  0.103564  0  0.940115  0  0  0.111087  0  1.006318  0  0  0.112516  0  1.006756  0  0  0.114822  0.109984  0  1.006451  0
H  H34  1  0.58408598  0.39976329  0.56330554  1  0  0.128499  0  0.941515  0  0  0.136368  0  1.004222  0  0  0.14069  0  1.001065  0  0  0.108924  0.133164  0  1.006785  0
H  H35  1  0.41593508  0.60022779  0.43669663  1  0  0.128492  0  0.941458  0  0  0.136321  0  1.004206  0  0  0.140647  0  1.001051  0  0  0.108886  0.133119  0  1.006773  0
H  H36  1  0.43520314  0.29122882  0.70569866  1  0  0.10988  0  0.948416  0  0  0.121038  0  1.007507  0  0  0.124271  0  1.005802  0  0  0.102964  0.118614  0  1.009015  0
H  H37  1  0.56482210  0.70876135  0.29430826  1  0  0.109826  0  0.948464  0  0  0.121026  0  1.007527  0  0  0.124259  0  1.005822  0  0  0.10296  0.118599  0  1.009036  0
H  H38  1  0.37874721  0.55235611  0.88477972  1  0  0.106673  0  0.93274  0  0  0.119354  0  0.986847  0  0  0.122618  0  0.984845  0  0  0.104533  0.117  0  0.988343  0
H  H39  1  0.62125516  0.44764428  0.11521873  1  0  0.106647  0  0.932836  0  0  0.119347  0  0.986919  0  0  0.122611  0  0.984917  0  0  0.104523  0.116994  0  0.988413  0
H  H40  1  0.52733222  0.66004866  0.74470677  1  0  0.097227  0  0.990702  0  0  0.103941  0  1.061405  0  0  0.107012  0  1.060078  0  0  0.094701  0.101653  0  1.062673  0
H  H41  1  0.47267201  0.33995010  0.25528739  1  0  0.097246  0  0.990668  0  0  0.103955  0  1.061356  0  0  0.107026  0  1.060032  0  0  0.094713  0.101668  0  1.062623  0
C  C42  1  0.96443539  0.87358247  0.65793718  1  0  0.692467  0  3.855832  0  0  0.644669  0  4.16559  0  0  0.677526  0  4.156064  0  0  0.20555  0.623026  0  4.163166  0
C  C43  1  0.03555591  0.12642385  0.34205868  1  0  0.692555  0  3.855865  0  0  0.64497  0  4.165295  0  0  0.677835  0  4.155763  0  0  0.205657  0.623325  0  4.162892  0
C  C44  1  0.09190832  0.81864285  0.73115122  1  0  -0.076694  0  3.62485  0  0  -0.129077  0  3.88136  0  0  -0.126336  0  3.881647  0  0  -0.062552  -0.131456  0  3.882032  0
C  C45  1  0.90808558  0.18136343  0.26884509  1  0  -0.076648  0  3.624818  0  0  -0.129201  0  3.881449  0  0  -0.126449  0  3.881711  0  0  -0.062605  -0.131589  0  3.882133  0
C  C46  1  0.01603159  0.64308103  0.76310249  1  0  0.26198  0  3.799089  0  0  0.252947  0  4.061554  0  0  0.263719  0  4.078139  0  0  0.076857  0.245398  0  4.050678  0
C  C47  1  0.98396244  0.35692106  0.23689947  1  0  0.262012  0  3.799067  0  0  0.252924  0  4.061604  0  0  0.263697  0  4.078183  0  0  0.076806  0.245376  0  4.05073  0
C  C48  1  0.92442060  0.56997762  0.82696792  1  0  -0.166301  0  3.749575  0  0  -0.189304  0  4.008002  0  0  -0.194454  0  4.026958  0  0  -0.104984  -0.185882  0  3.995255  0
C  C49  1  0.07556596  0.43003123  0.17302663  1  0  -0.166249  0  3.749341  0  0  -0.189186  0  4.007741  0  0  -0.19434  0  4.026701  0  0  -0.104831  -0.185761  0  3.994992  0
C  C50  1  0.91148167  0.47275611  0.79557442  1  0  -0.113618  0  3.800417  0  0  -0.136213  0  4.055595  0  0  -0.136363  0  4.076083  0  0  -0.097492  -0.135865  0  4.041561  0
C  C51  1  0.08849914  0.52725438  0.20442699  1  0  -0.1136  0  3.800515  0  0  -0.136223  0  4.055734  0  0  -0.136376  0  4.076218  0  0  -0.09755  -0.135878  0  4.041712  0
C  C52  1  0.99050623  0.45003856  0.70019986  1  0  0.108997  0  3.805839  0  0  0.115931  0  4.077324  0  0  0.116905  0  4.099418  0  0  -0.003392  0.115003  0  4.062458  0
C  C53  1  0.00949068  0.54996268  0.29980193  1  0  0.109017  0  3.805947  0  0  0.115855  0  4.077574  0  0  0.116839  0  4.099654  0  0  -0.003403  0.114919  0  4.062719  0
C  C54  1  0.07933909  0.52289385  0.63549106  1  0  -0.10171  0  3.764132  0  0  -0.123433  0  4.018397  0  0  -0.123318  0  4.03736  0  0  -0.096416  -0.1233  0  4.005582  0
C  C55  1  0.92066674  0.47710398  0.36451172  1  0  -0.101599  0  3.764154  0  0  -0.123304  0  4.018494  0  0  -0.123188  0  4.037449  0  0  -0.096426  -0.123166  0  4.005674  0
C  C56  1  0.09185740  0.62041162  0.66679544  1  0  -0.191038  0  3.750537  0  0  -0.208691  0  3.999765  0  0  -0.215273  0  4.021567  0  0  -0.107593  -0.204462  0  3.985629  0
C  C57  1  0.90815389  0.37958536  0.33320473  1  0  -0.191201  0  3.750824  0  0  -0.208824  0  4.000009  0  0  -0.215423  0  4.021831  0  0  -0.10757  -0.204595  0  3.985869  0
C  C58  1  0.69187528  0.92343093  0.32206946  1  0  0.732685  0  3.818683  0  0  0.689535  0  4.118845  0  0  0.723511  0  4.107445  0  0  0.233142  0.66604  0  4.122062  0
C  C59  1  0.30812624  0.07657194  0.67793089  1  0  0.732786  0  3.818617  0  0  0.689634  0  4.118782  0  0  0.723618  0  4.107383  0  0  0.233186  0.666153  0  4.121986  0
C  C60  1  0.78168539  0.90709638  0.21664171  1  0  -0.075148  0  3.635286  0  0  -0.137342  0  3.896182  0  0  -0.133862  0  3.896788  0  0  -0.066888  -0.140469  0  3.897634  0
C  C61  1  0.21831338  0.09290318  0.78336012  1  0  -0.075245  0  3.635368  0  0  -0.13744  0  3.896281  0  0  -0.13399  0  3.89692  0  0  -0.066909  -0.140548  0  3.897724  0
C  C62  1  0.07531411  0.90071104  0.12397244  1  0  0.261686  0  3.811839  0  0  0.249283  0  4.073263  0  0  0.25977  0  4.090617  0  0  0.076142  0.242023  0  4.061686  0
C  C63  1  0.92468539  0.09929013  0.87603414  1  0  0.26166  0  3.811967  0  0  0.249267  0  4.073362  0  0  0.25976  0  4.090699  0  0  0.076173  0.24202  0  4.061792  0
C  C64  1  0.04778715  0.84368177  0.05188511  1  0  -0.178147  0  3.756339  0  0  -0.197952  0  4.009111  0  0  -0.203466  0  4.030089  0  0  -0.108795  -0.1942  0  3.994878  0
C  C65  1  0.95220053  0.15631620  0.94811956  1  0  -0.178299  0  3.756604  0  0  -0.198075  0  4.009382  0  0  -0.203593  0  4.030359  0  0  -0.108863  -0.19432  0  3.99514  0
C  C66  1  0.18524898  0.81328265  0.97487513  1  0  -0.11384  0  3.767008  0  0  -0.134876  0  4.016813  0  0  -0.13537  0  4.035996  0  0  -0.102403  -0.134363  0  4.003794  0
C  C67  1  0.81474733  0.18671275  0.02513046  1  0  -0.113681  0  3.767176  0  0  -0.134809  0  4.016944  0  0  -0.135297  0  4.036122  0  0  -0.102373  -0.134291  0  4.003914  0
C  C68  1  0.34737120  0.84112816  0.97014717  1  0  0.097305  0  3.847241  0  0  0.106111  0  4.118824  0  0  0.106963  0  4.142045  0  0  -0.007165  0.105302  0  4.103154  0
C  C69  1  0.65262063  0.15886148  0.02985755  1  0  0.097126  0  3.847444  0  0  0.105953  0  4.119041  0  0  0.106803  0  4.142264  0  0  -0.007282  0.105142  0  4.103362  0
C  C70  1  0.37579511  0.89645337  0.04335109  1  0  -0.125024  0  3.823641  0  0  -0.148729  0  4.079124  0  0  -0.149471  0  4.099622  0  0  -0.103944  -0.148051  0  4.065259  0
C  C71  1  0.62420709  0.10353618  0.95665328  1  0  -0.124792  0  3.823479  0  0  -0.148522  0  4.07896  0  0  -0.149266  0  4.099461  0  0  -0.103971  -0.14784  0  4.065084  0
C  C72  1  0.23989910  0.92678561  0.12000761  1  0  -0.160681  0  3.722847  0  0  -0.180942  0  3.976201  0  0  -0.185158  0  3.994127  0  0  -0.102389  -0.178202  0  3.964456  0
C  C73  1  0.76010268  0.07320894  0.87999464  1  0  -0.160603  0  3.722705  0  0  -0.180874  0  3.976096  0  0  -0.185091  0  3.994023  0  0  -0.1023  -0.178134  0  3.964355  0
C  C74  1  0.53004032  0.78912208  0.54692661  1  0  0.700684  0  3.838948  0  0  0.653395  0  4.147523  0  0  0.686857  0  4.136514  0  0  0.20978  0.631191  0  4.146454  0
C  C75  1  0.46996766  0.21088082  0.45306512  1  0  0.700988  0  3.838682  0  0  0.65352  0  4.147508  0  0  0.686979  0  4.136506  0  0  0.209856  0.631326  0  4.146428  0
C  C76  1  0.68724188  0.69427558  0.56734121  1  0  -0.072572  0  3.626266  0  0  -0.123649  0  3.876233  0  0  -0.121561  0  3.878482  0  0  -0.059213  -0.125612  0  3.875606  0
C  C77  1  0.31275948  0.30572401  0.43265530  1  0  -0.072793  0  3.626337  0  0  -0.123842  0  3.87638  0  0  -0.121761  0  3.878643  0  0  -0.059315  -0.125801  0  3.875753  0
C  C78  1  0.56825207  0.53626961  0.64439402  1  0  0.265008  0  3.790796  0  0  0.255065  0  4.053974  0  0  0.265813  0  4.070226  0  0  0.080079  0.247571  0  4.043141  0
C  C79  1  0.43175360  0.46372496  0.35560348  1  0  0.264867  0  3.790865  0  0  0.255022  0  4.053924  0  0  0.265765  0  4.070182  0  0  0.080071  0.247532  0  4.043088  0
C  C80  1  0.54090506  0.43247860  0.63412335  1  0  -0.163202  0  3.734557  0  0  -0.189504  0  3.999842  0  0  -0.193043  0  4.016353  0  0  -0.102443  -0.187158  0  3.98895  0
C  C81  1  0.45910162  0.56751674  0.36587899  1  0  -0.163056  0  3.734249  0  0  -0.18936  0  3.999532  0  0  -0.192895  0  4.016031  0  0  -0.102353  -0.187022  0  3.988646  0
C  C82  1  0.45701491  0.37168270  0.71401621  1  0  -0.123562  0  3.776041  0  0  -0.145029  0  4.02887  0  0  -0.145807  0  4.04836  0  0  -0.100831  -0.144369  0  4.015834  0
C  C83  1  0.54300687  0.62831004  0.28598492  1  0  -0.123421  0  3.775873  0  0  -0.144928  0  4.028725  0  0  -0.145706  0  4.048213  0  0  -0.100819  -0.144256  0  4.015676  0
C  C84  1  0.39996676  0.41493604  0.80433020  1  0  0.118047  0  3.813938  0  0  0.130265  0  4.077771  0  0  0.131462  0  4.101451  0  0  0.000808  0.129217  0  4.061778  0
C  C85  1  0.60004583  0.58506091  0.19567200  1  0  0.117966  0  3.813753  0  0  0.130134  0  4.077682  0  0  0.131334  0  4.101356  0  0  0.000816  0.129084  0  4.061691  0
C  C86  1  0.42456647  0.51861385  0.81454885  1  0  -0.106184  0  3.780971  0  0  -0.12863  0  4.030345  0  0  -0.129289  0  4.050511  0  0  -0.097034  -0.127991  0  4.016576  0
C  C87  1  0.57544165  0.48138484  0.18544925  1  0  -0.1061  0  3.780827  0  0  -0.128543  0  4.030206  0  0  -0.129201  0  4.050365  0  0  -0.096999  -0.12791  0  4.016449  0
C  C88  1  0.50828784  0.57980960  0.73434931  1  0  -0.186965  0  3.772692  0  0  -0.206105  0  4.028838  0  0  -0.212233  0  4.050846  0  0  -0.111085  -0.202048  0  4.014254  0
C  C89  1  0.49171222  0.42018998  0.26564950  1  0  -0.186975  0  3.772655  0  0  -0.206134  0  4.028792  0  0  -0.212258  0  4.050795  0  0  -0.111107  -0.202082  0  4.01421  0
Cl  Cl90  1  0.29499181  0.33992685  0.90480752  1  0  -0.113672  0  1.373075  0  0  -0.092679  0  1.603239  0  0  -0.097422  0  1.599205  0  0  0.001345  -0.089171  0  1.606073  0
Cl  Cl91  1  0.70501733  0.66007264  0.09519252  1  0  -0.113719  0  1.373039  0  0  -0.092714  0  1.603239  0  0  -0.097461  0  1.599203  0  0  0.001305  -0.089203  0  1.606076  0
Cl  Cl92  1  0.51631609  0.81142373  0.87150138  1  0  -0.083744  0  1.350391  0  0  -0.062353  0  1.578728  0  0  -0.064743  0  1.573123  0  0  0.008651  -0.060702  0  1.582743  0
Cl  Cl93  1  0.48367703  0.18856591  0.12850176  1  0  -0.083706  0  1.35061  0  0  -0.062329  0  1.57894  0  0  -0.064726  0  1.573349  0  0  0.008709  -0.060682  0  1.582951  0
Cl  Cl94  1  0.98118025  0.32728335  0.66034332  1  0  -0.10595  0  1.425334  0  0  -0.077887  0  1.675678  0  0  -0.081936  0  1.669933  0  0  0.019033  -0.075418  0  1.679927  0
Cl  Cl95  1  0.01881694  0.67271700  0.33966362  1  0  -0.105949  0  1.425315  0  0  -0.077863  0  1.675703  0  0  -0.08191  0  1.669944  0  0  0.019054  -0.075395  0  1.679959  0
O  O96  1  0.79965460  0.88363512  0.68304172  1  0  -0.652219  0  1.959286  0  0  -0.618134  0  2.202127  0  0  -0.640858  0  2.193586  0  0  -0.357049  -0.595647  0  2.20777  0
O  O97  1  0.20034391  0.11637276  0.31695749  1  0  -0.652256  0  1.959097  0  0  -0.618205  0  2.201814  0  0  -0.640932  0  2.193269  0  0  -0.357043  -0.595722  0  2.207463  0
O  O98  1  0.16138218  0.87473376  0.36603947  1  0  -0.905606  0  1.900867  0  0  -0.869256  0  2.10572  0  0  -0.884872  0  2.074214  0  0  -0.634659  -0.84925  0  2.131765  0
O  O99  1  0.83861775  0.12526998  0.63395731  1  0  -0.905742  0  1.900774  0  0  -0.869393  0  2.105564  0  0  -0.885006  0  2.074059  0  0  -0.6347  -0.849383  0  2.131612  0
O  O100  1  0.78488972  0.93927290  0.38246540  1  0  -0.737415  0  2.046771  0  0  -0.692144  0  2.294537  0  0  -0.716798  0  2.283091  0  0  -0.373907  -0.665898  0  2.302459  0
O  O101  1  0.21510905  0.06072668  0.61753426  1  0  -0.737424  0  2.046503  0  0  -0.692177  0  2.294329  0  0  -0.71683  0  2.282886  0  0  -0.373883  -0.665934  0  2.302239  0
O  O102  1  0.02749176  0.91476308  0.57077872  1  0  -0.818431  0  2.115621  0  0  -0.772646  0  2.378477  0  0  -0.797738  0  2.366809  0  0  -0.439908  -0.739794  0  2.385211  0
O  O103  1  0.97250486  0.08523905  0.42921575  1  0  -0.818486  0  2.11575  0  0  -0.772815  0  2.378599  0  0  -0.797871  0  2.366846  0  0  -0.439984  -0.739961  0  2.385341  0
O  O104  1  0.02760620  0.73533063  0.80116874  1  0  -0.256391  0  2.329172  0  0  -0.19167  0  2.559631  0  0  -0.20811  0  2.561295  0  0  -0.181181  -0.180122  0  2.558545  0
O  O105  1  0.97238770  0.26467566  0.19882758  1  0  -0.256439  0  2.329109  0  0  -0.191682  0  2.559644  0  0  -0.208115  0  2.561292  0  0  -0.181208  -0.180131  0  2.55856  0
O  O106  1  0.53042844  0.91839261  0.34076556  1  0  -0.706244  0  1.995867  0  0  -0.666729  0  2.240906  0  0  -0.69166  0  2.230719  0  0  -0.38363  -0.640375  0  2.249545  0
O  O107  1  0.46956415  0.08161366  0.65923306  1  0  -0.706284  0  1.995994  0  0  -0.666773  0  2.241049  0  0  -0.691705  0  2.230857  0  0  -0.383671  -0.640421  0  2.249692  0
O  O108  1  0.95013431  0.93453956  0.20248508  1  0  -0.282174  0  2.43523  0  0  -0.202083  0  2.663925  0  0  -0.220866  0  2.668934  0  0  -0.179872  -0.189332  0  2.66101  0
O  O109  1  0.04986648  0.06546163  0.79751702  1  0  -0.282066  0  2.435129  0  0  -0.201969  0  2.663816  0  0  -0.220733  0  2.668823  0  0  -0.179813  -0.18926  0  2.660922  0
O  O110  1  0.39573803  0.77327268  0.51904351  1  0  -0.648087  0  1.952984  0  0  -0.608117  0  2.18927  0  0  -0.630877  0  2.179873  0  0  -0.348658  -0.585876  0  2.19571  0
O  O111  1  0.60426907  0.22672529  0.48094397  1  0  -0.648124  0  1.953041  0  0  -0.608099  0  2.189459  0  0  -0.630845  0  2.180036  0  0  -0.348657  -0.585857  0  2.195893  0
O  O112  1  0.54134738  0.88830379  0.55486254  1  0  -0.846512  0  2.164595  0  0  -0.803713  0  2.426703  0  0  -0.828807  0  2.415366  0  0  -0.449201  -0.770217  0  2.433757  0
O  O113  1  0.45865685  0.11169498  0.44513017  1  0  -0.84662  0  2.164395  0  0  -0.803785  0  2.426646  0  0  -0.828877  0  2.415305  0  0  -0.44923  -0.770293  0  2.433697  0
O  O114  1  0.65854695  0.58780456  0.56258972  1  0  -0.258232  0  2.361349  0  0  -0.190509  0  2.594189  0  0  -0.20834  0  2.598694  0  0  -0.175209  -0.178049  0  2.591211  0
O  O115  1  0.34145628  0.41219332  0.43740972  1  0  -0.258146  0  2.361387  0  0  -0.190437  0  2.594172  0  0  -0.208267  0  2.598676  0  0  -0.175167  -0.177976  0  2.591192  0
