# generated using pymatgen
data_ZnH4C4(BrN)2
_symmetry_space_group_name_H-M   'P 1'
_cell_length_a   3.73784390
_cell_length_b   7.20588456
_cell_length_c   12.28097622
_cell_angle_alpha   90.00001723
_cell_angle_beta   89.99939727
_cell_angle_gamma   89.99972565
_symmetry_Int_Tables_number   1
_chemical_formula_structural   ZnH4C4(BrN)2
_chemical_formula_sum   'Zn2 H8 C8 Br4 N4'
_cell_volume   330.78160537
_cell_formula_units_Z   2
loop_
 _symmetry_equiv_pos_site_id
 _symmetry_equiv_pos_as_xyz
  1  'x, y, z'
loop_
 _atom_site_type_symbol
 _atom_site_label
 _atom_site_symmetry_multiplicity
 _atom_site_fract_x
 _atom_site_fract_y
 _atom_site_fract_z
 _atom_site_occupancy
 _atom_site_hle17_bader_spin_density
 _atom_site_hle17_ddec_charge
 _atom_site_hle17_ddec_spin_density
 _atom_site_hle17_ddec_sum_bond_order
 _atom_site_hle17_magmom
 _atom_site_hse06_10hf_bader_spin_density
 _atom_site_hse06_10hf_ddec_charge
 _atom_site_hse06_10hf_ddec_spin_density
 _atom_site_hse06_10hf_ddec_sum_bond_order
 _atom_site_hse06_10hf_magmom
 _atom_site_hse06_bader_spin_density
 _atom_site_hse06_ddec_charge
 _atom_site_hse06_ddec_spin_density
 _atom_site_hse06_ddec_sum_bond_order
 _atom_site_hse06_magmom
 _atom_site_pbe_bader_spin_density
 _atom_site_pbe_cm5_charge
 _atom_site_pbe_ddec_charge
 _atom_site_pbe_ddec_spin_density
 _atom_site_pbe_ddec_sum_bond_order
 _atom_site_pbe_magmom
Zn  Zn0  1  0.99999087  0.99999825  0.50000112  1  0  0.766371  0  2.04556  0  0  0.612603  0  2.450557  0  0  0.659267  0  2.412665  0  0  0.469398  0.579214  0  2.477802  0
Zn  Zn1  1  0.00000733  0.99999814  0.99999880  1  0  0.766433  0  2.045523  0  0  0.612671  0  2.450513  0  0  0.659333  0  2.412619  0  0  0.469436  0.579274  0  2.477788  0
H  H2  1  0.00000062  0.08323340  0.24999805  1  0  0.067448  0  0.969106  0  0  0.070547  0  1.04626  0  0  0.073642  0  1.040832  0  0  0.10849  0.068017  0  1.050542  0
H  H3  1  0.00000403  0.91676752  0.75000482  1  0  0.067483  0  0.96909  0  0  0.070578  0  1.046243  0  0  0.073673  0  1.040815  0  0  0.108504  0.068048  0  1.050526  0
H  H4  1  0.00000124  0.59141248  0.07418961  1  0  0.081214  0  0.964154  0  0  0.086626  0  1.037192  0  0  0.08977  0  1.032175  0  0  0.102176  0.084051  0  1.041179  0
H  H5  1  0.00000050  0.59141671  0.42580824  1  0  0.081248  0  0.964251  0  0  0.086681  0  1.03724  0  0  0.089819  0  1.032224  0  0  0.102208  0.084106  0  1.041226  0
H  H6  1  0.00000074  0.40858844  0.92580837  1  0  0.081192  0  0.96431  0  0  0.08665  0  1.037242  0  0  0.089776  0  1.032245  0  0  0.102168  0.084077  0  1.041229  0
H  H7  1  0.00000148  0.40858421  0.57418974  1  0  0.081124  0  0.964291  0  0  0.086607  0  1.037203  0  0  0.089709  0  1.032235  0  0  0.102165  0.084034  0  1.041189  0
H  H8  1  0.00000175  0.40786530  0.25000053  1  0  0.125892  0  0.963584  0  0  0.131333  0  1.029738  0  0  0.135424  0  1.027654  0  0  0.097537  0.128149  0  1.031929  0
H  H9  1  0.00000291  0.59213284  0.74999989  1  0  0.125866  0  0.963594  0  0  0.131332  0  1.029727  0  0  0.135424  0  1.027641  0  0  0.097539  0.128145  0  1.031916  0
C  C10  1  0.00000088  0.93221472  0.24999981  1  0  0.313237  0  3.661643  0  0  0.257033  0  3.921561  0  0  0.273912  0  3.93344  0  0  0.175472  0.245992  0  3.913401  0
C  C11  1  0.00000541  0.06778639  0.75000309  1  0  0.313233  0  3.661773  0  0  0.257032  0  3.921684  0  0  0.273912  0  3.933565  0  0  0.175474  0.24599  0  3.913531  0
C  C12  1  0.00000222  0.65882684  0.15345123  1  0  0.19439  0  3.640138  0  0  0.155532  0  3.889432  0  0  0.168115  0  3.903719  0  0  0.06293  0.147506  0  3.879713  0
C  C13  1  0.99999783  0.65882845  0.34655074  1  0  0.194416  0  3.639972  0  0  0.155537  0  3.889293  0  0  0.16813  0  3.903575  0  0  0.062903  0.147514  0  3.879569  0
C  C14  1  0.00000511  0.34118240  0.84655571  1  0  0.19441  0  3.639633  0  0  0.155531  0  3.888974  0  0  0.168128  0  3.903272  0  0  0.062947  0.147505  0  3.879259  0
C  C15  1  0.99999939  0.34116313  0.65345301  1  0  0.194294  0  3.640269  0  0  0.155436  0  3.889519  0  0  0.168054  0  3.903838  0  0  0.062897  0.14741  0  3.879794  0
C  C16  1  0.00000103  0.55862958  0.24999648  1  0  -0.15081  0  3.674316  0  0  -0.15993  0  3.92497  0  0  -0.171675  0  3.945177  0  0  -0.081382  -0.152723  0  3.911891  0
C  C17  1  0.00000095  0.44137272  0.75000150  1  0  -0.150582  0  3.674112  0  0  -0.159769  0  3.924804  0  0  -0.171514  0  3.945002  0  0  -0.081355  -0.152553  0  3.911714  0
Br  Br18  1  0.49997770  0.22305883  0.42381977  1  0  -0.490034  0  1.151772  0  0  -0.43883  0  1.478201  0  0  -0.459677  0  1.457958  0  0  -0.229692  -0.423011  0  1.49321  0
Br  Br19  1  0.49999977  0.22306155  0.07617558  1  0  -0.490076  0  1.151805  0  0  -0.438849  0  1.478187  0  0  -0.459704  0  1.457967  0  0  -0.229703  -0.423028  0  1.493222  0
Br  Br20  1  0.49998044  0.77693812  0.57617987  1  0  -0.490037  0  1.151796  0  0  -0.438817  0  1.478207  0  0  -0.459669  0  1.457975  0  0  -0.22968  -0.423005  0  1.493229  0
Br  Br21  1  0.50002792  0.77693817  0.92381755  1  0  -0.490082  0  1.151833  0  0  -0.438865  0  1.478247  0  0  -0.459715  0  1.458018  0  0  -0.229686  -0.423038  0  1.493268  0
N  N22  1  0.99999695  0.84564938  0.34637488  1  0  -0.346669  0  3.268949  0  0  -0.259174  0  3.518235  0  0  -0.28354  0  3.537106  0  0  -0.320173  -0.242927  0  3.505139  0
N  N23  1  0.00000400  0.84564222  0.15362062  1  0  -0.346646  0  3.268897  0  0  -0.259151  0  3.518165  0  0  -0.283517  0  3.537039  0  0  -0.320195  -0.242897  0  3.505068  0
N  N24  1  0.99999493  0.15435609  0.65362480  1  0  -0.346564  0  3.269146  0  0  -0.259086  0  3.518415  0  0  -0.283453  0  3.53728  0  0  -0.32017  -0.242835  0  3.505315  0
N  N25  1  0.00000868  0.15435177  0.84637817  1  0  -0.346753  0  3.268591  0  0  -0.25926  0  3.517884  0  0  -0.283625  0  3.536755  0  0  -0.320208  -0.243014  0  3.504802  0
