# generated using pymatgen
data_CdH4(CN2)4
_symmetry_space_group_name_H-M   'P 1'
_cell_length_a   8.67950381
_cell_length_b   8.80005718
_cell_length_c   10.13621930
_cell_angle_alpha   90.00000022
_cell_angle_beta   91.37484080
_cell_angle_gamma   90.00003286
_symmetry_Int_Tables_number   1
_chemical_formula_structural   CdH4(CN2)4
_chemical_formula_sum   'Cd4 H16 C16 N32'
_cell_volume   773.98286915
_cell_formula_units_Z   4
loop_
 _symmetry_equiv_pos_site_id
 _symmetry_equiv_pos_as_xyz
  1  'x, y, z'
loop_
 _atom_site_type_symbol
 _atom_site_label
 _atom_site_symmetry_multiplicity
 _atom_site_fract_x
 _atom_site_fract_y
 _atom_site_fract_z
 _atom_site_occupancy
 _atom_site_hle17_bader_spin_density
 _atom_site_hle17_ddec_charge
 _atom_site_hle17_ddec_spin_density
 _atom_site_hle17_ddec_sum_bond_order
 _atom_site_hle17_magmom
 _atom_site_hse06_10hf_bader_spin_density
 _atom_site_hse06_10hf_ddec_charge
 _atom_site_hse06_10hf_ddec_spin_density
 _atom_site_hse06_10hf_ddec_sum_bond_order
 _atom_site_hse06_10hf_magmom
 _atom_site_hse06_bader_spin_density
 _atom_site_hse06_ddec_charge
 _atom_site_hse06_ddec_spin_density
 _atom_site_hse06_ddec_sum_bond_order
 _atom_site_hse06_magmom
 _atom_site_pbe_bader_spin_density
 _atom_site_pbe_cm5_charge
 _atom_site_pbe_ddec_charge
 _atom_site_pbe_ddec_spin_density
 _atom_site_pbe_ddec_sum_bond_order
 _atom_site_pbe_magmom
Cd  Cd0  1  0.00607694  0.68451601  0.63007928  1  0  0.969186  0  1.849783  0  0  0.73806  0  2.31805  0  0  0.78861  0  2.279127  0  0  0.785264  0.700728  0  2.345225  0
Cd  Cd1  1  0.49392287  0.18451599  0.86992106  1  0  0.969197  0  1.849768  0  0  0.738069  0  2.318045  0  0  0.788617  0  2.279124  0  0  0.785271  0.700737  0  2.345219  0
Cd  Cd2  1  0.99392319  0.31548346  0.36992097  1  0  0.969186  0  1.849768  0  0  0.738048  0  2.318043  0  0  0.788598  0  2.279122  0  0  0.785269  0.700716  0  2.345216  0
Cd  Cd3  1  0.50607610  0.81548348  0.13007917  1  0  0.969214  0  1.849741  0  0  0.738078  0  2.318021  0  0  0.788627  0  2.279101  0  0  0.785275  0.700744  0  2.345193  0
H  H4  1  0.33992047  0.17043763  0.41133882  1  0  0.324373  0  0.897291  0  0  0.308564  0  0.963293  0  0  0.314451  0  0.958764  0  0  0.302853  0.304436  0  0.966423  0
H  H5  1  0.16007969  0.67043773  0.08866081  1  0  0.324372  0  0.89729  0  0  0.308561  0  0.963294  0  0  0.314448  0  0.958765  0  0  0.302851  0.304433  0  0.966424  0
H  H6  1  0.66008080  0.82956184  0.58866145  1  0  0.324356  0  0.897304  0  0  0.308545  0  0.96331  0  0  0.314431  0  0.958782  0  0  0.302846  0.304417  0  0.96644  0
H  H7  1  0.83991928  0.32956173  0.91133843  1  0  0.324364  0  0.897287  0  0  0.308551  0  0.963295  0  0  0.314438  0  0.958766  0  0  0.302846  0.304423  0  0.966425  0
H  H8  1  0.48268006  0.16132636  0.52881385  1  0  0.312907  0  0.912168  0  0  0.302445  0  0.970604  0  0  0.308073  0  0.966569  0  0  0.298988  0.298464  0  0.973419  0
H  H9  1  0.01731858  0.66132525  0.97118745  1  0  0.312913  0  0.912159  0  0  0.302451  0  0.970596  0  0  0.30808  0  0.96656  0  0  0.298989  0.298471  0  0.973411  0
H  H10  1  0.51731892  0.83867424  0.47118737  1  0  0.312907  0  0.912173  0  0  0.302442  0  0.970611  0  0  0.30807  0  0.966577  0  0  0.298983  0.298461  0  0.973427  0
H  H11  1  0.98268154  0.33867421  0.02881280  1  0  0.312935  0  0.912098  0  0  0.302423  0  0.970593  0  0  0.308051  0  0.966558  0  0  0.298999  0.298442  0  0.973408  0
H  H12  1  0.22521612  0.47021746  0.84175258  1  0  0.078111  0  0.979845  0  0  0.083548  0  1.054518  0  0  0.085405  0  1.052093  0  0  0.118347  0.082073  0  1.056374  0
H  H13  1  0.27478270  0.97021764  0.65824774  1  0  0.078103  0  0.979846  0  0  0.083537  0  1.054529  0  0  0.085394  0  1.052103  0  0  0.118326  0.082062  0  1.056384  0
H  H14  1  0.77478401  0.52978314  0.15825063  1  0  0.078124  0  0.979857  0  0  0.083549  0  1.054546  0  0  0.085406  0  1.052119  0  0  0.118333  0.082072  0  1.056399  0
H  H15  1  0.72521742  0.02978297  0.34174955  1  0  0.078119  0  0.979826  0  0  0.083543  0  1.054513  0  0  0.085401  0  1.052087  0  0  0.118326  0.082066  0  1.056366  0
H  H16  1  0.82632461  0.89671032  0.89369161  1  0  0.097063  0  0.946335  0  0  0.10024  0  1.01791  0  0  0.103229  0  1.014336  0  0  0.129231  0.098046  0  1.020589  0
H  H17  1  0.67367552  0.39671125  0.60630827  1  0  0.097112  0  0.946276  0  0  0.100248  0  1.017894  0  0  0.103236  0  1.014322  0  0  0.129232  0.098055  0  1.020575  0
H  H18  1  0.17367551  0.10328915  0.10630864  1  0  0.097057  0  0.946346  0  0  0.10023  0  1.017926  0  0  0.103218  0  1.014353  0  0  0.129221  0.098037  0  1.020606  0
H  H19  1  0.32632461  0.60328935  0.39369198  1  0  0.09709  0  0.94631  0  0  0.100264  0  1.017882  0  0  0.103253  0  1.014309  0  0  0.129235  0.098069  0  1.020562  0
C  C20  1  0.29548794  0.28063576  0.58270472  1  0  0.561232  0  3.83627  0  0  0.516833  0  4.115251  0  0  0.539267  0  4.126232  0  0  0.305001  0.501488  0  4.107588  0
C  C21  1  0.20451192  0.78063590  0.91729561  1  0  0.561163  0  3.836344  0  0  0.516829  0  4.115234  0  0  0.539264  0  4.126215  0  0  0.304989  0.501483  0  4.107571  0
C  C22  1  0.70451334  0.71936484  0.41729752  1  0  0.561178  0  3.836302  0  0  0.51686  0  4.115168  0  0  0.539294  0  4.126149  0  0  0.304982  0.501514  0  4.107504  0
C  C23  1  0.79548705  0.21936471  0.08270264  1  0  0.561128  0  3.836319  0  0  0.516802  0  4.115195  0  0  0.539236  0  4.126177  0  0  0.304959  0.501455  0  4.107531  0
C  C24  1  0.22969572  0.41722008  0.74509045  1  0  0.211398  0  3.770721  0  0  0.152943  0  4.045113  0  0  0.168922  0  4.057275  0  0  0.118246  0.142312  0  4.036802  0
C  C25  1  0.27030423  0.91721912  0.75490989  1  0  0.21142  0  3.770633  0  0  0.152959  0  4.045027  0  0  0.16894  0  4.057187  0  0  0.118258  0.142331  0  4.036714  0
C  C26  1  0.77030672  0.58277825  0.25491181  1  0  0.211367  0  3.770845  0  0  0.152908  0  4.045243  0  0  0.168891  0  4.057402  0  0  0.118248  0.142281  0  4.036924  0
C  C27  1  0.72969474  0.08277921  0.24508837  1  0  0.21141  0  3.77072  0  0  0.152956  0  4.045108  0  0  0.168938  0  4.057269  0  0  0.118272  0.142329  0  4.036789  0
C  C28  1  0.63708485  0.58932363  0.90408431  1  0  0.38399  0  3.869321  0  0  0.34822  0  4.156366  0  0  0.355427  0  4.17632  0  0  0.293315  0.343347  0  4.142722  0
C  C29  1  0.86291394  0.08932353  0.59591554  1  0  0.384009  0  3.869288  0  0  0.348241  0  4.15633  0  0  0.355445  0  4.176286  0  0  0.293319  0.343369  0  4.142686  0
C  C30  1  0.36291412  0.41067584  0.09591493  1  0  0.384041  0  3.869249  0  0  0.348288  0  4.156267  0  0  0.35549  0  4.176231  0  0  0.293381  0.343415  0  4.142622  0
C  C31  1  0.13708503  0.91067708  0.40408469  1  0  0.383922  0  3.869489  0  0  0.348219  0  4.156445  0  0  0.355427  0  4.176398  0  0  0.293354  0.343346  0  4.142798  0
C  C32  1  0.77603792  0.78433944  0.88374159  1  0  0.214195  0  3.717376  0  0  0.154913  0  3.999448  0  0  0.16748  0  4.012424  0  0  0.138359  0.146588  0  3.990579  0
C  C33  1  0.72396214  0.28434040  0.61625828  1  0  0.21416  0  3.717419  0  0  0.154917  0  3.999477  0  0  0.167484  0  4.012455  0  0  0.138368  0.146592  0  3.99061  0
C  C34  1  0.22396105  0.21566003  0.11625765  1  0  0.214208  0  3.717413  0  0  0.154929  0  3.999477  0  0  0.167496  0  4.012453  0  0  0.13838  0.146603  0  3.990608  0
C  C35  1  0.27603798  0.71566134  0.38374295  1  0  0.214159  0  3.71742  0  0  0.15489  0  3.999473  0  0  0.167457  0  4.01245  0  0  0.138356  0.146565  0  3.990602  0
N  N36  1  0.13429602  0.45418913  0.64589683  1  0  -0.29234  0  3.18327  0  0  -0.223528  0  3.470077  0  0  -0.240002  0  3.4865  0  0  -0.277727  -0.212352  0  3.458444  0
N  N37  1  0.36570395  0.95418936  0.85410351  1  0  -0.292347  0  3.183258  0  0  -0.223534  0  3.470071  0  0  -0.240007  0  3.486493  0  0  -0.277738  -0.212358  0  3.458438  0
N  N38  1  0.86570527  0.54581034  0.35410640  1  0  -0.292267  0  3.183308  0  0  -0.223444  0  3.470101  0  0  -0.239918  0  3.486524  0  0  -0.277708  -0.212269  0  3.458466  0
N  N39  1  0.63429502  0.04581011  0.14589376  1  0  -0.292338  0  3.183271  0  0  -0.22352  0  3.470075  0  0  -0.239994  0  3.486498  0  0  -0.277736  -0.212344  0  3.458439  0
N  N40  1  0.17673031  0.36635676  0.53888975  1  0  -0.402411  0  3.059167  0  0  -0.338487  0  3.338934  0  0  -0.358464  0  3.35468  0  0  -0.279285  -0.324207  0  3.327681  0
N  N41  1  0.32326960  0.86635696  0.96111058  1  0  -0.402359  0  3.059136  0  0  -0.338454  0  3.338878  0  0  -0.35843  0  3.354623  0  0  -0.279249  -0.324173  0  3.327623  0
N  N42  1  0.82326982  0.63364271  0.46111345  1  0  -0.402449  0  3.059193  0  0  -0.33856  0  3.338941  0  0  -0.358537  0  3.354688  0  0  -0.279303  -0.32428  0  3.327687  0
N  N43  1  0.67672936  0.13364364  0.03888669  1  0  -0.402415  0  3.059176  0  0  -0.338524  0  3.338938  0  0  -0.358501  0  3.354687  0  0  -0.279297  -0.324243  0  3.327683  0
N  N44  1  0.33212536  0.30819923  0.71180678  1  0  -0.531211  0  3.12331  0  0  -0.453525  0  3.403871  0  0  -0.478861  0  3.415277  0  0  -0.373033  -0.435831  0  3.39572  0
N  N45  1  0.16787337  0.80819934  0.78819452  1  0  -0.531265  0  3.123298  0  0  -0.453592  0  3.403833  0  0  -0.478927  0  3.415236  0  0  -0.373063  -0.435902  0  3.395691  0
N  N46  1  0.66787592  0.69179910  0.28819546  1  0  -0.531226  0  3.123337  0  0  -0.453558  0  3.403867  0  0  -0.478894  0  3.41527  0  0  -0.373026  -0.435862  0  3.395711  0
N  N47  1  0.83212560  0.19179899  0.21180473  1  0  -0.531212  0  3.123297  0  0  -0.453541  0  3.403828  0  0  -0.478877  0  3.415232  0  0  -0.373018  -0.435853  0  3.395687  0
N  N48  1  0.36754646  0.17061036  0.50950837  1  0  -0.700524  0  3.057958  0  0  -0.670687  0  3.290576  0  0  -0.688106  0  3.286517  0  0  -0.591256  -0.658144  0  3.292895  0
N  N49  1  0.13245219  0.67061045  0.99049194  1  0  -0.700474  0  3.057968  0  0  -0.670659  0  3.290556  0  0  -0.688084  0  3.286509  0  0  -0.591237  -0.658115  0  3.292876  0
N  N50  1  0.63245367  0.82939025  0.49049188  1  0  -0.700468  0  3.057993  0  0  -0.670653  0  3.29058  0  0  -0.688073  0  3.286525  0  0  -0.591233  -0.65811  0  3.292899  0
N  N51  1  0.86754678  0.32939015  0.00950828  1  0  -0.70047  0  3.057907  0  0  -0.670599  0  3.290551  0  0  -0.688021  0  3.286496  0  0  -0.591229  -0.658056  0  3.29287  0
N  N52  1  0.81344496  0.68559009  0.78650671  1  0  -0.289098  0  3.188142  0  0  -0.215771  0  3.481874  0  0  -0.234372  0  3.499083  0  0  -0.250911  -0.202453  0  3.469758  0
N  N53  1  0.68655389  0.18558990  0.71349315  1  0  -0.289139  0  3.188234  0  0  -0.215813  0  3.48196  0  0  -0.234415  0  3.49917  0  0  -0.250939  -0.202495  0  3.469846  0
N  N54  1  0.18655401  0.31440937  0.21349352  1  0  -0.289044  0  3.188039  0  0  -0.215711  0  3.481764  0  0  -0.234312  0  3.498971  0  0  -0.250877  -0.202391  0  3.469645  0
N  N55  1  0.31344624  0.81441071  0.28650710  1  0  -0.289081  0  3.188181  0  0  -0.215753  0  3.481912  0  0  -0.234355  0  3.499123  0  0  -0.250895  -0.202434  0  3.469793  0
N  N56  1  0.72444045  0.56039770  0.79934676  1  0  -0.289009  0  2.926055  0  0  -0.272785  0  3.203331  0  0  -0.279267  0  3.219542  0  0  -0.218947  -0.268679  0  3.192679  0
N  N57  1  0.77555833  0.06039869  0.70065309  1  0  -0.288981  0  2.926074  0  0  -0.272762  0  3.203355  0  0  -0.279242  0  3.219566  0  0  -0.218933  -0.268656  0  3.192703  0
N  N58  1  0.27555968  0.43960177  0.20065349  1  0  -0.289114  0  2.925965  0  0  -0.272906  0  3.203254  0  0  -0.279386  0  3.219466  0  0  -0.219024  -0.2688  0  3.192599  0
N  N59  1  0.22444179  0.93960305  0.29934716  1  0  -0.288988  0  2.926106  0  0  -0.272795  0  3.203375  0  0  -0.279276  0  3.219585  0  0  -0.218948  -0.268688  0  3.19272  0
N  N60  1  0.66585708  0.72808069  0.95976907  1  0  -0.465056  0  3.152321  0  0  -0.391697  0  3.428078  0  0  -0.41327  0  3.444821  0  0  -0.351901  -0.376243  0  3.416236  0
N  N61  1  0.83414179  0.22808171  0.54023079  1  0  -0.465064  0  3.152353  0  0  -0.391706  0  3.428097  0  0  -0.41328  0  3.444842  0  0  -0.351905  -0.376251  0  3.416257  0
N  N62  1  0.33414189  0.27191878  0.04023116  1  0  -0.465079  0  3.152355  0  0  -0.391731  0  3.428114  0  0  -0.413302  0  3.444859  0  0  -0.351936  -0.376277  0  3.416273  0
N  N63  1  0.16585718  0.77192003  0.45976944  1  0  -0.465066  0  3.152431  0  0  -0.391735  0  3.428167  0  0  -0.413308  0  3.44491  0  0  -0.351959  -0.376281  0  3.416325  0
N  N64  1  0.53729076  0.48056294  0.94904757  1  0  -0.182835  0  3.072293  0  0  -0.139308  0  3.346392  0  0  -0.138544  0  3.351122  0  0  -0.146566  -0.139597  0  3.342922  0
N  N65  1  0.96270826  0.98056322  0.55095229  1  0  -0.182831  0  3.072367  0  0  -0.139309  0  3.346476  0  0  -0.138544  0  3.351207  0  0  -0.14654  -0.139597  0  3.343005  0
N  N66  1  0.46270821  0.51943653  0.05095167  1  0  -0.182772  0  3.072253  0  0  -0.139237  0  3.346333  0  0  -0.138472  0  3.351068  0  0  -0.146519  -0.139524  0  3.342862  0
N  N67  1  0.03729186  0.01943739  0.44904895  1  0  -0.182736  0  3.072415  0  0  -0.139218  0  3.346482  0  0  -0.138455  0  3.351213  0  0  -0.146537  -0.139505  0  3.34301  0
