# generated using pymatgen
data_CoH14C14(N2O)6
_symmetry_space_group_name_H-M   'P 1'
_cell_length_a   6.94046883
_cell_length_b   8.26386661
_cell_length_c   9.35626593
_cell_angle_alpha   68.08626174
_cell_angle_beta   81.73880491
_cell_angle_gamma   91.33922640
_symmetry_Int_Tables_number   1
_chemical_formula_structural   CoH14C14(N2O)6
_chemical_formula_sum   'Co1 H14 C14 N12 O6'
_cell_volume   490.95471508
_cell_formula_units_Z   1
loop_
 _symmetry_equiv_pos_site_id
 _symmetry_equiv_pos_as_xyz
  1  'x, y, z'
loop_
 _atom_site_type_symbol
 _atom_site_label
 _atom_site_symmetry_multiplicity
 _atom_site_fract_x
 _atom_site_fract_y
 _atom_site_fract_z
 _atom_site_occupancy
 _atom_site_hse06_10hf_ddec_charge
 _atom_site_hse06_10hf_ddec_spin_density
 _atom_site_hse06_10hf_ddec_sum_bond_order
 _atom_site_hse06_10hf_magmom
 _atom_site_hse06_ddec_charge
 _atom_site_hse06_ddec_spin_density
 _atom_site_hse06_ddec_sum_bond_order
 _atom_site_hse06_magmom
 _atom_site_pbe_cm5_charge
 _atom_site_pbe_ddec_charge
 _atom_site_pbe_ddec_spin_density
 _atom_site_pbe_ddec_sum_bond_order
 _atom_site_pbe_magmom
Co  Co0  1  0.00000225  0.99999970  0.99999797  1  0.759575  1.052115  2.799679  0.986  0.822338  1.038426  2.729018  0.977  0.649184  0.726008  1.058243  2.840893  0.984
H  H1  1  0.20504608  0.33669219  0.91590753  1  0.414599  0.000609  0.860461  0.001  0.422407  0.000371  0.852135  0.001  0.324276  0.40959  0.000831  0.865569  0.001
H  H2  1  0.79496457  0.66332834  0.08409536  1  0.414665  0.000608  0.860379  0.001  0.422474  0.000371  0.852049  0.001  0.32428  0.409657  0.000831  0.865489  0.001
H  H3  1  0.04124292  0.27631903  0.06779508  1  0.373861  -0.000166  0.974629  0.0  0.385114  -0.000266  0.958282  0.0  0.285728  0.366113  -5.8e-05  0.985863  0.0
H  H4  1  0.95876846  0.72367954  0.93220815  1  0.373806  -0.000166  0.97471  0.0  0.385059  -0.000266  0.958365  0.0  0.285689  0.366059  -5.8e-05  0.985944  0.0
H  H5  1  0.54234627  0.00772340  0.68368222  1  0.125296  -9e-05  1.041395  0.0  0.127465  -9.4e-05  1.040571  0.0  0.124194  0.123907  -0.000122  1.041896  0.0
H  H6  1  0.45767700  0.99228220  0.31631970  1  0.125313  -9e-05  1.04141  0.0  0.127477  -9.5e-05  1.040574  0.0  0.124184  0.123918  -0.000122  1.041913  0.0
H  H7  1  0.59716658  0.85029491  0.86344443  1  0.165146  -0.000157  0.98118  0.0  0.168589  -0.000156  0.978825  0.0  0.129581  0.162489  -0.00017  0.982963  0.0
H  H8  1  0.40283130  0.14969157  0.13655330  1  0.1651  -0.000157  0.981127  0.0  0.168534  -0.000156  0.978767  0.0  0.129583  0.162442  -0.00017  0.982902  0.0
H  H9  1  0.80718261  0.32700293  0.89058589  1  0.10724  -0.000353  1.034621  0.0  0.110776  -0.000294  1.030454  0.0  0.128567  0.104579  -0.000402  1.038001  0.0
H  H10  1  0.19283001  0.67299021  0.10942852  1  0.107236  -0.000354  1.034817  0.0  0.110769  -0.000294  1.030655  0.0  0.128529  0.104576  -0.000402  1.038194  0.0
H  H11  1  0.92776678  0.17598826  0.43439027  1  0.089653  -5.6e-05  1.017135  0.0  0.091986  -8.3e-05  1.016661  0.0  0.113916  0.087969  -7.4e-05  1.017977  0.0
H  H12  1  0.07220102  0.82401481  0.56561403  1  0.089715  -5.5e-05  1.017248  0.0  0.092013  -8.3e-05  1.016815  0.0  0.113984  0.088083  -7.4e-05  1.018037  0.0
H  H13  1  0.02677375  0.98276189  0.68952321  1  0.09422  -0.000275  1.044824  0.0  0.096895  -0.00024  1.042155  0.0  0.122751  0.091766  -0.000348  1.047748  0.0
H  H14  1  0.97321294  0.01723841  0.31047140  1  0.09414  -0.000275  1.044787  0.0  0.096803  -0.00024  1.042145  0.0  0.122748  0.091692  -0.000348  1.0477  0.0
C  C15  1  0.29241746  0.85050724  0.83624282  1  0.625271  -0.002275  4.15329  -0.001  0.659625  -0.000634  4.149023  0.001  0.215646  0.602078  -0.002962  4.154912  -0.002
C  C16  1  0.70759405  0.14949421  0.16374987  1  0.625515  -0.002275  4.153011  -0.001  0.659854  -0.000634  4.148737  0.001  0.215796  0.602318  -0.002962  4.154642  -0.002
C  C17  1  0.51023294  0.87324550  0.76935895  1  -0.286546  -0.000777  3.854938  0.0  -0.290384  -0.00042  3.861571  0.0  -0.051702  -0.283677  -0.000848  3.850411  0.0
C  C18  1  0.48977280  0.12675819  0.23063687  1  -0.286555  -0.000777  3.854699  0.0  -0.290342  -0.000421  3.861266  0.0  -0.051691  -0.283669  -0.000848  3.850163  0.0
C  C19  1  0.83165104  0.28879669  0.79076942  1  0.022992  -0.009468  3.829999  -0.005  0.032388  -0.007402  3.839696  -0.004  0.061244  0.015775  -0.010819  3.825538  -0.006
C  C20  1  0.16835732  0.71119806  0.20922676  1  0.023005  -0.00947  3.82997  -0.005  0.032414  -0.007398  3.83965  -0.004  0.061313  0.015783  -0.010826  3.825515  -0.006
C  C21  1  0.77533947  0.39270179  0.64927365  1  0.140721  0.0005  4.014932  0.002  0.142422  0.001053  4.030562  0.002  0.13598  0.139141  -0.000328  4.005357  0.001
C  C22  1  0.22465726  0.60729581  0.35074105  1  0.140874  0.000498  4.014997  0.002  0.142583  0.00105  4.030622  0.002  0.135977  0.139296  -0.000328  4.005417  0.001
C  C23  1  0.68168501  0.55288262  0.63656228  1  0.198257  -0.000346  4.073926  0.0  0.202774  -0.000598  4.09201  0.0  0.222303  0.195484  -0.000232  4.061763  0.0
C  C24  1  0.31830894  0.44711779  0.36344008  1  0.198038  -0.000343  4.074239  0.0  0.202553  -0.000594  4.092322  0.0  0.222199  0.195265  -0.000232  4.062078  0.0
C  C25  1  0.89913491  0.20800184  0.53807851  1  0.048045  0.000505  3.990821  0.002  0.04807  0.001149  4.005525  0.002  0.04972  0.047581  -0.0004  3.981924  0.001
C  C26  1  0.10083742  0.79200645  0.46193117  1  0.047967  0.000505  3.990431  0.002  0.048018  0.001147  4.005144  0.002  0.049554  0.047459  -0.000401  3.981522  0.001
C  C27  1  0.95452127  0.10107420  0.67785997  1  0.03831  -0.009808  3.897684  -0.006  0.04743  -0.007324  3.90973  -0.004  0.048167  0.031963  -0.010862  3.891537  -0.006
C  C28  1  0.04547115  0.89892364  0.32213907  1  0.038523  -0.009795  3.897847  -0.006  0.04764  -0.00731  3.909899  -0.004  0.048249  0.032179  -0.010845  3.891707  -0.006
N  N29  1  0.57103816  0.75835925  0.68933055  1  0.303903  5.5e-05  3.814528  0.0  0.300699  1.9e-05  3.836103  0.0  -0.000529  0.305571  9.1e-05  3.800815  0.0
N  N30  1  0.42896904  0.24164451  0.31066508  1  0.303858  5.6e-05  3.81456  0.0  0.300641  2.2e-05  3.836124  0.0  -0.00059  0.30552  9.1e-05  3.800854  0.0
N  N31  1  0.63645302  0.60314397  0.75748148  1  -0.271152  0.000569  3.059418  0.001  -0.275082  0.000631  3.070401  0.001  -0.18836  -0.269293  0.000584  3.053057  0.0
N  N32  1  0.36355436  0.39686600  0.24252397  1  -0.27116  0.000569  3.059634  0.001  -0.275092  0.000631  3.070621  0.001  -0.188389  -0.269302  0.000584  3.053278  0.0
N  N33  1  0.81087198  0.35429265  0.52102601  1  -0.234578  -0.01016  3.283243  -0.008  -0.234977  -0.006604  3.29295  -0.005  -0.293237  -0.235069  -0.013241  3.278139  -0.01
N  N34  1  0.18911280  0.64569551  0.47898326  1  -0.234541  -0.010155  3.283156  -0.008  -0.234946  -0.006597  3.292854  -0.005  -0.293074  -0.235032  -0.013237  3.278068  -0.01
N  N35  1  0.64329319  0.67445216  0.50059603  1  -0.221771  -8e-06  3.230771  0.0  -0.227771  0.000181  3.242089  0.0  -0.18708  -0.217571  -0.000151  3.22299  0.0
N  N36  1  0.35669450  0.32553508  0.49940467  1  -0.221726  -1e-05  3.230778  0.0  -0.22773  0.000181  3.242099  0.0  -0.187007  -0.217522  -0.000152  3.222994  0.0
N  N37  1  0.57393850  0.80390178  0.53537103  1  -0.099792  -0.000204  3.167626  0.0  -0.098138  -0.000252  3.178154  0.0  -0.064657  -0.10069  -0.000311  3.160863  0.0
N  N38  1  0.42605245  0.19609492  0.46461996  1  -0.09967  -0.000206  3.167733  0.0  -0.098015  -0.000258  3.178265  0.0  -0.064616  -0.100568  -0.000311  3.160971  0.0
N  N39  1  0.92169059  0.14211783  0.80572778  1  -0.15135  -0.009705  3.639216  -0.006  -0.171023  -0.006238  3.653364  -0.004  -0.323155  -0.141058  -0.011562  3.631026  -0.008
N  N40  1  0.07831346  0.85788021  0.19428280  1  -0.151557  -0.009704  3.639509  -0.006  -0.171246  -0.006242  3.653683  -0.004  -0.323223  -0.141263  -0.011559  3.631316  -0.008
O  O41  1  0.24698808  0.96846260  0.89092773  1  -0.536602  -0.006521  2.394308  -0.005  -0.577177  -0.0097  2.387696  -0.008  -0.305708  -0.509287  -0.004658  2.39694  -0.003
O  O42  1  0.75301027  0.03153707  0.10906157  1  -0.536859  -0.006524  2.394263  -0.005  -0.577436  -0.009702  2.387657  -0.008  -0.305874  -0.509543  -0.00466  2.396902  -0.003
O  O43  1  0.15538540  0.23802792  0.01268865  1  -0.763803  0.02321  2.110239  0.038  -0.787387  0.018738  2.081408  0.031  -0.557328  -0.745281  0.028223  2.128108  0.046
O  O44  1  0.84463069  0.76198013  0.98730686  1  -0.763868  0.023214  2.110407  0.038  -0.787452  0.018742  2.081567  0.032  -0.557304  -0.745345  0.028226  2.128284  0.046
O  O45  1  0.18184438  0.72880160  0.83400444  1  -0.561661  -0.001144  2.141307  -0.001  -0.585804  -0.00106  2.131513  -0.001  -0.314915  -0.545053  -0.001311  2.147658  -0.001
O  O46  1  0.81816693  0.27119344  0.16598599  1  -0.561653  -0.001144  2.141336  -0.001  -0.585808  -0.001059  2.131567  -0.001  -0.314903  -0.54504  -0.001311  2.147683  -0.001
