# generated using pymatgen
data_AgH8C8S2N(OF)3
_symmetry_space_group_name_H-M   'P 1'
_cell_length_a   5.54354264
_cell_length_b   9.83584282
_cell_length_c   11.18505999
_cell_angle_alpha   93.57299463
_cell_angle_beta   96.08665157
_cell_angle_gamma   104.59883728
_symmetry_Int_Tables_number   1
_chemical_formula_structural   AgH8C8S2N(OF)3
_chemical_formula_sum   'Ag2 H16 C16 S4 N2 O6 F6'
_cell_volume   584.33480296
_cell_formula_units_Z   2
loop_
 _symmetry_equiv_pos_site_id
 _symmetry_equiv_pos_as_xyz
  1  'x, y, z'
loop_
 _atom_site_type_symbol
 _atom_site_label
 _atom_site_symmetry_multiplicity
 _atom_site_fract_x
 _atom_site_fract_y
 _atom_site_fract_z
 _atom_site_occupancy
 _atom_site_hle17_bader_spin_density
 _atom_site_hle17_ddec_charge
 _atom_site_hle17_ddec_spin_density
 _atom_site_hle17_ddec_sum_bond_order
 _atom_site_hle17_magmom
 _atom_site_hse06_10hf_bader_spin_density
 _atom_site_hse06_10hf_ddec_charge
 _atom_site_hse06_10hf_ddec_spin_density
 _atom_site_hse06_10hf_ddec_sum_bond_order
 _atom_site_hse06_10hf_magmom
 _atom_site_hse06_bader_spin_density
 _atom_site_hse06_ddec_charge
 _atom_site_hse06_ddec_spin_density
 _atom_site_hse06_ddec_sum_bond_order
 _atom_site_hse06_magmom
 _atom_site_pbe_bader_spin_density
 _atom_site_pbe_cm5_charge
 _atom_site_pbe_ddec_charge
 _atom_site_pbe_ddec_spin_density
 _atom_site_pbe_ddec_sum_bond_order
 _atom_site_pbe_magmom
Ag  Ag0  1  0.89242335  0.07107909  0.08421929  1  0  0.455155  0  1.661523  0  0  0.337916  0  2.150376  0  0  0.361241  0  2.100809  0  0  0.414321  0.321789  0  2.185347  0
Ag  Ag1  1  0.10756683  0.92891069  0.91577019  1  0  0.455145  0  1.661494  0  0  0.337893  0  2.150324  0  0  0.361223  0  2.100755  0  0  0.414313  0.321759  0  2.185298  0
H  H2  1  0.31418863  0.00829844  0.68460308  1  0  0.078213  0  0.978986  0  0  0.084998  0  1.049231  0  0  0.087078  0  1.047562  0  0  0.110401  0.08336  0  1.050566  0
H  H3  1  0.68579598  0.99169548  0.31539705  1  0  0.078244  0  0.978953  0  0  0.085017  0  1.049167  0  0  0.08714  0  1.047433  0  0  0.11041  0.083362  0  1.050547  0
H  H4  1  0.24898401  0.14084952  0.50605520  1  0  0.127476  0  0.969517  0  0  0.137584  0  1.026941  0  0  0.140753  0  1.026172  0  0  0.109384  0.135244  0  1.0277  0
H  H5  1  0.75107187  0.85918568  0.49395756  1  0  0.127433  0  0.969677  0  0  0.137604  0  1.027002  0  0  0.140772  0  1.026234  0  0  0.109473  0.135268  0  1.02775  0
H  H6  1  0.92434776  0.27936492  0.50340003  1  0  0.104946  0  0.94114  0  0  0.113409  0  1.00285  0  0  0.116333  0  0.999894  0  0  0.106738  0.11134  0  1.004891  0
H  H7  1  0.07570946  0.72067342  0.49661835  1  0  0.104942  0  0.941138  0  0  0.113403  0  1.002817  0  0  0.116329  0  0.999856  0  0  0.106784  0.111335  0  1.004863  0
H  H8  1  0.68963718  0.28464715  0.68095285  1  0  0.108791  0  0.958344  0  0  0.116474  0  1.022696  0  0  0.119472  0  1.021932  0  0  0.104773  0.114251  0  1.023561  0
H  H9  1  0.31036741  0.71535846  0.31904103  1  0  0.108829  0  0.958308  0  0  0.116523  0  1.022648  0  0  0.119522  0  1.02188  0  0  0.104807  0.114306  0  1.023505  0
H  H10  1  0.59263760  0.33356421  0.00051878  1  0  0.115267  0  0.944619  0  0  0.134452  0  0.99883  0  0  0.135595  0  0.998925  0  0  0.103489  0.133615  0  0.998786  0
H  H11  1  0.40735080  0.66643813  0.99948472  1  0  0.11513  0  0.9447  0  0  0.134393  0  0.998829  0  0  0.135531  0  0.998926  0  0  0.10347  0.133554  0  0.998785  0
H  H12  1  0.66591018  0.37506111  0.85427827  1  0  0.09238  0  0.955804  0  0  0.105389  0  1.020776  0  0  0.106864  0  1.019989  0  0  0.094074  0.104334  0  1.021629  0
H  H13  1  0.33408478  0.62495178  0.14572889  1  0  0.092459  0  0.955705  0  0  0.105458  0  1.020682  0  0  0.10693  0  1.01989  0  0  0.094094  0.104399  0  1.021536  0
H  H14  1  0.04239746  0.38324280  0.07945797  1  0  0.082951  0  0.947985  0  0  0.099567  0  1.011954  0  0  0.100726  0  1.011812  0  0  0.086383  0.098713  0  1.012296  0
H  H15  1  0.95757584  0.61676260  0.92055468  1  0  0.082931  0  0.947916  0  0  0.099497  0  1.01196  0  0  0.100656  0  1.01182  0  0  0.086405  0.098642  0  1.012308  0
H  H16  1  0.13289506  0.40423377  0.93336355  1  0  0.073589  0  0.939253  0  0  0.092941  0  0.995674  0  0  0.09347  0  0.996989  0  0  0.085124  0.092595  0  0.994772  0
H  H17  1  0.86709815  0.59577168  0.06665381  1  0  0.07369  0  0.939066  0  0  0.093079  0  0.995426  0  0  0.093608  0  0.996739  0  0  0.085223  0.092729  0  0.994534  0
C  C18  1  0.18138022  0.07331423  0.68171671  1  0  0.131828  0  3.686663  0  0  0.100626  0  3.935898  0  0  0.107373  0  3.955075  0  0  0.041162  0.096319  0  3.922924  0
C  C19  1  0.81862459  0.92668818  0.31828504  1  0  0.131732  0  3.686866  0  0  0.100572  0  3.936108  0  0  0.107298  0  3.955281  0  0  0.04114  0.096262  0  3.923121  0
C  C20  1  0.14312098  0.14630312  0.58211309  1  0  -0.120806  0  3.703026  0  0  -0.134346  0  3.952171  0  0  -0.14113  0  3.972835  0  0  -0.08437  -0.130104  0  3.938427  0
C  C21  1  0.85692150  0.85371837  0.41789367  1  0  -0.120845  0  3.70329  0  0  -0.134453  0  3.952443  0  0  -0.141242  0  3.97312  0  0  -0.084478  -0.130204  0  3.938693  0
C  C22  1  0.96391198  0.22368315  0.58122027  1  0  0.024487  0  3.683292  0  0  0.003911  0  3.935458  0  0  0.008809  0  3.951652  0  0  -0.060594  0.000568  0  3.924736  0
C  C23  1  0.03612371  0.77633937  0.41878616  1  0  0.024678  0  3.683326  0  0  0.004145  0  3.935502  0  0  0.00904  0  3.951703  0  0  -0.060578  0.0008  0  3.924796  0
C  C24  1  0.83321489  0.22694382  0.68045001  1  0  -0.139822  0  3.696807  0  0  -0.158784  0  3.945322  0  0  -0.16639  0  3.967069  0  0  -0.082174  -0.153984  0  3.931236  0
C  C25  1  0.16679181  0.77306280  0.31955298  1  0  -0.140065  0  3.6967  0  0  -0.159041  0  3.945236  0  0  -0.166647  0  3.966981  0  0  -0.082287  -0.154248  0  3.931151  0
C  C26  1  0.88752067  0.15329736  0.77858343  1  0  0.199337  0  3.738384  0  0  0.201812  0  3.992568  0  0  0.210061  0  4.015149  0  0  0.122672  0.195987  0  3.977302  0
C  C27  1  0.11247380  0.84670609  0.22141333  1  0  0.199603  0  3.737991  0  0  0.202051  0  3.992205  0  0  0.210298  0  4.014791  0  0  0.122795  0.196234  0  3.976928  0
C  C28  1  0.73247682  0.33539226  0.93758289  1  0  -0.130214  0  3.601909  0  0  -0.1677  0  3.862857  0  0  -0.167323  0  3.874974  0  0  -0.146672  -0.167971  0  3.85462  0
C  C29  1  0.26751578  0.66461536  0.06242204  1  0  -0.130084  0  3.601812  0  0  -0.167682  0  3.862893  0  0  -0.167287  0  3.874986  0  0  -0.146635  -0.167944  0  3.85465  0
C  C30  1  0.99399850  0.42123807  0.99201213  1  0  -0.103104  0  3.67198  0  0  -0.141488  0  3.927706  0  0  -0.143377  0  3.943174  0  0  -0.171886  -0.140062  0  3.917142  0
C  C31  1  0.00599072  0.57876635  0.00799869  1  0  -0.103321  0  3.671771  0  0  -0.141667  0  3.927522  0  0  -0.143556  0  3.942977  0  0  -0.172088  -0.140258  0  3.91698  0
C  C32  1  0.54786249  0.42057089  0.31529747  1  0  0.594197  0  3.674082  0  0  0.527599  0  4.038171  0  0  0.555817  0  4.010594  0  0  0.288905  0.507003  0  4.058791  0
C  C33  1  0.45210231  0.57939974  0.68470916  1  0  0.593233  0  3.676041  0  0  0.527586  0  4.038668  0  0  0.555823  0  4.011065  0  0  0.288777  0.507004  0  4.059266  0
S  S34  1  0.70961967  0.14869569  0.90280485  1  0  -0.002985  0  2.76553  0  0  0.01975  0  3.199335  0  0  0.013488  0  3.188705  0  0  0.016094  0.024306  0  3.206953  0
S  S35  1  0.29036896  0.85131090  0.09719264  1  0  -0.003038  0  2.765585  0  0  0.019729  0  3.199415  0  0  0.013462  0  3.188781  0  0  0.016111  0.024289  0  3.207019  0
S  S36  1  0.52607611  0.23771599  0.25077990  1  0  1.114524  0  5.812021  0  0  1.010425  0  6.348374  0  0  1.053836  0  6.329055  0  0  0.483269  0.980283  0  6.36123  0
S  S37  1  0.47395473  0.76228246  0.74918734  1  0  1.115149  0  5.811361  0  0  1.010763  0  6.347722  0  0  1.054163  0  6.328402  0  0  0.483435  0.980616  0  6.360593  0
N  N38  1  0.05752536  0.07702453  0.77904343  1  0  -0.328897  0  3.321176  0  0  -0.249112  0  3.586754  0  0  -0.268595  0  3.605199  0  0  -0.343537  -0.236107  0  3.574301  0
N  N39  1  0.94246490  0.92297364  0.22095279  1  0  -0.329034  0  3.321193  0  0  -0.249242  0  3.586786  0  0  -0.268727  0  3.605237  0  0  -0.343644  -0.236241  0  3.574332  0
O  O40  1  0.35724621  0.22300333  0.13796712  1  0  -0.618464  0  2.063207  0  0  -0.576473  0  2.351094  0  0  -0.595559  0  2.334353  0  0  -0.339548  -0.56335  0  2.362828  0
O  O41  1  0.64275020  0.77700342  0.86200401  1  0  -0.61842  0  2.062855  0  0  -0.576478  0  2.350871  0  0  -0.595563  0  2.334128  0  0  -0.339513  -0.563336  0  2.362562  0
O  O42  1  0.42848492  0.14904972  0.34310972  1  0  -0.583424  0  1.998387  0  0  -0.546743  0  2.241766  0  0  -0.565681  0  2.232574  0  0  -0.32534  -0.533191  0  2.247795  0
O  O43  1  0.57158204  0.85091204  0.65684587  1  0  -0.583612  0  1.997905  0  0  -0.546894  0  2.241305  0  0  -0.565825  0  2.232109  0  0  -0.325563  -0.533354  0  2.247339  0
O  O44  1  0.78745795  0.24486143  0.23377393  1  0  -0.600857  0  2.043418  0  0  -0.553446  0  2.314872  0  0  -0.573404  0  2.300421  0  0  -0.341301  -0.539434  0  2.324145  0
O  O45  1  0.21257316  0.75516874  0.76617366  1  0  -0.601062  0  2.043183  0  0  -0.553563  0  2.314607  0  0  -0.573522  0  2.300157  0  0  -0.341312  -0.539557  0  2.323884  0
F  F46  1  0.65028403  0.51673626  0.23970617  1  0  -0.228196  0  1.200385  0  0  -0.19029  0  1.376172  0  0  -0.200866  0  1.362752  0  0  -0.089518  -0.182764  0  1.385687  0
F  F47  1  0.34968425  0.48327948  0.76034434  1  0  -0.227997  0  1.200749  0  0  -0.190317  0  1.376212  0  0  -0.200898  0  1.36279  0  0  -0.089575  -0.182801  0  1.385725  0
F  F48  1  0.31815925  0.43809900  0.33135564  1  0  -0.224524  0  1.207167  0  0  -0.178753  0  1.369138  0  0  -0.189538  0  1.354853  0  0  -0.09068  -0.169433  0  1.376992  0
F  F49  1  0.68177086  0.56182726  0.66864741  1  0  -0.224211  0  1.207772  0  0  -0.178726  0  1.36947  0  0  -0.189503  0  1.355159  0  0  -0.090571  -0.169395  0  1.377297  0
F  F50  1  0.69530476  0.45119546  0.42340486  1  0  -0.221776  0  1.204888  0  0  -0.189662  0  1.379845  0  0  -0.199016  0  1.363802  0  0  -0.091139  -0.183244  0  1.39111  0
F  F51  1  0.30461879  0.54873702  0.57661605  1  0  -0.221581  0  1.205424  0  0  -0.189704  0  1.380059  0  0  -0.199062  0  1.364012  0  0  -0.091022  -0.183285  0  1.391313  0
