# generated using pymatgen
data_Zr3H2C24(O4F3)4
_symmetry_space_group_name_H-M   'P 1'
_cell_length_a   14.86694962
_cell_length_b   14.86686838
_cell_length_c   14.86693770
_cell_angle_alpha   59.99986914
_cell_angle_beta   89.99978096
_cell_angle_gamma   120.00017292
_symmetry_Int_Tables_number   1
_chemical_formula_structural   Zr3H2C24(O4F3)4
_chemical_formula_sum   'Zr6 H4 C48 O32 F24'
_cell_volume   2323.51278143
_cell_formula_units_Z   2
loop_
 _symmetry_equiv_pos_site_id
 _symmetry_equiv_pos_as_xyz
  1  'x, y, z'
loop_
 _atom_site_type_symbol
 _atom_site_label
 _atom_site_symmetry_multiplicity
 _atom_site_fract_x
 _atom_site_fract_y
 _atom_site_fract_z
 _atom_site_occupancy
 _atom_site_pbe_bader_charge
 _atom_site_pbe_bader_spin_density
 _atom_site_pbe_cm5_charge
 _atom_site_pbe_ddec_charge
 _atom_site_pbe_ddec_spin_density
 _atom_site_pbe_ddec_sum_bond_order
 _atom_site_pbe_magmom
Zr  Zr0  1  0.11902128  0.00000158  0.11901979  1  2.637464  0  1.63715  2.383313  0  2.741379  0
Zr  Zr1  1  0.88097952  0.00000149  0.88097778  1  2.632419  0  1.637159  2.383279  0  2.741477  0
Zr  Zr2  1  0.88097838  0.76195647  0.11902103  1  2.64114  0  1.636762  2.383388  0  2.741403  0
Zr  Zr3  1  0.11902215  0.23804684  0.88097659  1  2.64122  0  1.636766  2.383385  0  2.741446  0
Zr  Zr4  1  0.11902038  0.00000093  0.88097777  1  2.625916  0  1.637153  2.383232  0  2.741449  0
Zr  Zr5  1  0.88097879  0.00000147  0.11902076  1  2.625689  0  1.637175  2.383326  0  2.741294  0
H  H6  1  0.09362385  0.81275713  0.09362004  1  0.606642  0  0.330591  0.419784  0  0.862217  0
H  H7  1  0.09362276  0.18724830  0.71912717  1  0.600004  0  0.330742  0.419737  0  0.8619  0
H  H8  1  0.71912984  0.81275502  0.09362046  1  0.626198  0  0.33071  0.419808  0  0.862013  0
H  H9  1  0.09362253  0.18724780  0.09362117  1  0.606612  0  0.330707  0.419799  0  0.86196  0
C  C10  1  0.30435902  0.00507489  0.99745847  1  1.610468  0  0.237703  0.669943  0  4.098199  0
C  C11  1  0.99746539  0.99492660  0.70071259  1  1.610131  0  0.237672  0.669833  0  4.098408  0
C  C12  1  0.70071416  0.00507618  0.99746229  1  1.610138  0  0.237767  0.670007  0  4.098115  0
C  C13  1  0.99746142  0.99492866  0.30435526  1  1.610504  0  0.237766  0.67  0  4.098197  0
C  C14  1  0.99746609  0.69818685  0.30435255  1  1.620108  0  0.237674  0.669971  0  4.098291  0
C  C15  1  0.30435744  0.30182006  0.99746281  1  1.620117  0  0.237779  0.670014  0  4.09839  0
C  C16  1  0.99745927  0.30182301  0.70071230  1  1.615507  0  0.237741  0.670119  0  4.098352  0
C  C17  1  0.70071510  0.69818111  0.99745701  1  1.615283  0  0.237603  0.669868  0  4.098336  0
C  C18  1  0.99746951  0.69818645  0.99745557  1  1.622871  0  0.237597  0.669851  0  4.098238  0
C  C19  1  0.70071342  0.69818152  0.30435763  1  1.607373  0  0.237688  0.670018  0  4.098215  0
C  C20  1  0.99745816  0.30182063  0.99746527  1  1.622827  0  0.237661  0.670002  0  4.098239  0
C  C21  1  0.30435854  0.30181975  0.70071252  1  1.607558  0  0.237771  0.670113  0  4.098397  0
C  C22  1  0.59857118  0.00272801  0.99863586  1  0.111895  0  -0.023036  -0.217608  0  3.96356  0
C  C23  1  0.40414747  0.00272131  0.99863405  1  0.09518  0  -0.023032  -0.21746  0  3.963547  0
C  C24  1  0.54773836  0.00154579  0.91890005  1  0.552987  0  0.099409  0.166927  0  4.07245  0
C  C25  1  0.45381823  0.00155883  0.07954510  1  0.575448  0  0.099425  0.166847  0  4.072333  0
C  C26  1  0.45380480  0.00154110  0.91890127  1  0.548769  0  0.099415  0.166866  0  4.072525  0
C  C27  1  0.54774101  0.00156487  0.07954794  1  0.50979  0  0.099442  0.166911  0  4.072335  0
C  C28  1  0.99863886  0.99727850  0.59856761  1  0.112029  0  -0.02298  -0.217503  0  3.963553  0
C  C29  1  0.99863943  0.99728793  0.40414339  1  0.09568  0  -0.023008  -0.217476  0  3.963436  0
C  C30  1  0.91890087  0.99845716  0.54773700  1  0.553244  0  0.099366  0.166814  0  4.072551  0
C  C31  1  0.07955012  0.99845021  0.45381328  1  0.506244  0  0.099374  0.166866  0  4.072232  0
C  C32  1  0.91890237  0.99846421  0.45380511  1  0.548336  0  0.09945  0.166952  0  4.072435  0
C  C33  1  0.07955088  0.99844383  0.54773821  1  0.578797  0  0.099404  0.166843  0  4.072385  0
C  C34  1  0.59856917  0.59721121  0.40414750  1  0.099882  0  -0.023152  -0.217545  0  3.963597  0
C  C35  1  0.40414811  0.40279275  0.59856622  1  0.099813  0  -0.023138  -0.217627  0  3.963721  0
C  C36  1  0.54773457  0.62729217  0.45380981  1  0.576231  0  0.099389  0.16686  0  4.072486  0
C  C37  1  0.45380679  0.37270776  0.54773772  1  0.5765  0  0.099403  0.166937  0  4.072598  0
C  C38  1  0.45381178  0.53336914  0.54773177  1  0.519135  0  0.099377  0.166931  0  4.072569  0
C  C39  1  0.54773674  0.46663820  0.45380792  1  0.518305  0  0.099372  0.166889  0  4.072468  0
C  C40  1  0.99864055  0.59720975  0.99863984  1  0.041828  0  -0.023094  -0.217486  0  3.963509  0
C  C41  1  0.99864046  0.40279328  0.99863744  1  0.042694  0  -0.023121  -0.217596  0  3.96371  0
C  C42  1  0.07955660  0.62729263  0.91889875  1  0.621895  0  0.099424  0.166922  0  4.072436  0
C  C43  1  0.91889841  0.37271269  0.07955229  1  0.554083  0  0.099455  0.167007  0  4.072426  0
C  C44  1  0.07955403  0.53336386  0.91889975  1  0.5332  0  0.099317  0.166849  0  4.072608  0
C  C45  1  0.91889830  0.46663676  0.07955330  1  0.600612  0  0.099326  0.166859  0  4.072483  0
C  C46  1  0.99863908  0.40279670  0.59856862  1  0.009761  0  -0.023146  -0.217588  0  3.963681  0
C  C47  1  0.99863928  0.59720914  0.40414457  1  0.118958  0  -0.023174  -0.217523  0  3.963584  0
C  C48  1  0.07955391  0.53337188  0.54773605  1  0.643521  0  0.099392  0.166865  0  4.072647  0
C  C49  1  0.91890162  0.46663747  0.45380589  1  0.500369  0  0.099391  0.166852  0  4.072609  0
C  C50  1  0.07955439  0.62728821  0.45381145  1  0.498766  0  0.099415  0.166915  0  4.072298  0
C  C51  1  0.91889959  0.37271038  0.54773876  1  0.615699  0  0.099422  0.166965  0  4.072451  0
C  C52  1  0.59857298  0.59720846  0.99863821  1  0.009716  0  -0.023091  -0.217402  0  3.963488  0
C  C53  1  0.40414742  0.40279472  0.99863710  1  0.118508  0  -0.023188  -0.217602  0  3.963682  0
C  C54  1  0.54773762  0.62729122  0.91889762  1  0.541587  0  0.099387  0.166852  0  4.072392  0
C  C55  1  0.45381107  0.37271276  0.07955116  1  0.498734  0  0.099433  0.166965  0  4.072344  0
C  C56  1  0.45380726  0.53336717  0.91889810  1  0.575037  0  0.099401  0.166901  0  4.072619  0
C  C57  1  0.54773941  0.46663614  0.07954934  1  0.643518  0  0.099341  0.166807  0  4.072422  0
O  O58  1  0.26541048  0.00533845  0.07349707  1  -1.157601  0  -0.349019  -0.604121  0  2.299607  0
O  O59  1  0.92116546  0.99466212  0.73992566  1  -1.154899  0  -0.348951  -0.603979  0  2.29985  0
O  O60  1  0.73992739  0.00534213  0.92116481  1  -1.154897  0  -0.348983  -0.604025  0  2.299766  0
O  O61  1  0.07349669  0.99466458  0.26541075  1  -1.15763  0  -0.348968  -0.604051  0  2.299816  0
O  O62  1  0.92116195  0.66108688  0.26541190  1  -1.161807  0  -0.349261  -0.604115  0  2.299714  0
O  O63  1  0.26541308  0.33891575  0.92115916  1  -1.162236  0  -0.349258  -0.604063  0  2.299715  0
O  O64  1  0.07349814  0.33891372  0.73992481  1  -1.157672  0  -0.349242  -0.604145  0  2.299728  0
O  O65  1  0.73992776  0.66109027  0.07349545  1  -1.157325  0  -0.349224  -0.604056  0  2.299666  0
O  O66  1  0.07349449  0.81342015  0.92116500  1  -1.163168  0  -0.348926  -0.603918  0  2.30012  0
O  O67  1  0.73992395  0.81341898  0.26541304  1  -1.15144  0  -0.348978  -0.603971  0  2.300051  0
O  O68  1  0.92116535  0.18658250  0.07349259  1  -1.16301  0  -0.348929  -0.603958  0  2.300031  0
O  O69  1  0.26541362  0.18658700  0.73992086  1  -1.151583  0  -0.34904  -0.604037  0  2.300324  0
O  O70  1  0.73992625  0.66108960  0.26541104  1  -1.157771  0  -0.349298  -0.604153  0  2.299642  0
O  O71  1  0.07349693  0.33891241  0.92116072  1  -1.158964  0  -0.349247  -0.604109  0  2.299657  0
O  O72  1  0.26541045  0.33891235  0.73992508  1  -1.157265  0  -0.349312  -0.60416  0  2.299603  0
O  O73  1  0.92116081  0.66109091  0.07349695  1  -1.159256  0  -0.349228  -0.604068  0  2.299547  0
O  O74  1  0.07349496  0.81341975  0.26541271  1  -1.162477  0  -0.34896  -0.603968  0  2.300032  0
O  O75  1  0.73992530  0.81341938  0.92116619  1  -1.162095  0  -0.348945  -0.603954  0  2.300059  0
O  O76  1  0.92116917  0.18658555  0.73992333  1  -1.162168  0  -0.349025  -0.60406  0  2.30014  0
O  O77  1  0.26541392  0.18658327  0.07349206  1  -1.162463  0  -0.349015  -0.604013  0  2.300155  0
O  O78  1  0.92116293  0.99466378  0.26541174  1  -1.158236  0  -0.348987  -0.604016  0  2.299793  0
O  O79  1  0.26541423  0.00534086  0.92116323  1  -1.158291  0  -0.348948  -0.603971  0  2.299923  0
O  O80  1  0.07349807  0.99466494  0.73992246  1  -1.159372  0  -0.348945  -0.60395  0  2.299968  0
O  O81  1  0.73992419  0.00533703  0.07349808  1  -1.159361  0  -0.349022  -0.604072  0  2.299768  0
O  O82  1  0.06702048  0.13404410  0.06701858  1  -1.238188  0  -0.694364  -1.071711  0  2.372433  0
O  O83  1  0.79893626  0.86595822  0.06701931  1  -1.25676  0  -0.694401  -1.071775  0  2.372463  0
O  O84  1  0.06702093  0.13404490  0.79893410  1  -1.231754  0  -0.694413  -1.071556  0  2.372371  0
O  O85  1  0.06702084  0.86596035  0.06701800  1  -1.238181  0  -0.694245  -1.071771  0  2.372531  0
O  O86  1  0.95077775  0.90155861  0.95077778  1  -1.195495  0  -0.791303  -1.155139  0  2.133448  0
O  O87  1  0.14766247  0.09844422  0.95077696  1  -1.196523  0  -0.791305  -1.155199  0  2.133445  0
O  O88  1  0.95077941  0.09844477  0.95077617  1  -1.195504  0  -0.791303  -1.155208  0  2.133415  0
O  O89  1  0.95077866  0.90155873  0.14766076  1  -1.193789  0  -0.791335  -1.155209  0  2.1333  0
F  F90  1  0.58695425  0.00050751  0.83828092  1  -0.599626  0  -0.074349  -0.083727  0  1.407892  0
F  F91  1  0.41355978  0.00052471  0.16120074  1  -0.601274  0  -0.074344  -0.083693  0  1.407801  0
F  F92  1  0.41355182  0.00049812  0.83828430  1  -0.598189  0  -0.074332  -0.083691  0  1.407963  0
F  F93  1  0.58696672  0.00054150  0.16119352  1  -0.597192  0  -0.074338  -0.083677  0  1.407862  0
F  F94  1  0.83828236  0.99949491  0.58695305  1  -0.599704  0  -0.074336  -0.083687  0  1.407934  0
F  F95  1  0.16120359  0.99948082  0.41355622  1  -0.601137  0  -0.074345  -0.083729  0  1.407742  0
F  F96  1  0.83828692  0.99950965  0.41354727  1  -0.598454  0  -0.074361  -0.083743  0  1.407935  0
F  F97  1  0.16119701  0.99946340  0.58696267  1  -0.597272  0  -0.074331  -0.083667  0  1.407872  0
F  F98  1  0.58695810  0.74816569  0.41355607  1  -0.599835  0  -0.074351  -0.08372  0  1.40789  0
F  F99  1  0.41355449  0.25183896  0.58695322  1  -0.59974  0  -0.07435  -0.083724  0  1.408057  0
F  F100  1  0.41355718  0.57476932  0.58695402  1  -0.602506  0  -0.074483  -0.083747  0  1.407827  0
F  F101  1  0.58695339  0.42523331  0.41355528  1  -0.602369  0  -0.07444  -0.083707  0  1.407864  0
F  F102  1  0.16121265  0.74816629  0.83827879  1  -0.601047  0  -0.074355  -0.083727  0  1.407876  0
F  F103  1  0.83827762  0.25183769  0.16120600  1  -0.600902  0  -0.074363  -0.083766  0  1.407923  0
F  F104  1  0.16120908  0.57476646  0.83827790  1  -0.603319  0  -0.074446  -0.083712  0  1.407864  0
F  F105  1  0.83827708  0.42523752  0.16120563  1  -0.603292  0  -0.07444  -0.083719  0  1.407855  0
F  F106  1  0.16119849  0.57477070  0.58696015  1  -0.601109  0  -0.074453  -0.08368  0  1.407996  0
F  F107  1  0.83828206  0.42523328  0.41355274  1  -0.601219  0  -0.074489  -0.083736  0  1.40792  0
F  F108  1  0.16121119  0.74816777  0.41355069  1  -0.599666  0  -0.074382  -0.083763  0  1.407867  0
F  F109  1  0.83827700  0.25183755  0.58695993  1  -0.597935  0  -0.074375  -0.083751  0  1.407931  0
F  F110  1  0.58696068  0.74816757  0.83827432  1  -0.598007  0  -0.074357  -0.083738  0  1.407879  0
F  F111  1  0.41355333  0.25183641  0.16120781  1  -0.599619  0  -0.074375  -0.083763  0  1.407887  0
F  F112  1  0.41355466  0.57476978  0.83828153  1  -0.601255  0  -0.074466  -0.083698  0  1.407941  0
F  F113  1  0.58696220  0.42523285  0.16119909  1  -0.601087  0  -0.074464  -0.083707  0  1.407844  0
