# generated using pymatgen
data_CuH44C28(NO)4
_symmetry_space_group_name_H-M   'P 1'
_cell_length_a   8.41103032
_cell_length_b   9.14700877
_cell_length_c   9.20495585
_cell_angle_alpha   88.77227259
_cell_angle_beta   69.88798172
_cell_angle_gamma   84.72375094
_symmetry_Int_Tables_number   1
_chemical_formula_structural   CuH44C28(NO)4
_chemical_formula_sum   'Cu1 H44 C28 N4 O4'
_cell_volume   662.14936958
_cell_formula_units_Z   1
loop_
 _symmetry_equiv_pos_site_id
 _symmetry_equiv_pos_as_xyz
  1  'x, y, z'
loop_
 _atom_site_type_symbol
 _atom_site_label
 _atom_site_symmetry_multiplicity
 _atom_site_fract_x
 _atom_site_fract_y
 _atom_site_fract_z
 _atom_site_occupancy
 _atom_site_pbe_cm5_charge
 _atom_site_pbe_ddec_charge
 _atom_site_pbe_ddec_spin_density
 _atom_site_pbe_ddec_sum_bond_order
 _atom_site_pbe_magmom
Cu  Cu0  1  0.99999913  0.00000270  0.00000067  1  0.731534  0.620405  0.68771  2.194075  0.519
H  H1  1  0.15176181  0.14968861  0.12185554  1  0.309239  0.263128  -0.000138  0.91609  0.0
H  H2  1  0.84823725  0.85031417  0.87814308  1  0.309287  0.263183  -0.000138  0.916071  0.0
H  H3  1  0.29181738  0.96771126  0.82012517  1  0.282585  0.248074  -0.000493  1.038499  0.0
H  H4  1  0.70818201  0.03228822  0.17987448  1  0.282593  0.248112  -0.000493  1.038483  0.0
H  H5  1  0.12432783  0.40206813  0.02929328  1  0.094145  0.061931  0.004426  1.03361  0.005
H  H6  1  0.87566856  0.59793576  0.97070512  1  0.094142  0.061948  0.004426  1.033611  0.005
H  H7  1  0.99097802  0.33493219  0.93652670  1  0.105212  0.082272  0.000753  1.010056  0.001
H  H8  1  0.00902098  0.66507060  0.06346976  1  0.105206  0.082266  0.000753  1.010011  0.001
H  H9  1  0.35716225  0.20511524  0.88231292  1  0.104001  0.114158  -6.3e-05  0.981595  0.0
H  H10  1  0.64283775  0.79489083  0.11768533  1  0.104006  0.114184  -6.3e-05  0.981554  0.0
H  H11  1  0.31117413  0.35733728  0.77884976  1  0.09706  0.100207  -0.00023  0.987744  0.0
H  H12  1  0.68882220  0.64266664  0.22114649  1  0.097082  0.100227  -0.00023  0.987752  0.0
H  H13  1  0.36321681  0.13719045  0.62856841  1  0.103218  0.042371  0.004921  1.006727  0.006
H  H14  1  0.63678235  0.86281123  0.37143020  1  0.103228  0.042378  0.004921  1.006737  0.006
H  H15  1  0.12623954  0.16313671  0.53601147  1  0.085997  0.115181  -3.4e-05  1.028111  0.0
H  H16  1  0.87375983  0.83686277  0.46398710  1  0.085996  0.115182  -3.4e-05  1.028124  0.0
H  H17  1  0.14433726  0.33674804  0.60560042  1  0.086924  0.121532  -0.000109  1.042763  0.0
H  H18  1  0.85566082  0.66325146  0.39439749  1  0.08692  0.121528  -0.000109  1.042747  0.0
H  H19  1  0.98196974  0.22605827  0.72035667  1  0.090831  0.137773  0.000104  1.065511  0.0
H  H20  1  0.01802833  0.77394123  0.27964124  1  0.09081  0.137777  0.000104  1.065509  0.0
H  H21  1  0.05870267  0.95367980  0.64214413  1  0.11013  0.065626  6.3e-05  0.961667  0.0
H  H22  1  0.94129641  0.04632297  0.35785557  1  0.11013  0.065654  6.3e-05  0.961641  0.0
H  H23  1  0.80095128  0.27808963  0.18043139  1  0.11505  0.071867  3e-05  0.976093  0.0
H  H24  1  0.19904904  0.72191314  0.81956682  1  0.115035  0.071887  3e-05  0.976049  0.0
H  H25  1  0.03405471  0.30504343  0.36953422  1  0.090947  0.088265  -4.9e-05  1.007625  0.0
H  H26  1  0.96594326  0.69495716  0.63046371  1  0.090964  0.088276  -4.9e-05  1.007619  0.0
H  H27  1  0.97217491  0.44653378  0.26094555  1  0.090464  0.088183  3.1e-05  1.019786  0.0
H  H28  1  0.02781802  0.55346791  0.73905947  1  0.090446  0.088171  3.1e-05  1.019755  0.0
H  H29  1  0.79315099  0.46872128  0.54228275  1  0.088461  0.081988  0.000337  1.005643  0.0
H  H30  1  0.20684616  0.53127599  0.45772094  1  0.088457  0.081971  0.000337  1.00565  0.0
H  H31  1  0.66929519  0.44116410  0.42604158  1  0.086768  0.077555  -3e-05  0.987814  0.0
H  H32  1  0.33070056  0.55883429  0.57396147  1  0.086772  0.077541  -3e-05  0.987833  0.0
H  H33  1  0.58529382  0.28144103  0.65578323  1  0.089749  0.085234  0.000448  1.023292  0.001
H  H34  1  0.41470067  0.71855630  0.34421591  1  0.08976  0.085255  0.000448  1.023273  0.001
H  H35  1  0.79464127  0.20638124  0.61539592  1  0.089875  0.090632  -1.6e-05  1.011547  0.0
H  H36  1  0.20535226  0.79361387  0.38460791  1  0.089855  0.090567  -1.6e-05  1.011626  0.0
H  H37  1  0.36145910  0.96449067  0.47322682  1  0.096863  0.099164  4.1e-05  0.997626  0.0
H  H38  1  0.63853668  0.03550557  0.52676865  1  0.096864  0.099179  4.1e-05  0.997615  0.0
H  H39  1  0.42481629  0.82785285  0.58712501  1  0.094038  0.096248  0.000137  0.99567  0.0
H  H40  1  0.57518269  0.17214995  0.41287038  1  0.094019  0.096229  0.000136  0.995693  0.0
H  H41  1  0.65479102  0.66088994  0.78741954  1  0.094574  0.092345  7.8e-05  1.036504  0.0
H  H42  1  0.34521922  0.33910500  0.21258854  1  0.094531  0.092269  7.8e-05  1.036409  0.0
H  H43  1  0.22901099  0.60122628  0.19578044  1  0.097732  0.09142  6.5e-05  1.054437  0.0
H  H44  1  0.77099757  0.39877092  0.80421947  1  0.097741  0.091391  6.5e-05  1.054478  0.0
C  C45  1  0.10012580  0.30488017  0.97437676  1  -0.075038  -0.023336  -3.6e-05  3.900987  -0.001
C  C46  1  0.89987199  0.69512262  0.02562229  1  -0.075011  -0.023275  -3.6e-05  3.900739  -0.001
C  C47  1  0.25950273  0.25758393  0.83860359  1  -0.159908  -0.231039  0.001659  3.894154  0.002
C  C48  1  0.74049490  0.74242104  0.16139764  1  -0.159926  -0.231075  0.001659  3.894066  0.002
C  C49  1  0.23656109  0.15641341  0.71822637  1  -0.000123  0.199451  0.001169  3.828003  -0.001
C  C50  1  0.76343942  0.84358824  0.28177505  1  -0.000152  0.199395  0.00117  3.828134  -0.001
C  C51  1  0.11414716  0.22448134  0.64115906  1  -0.253232  -0.444667  0.000509  3.917373  0.0
C  C52  1  0.88585099  0.77551813  0.35884209  1  -0.253201  -0.444646  0.000509  3.917345  0.0
C  C53  1  0.16154162  0.90559316  0.68214962  1  0.000398  0.092892  0.001111  3.813069  0.0
C  C54  1  0.83845875  0.09440853  0.31784641  1  0.000418  0.092788  0.001111  3.813133  0.0
C  C55  1  0.90002945  0.23192725  0.22586904  1  0.001013  0.083132  0.000154  3.811645  -0.001
C  C56  1  0.09996968  0.76807444  0.77412848  1  0.001024  0.083091  0.000154  3.811641  -0.001
C  C57  1  0.93020397  0.34804967  0.32864522  1  -0.166019  -0.205751  0.003475  3.915194  0.004
C  C58  1  0.06979424  0.65194872  0.67135376  1  -0.165986  -0.205686  0.003475  3.91514  0.004
C  C59  1  0.76873292  0.38773452  0.46757016  1  -0.165995  -0.13723  0.000686  3.9474  0.001
C  C60  1  0.23126396  0.61226496  0.53243141  1  -0.166026  -0.137249  0.000686  3.947428  0.001
C  C61  1  0.70409707  0.25165451  0.56008901  1  -0.169678  -0.147705  0.000916  3.933641  0.001
C  C62  1  0.29589982  0.74834498  0.43991256  1  -0.16964  -0.147628  0.000916  3.933696  0.001
C  C63  1  0.32231033  0.86613491  0.54234870  1  -0.166267  -0.209907  0.004255  3.915982  0.004
C  C64  1  0.67768645  0.13386460  0.45764856  1  -0.166263  -0.209906  0.004256  3.915946  0.004
C  C65  1  0.58862056  0.58882063  0.88020290  1  -0.094932  -0.109618  7.3e-05  4.003384  0.0
C  C66  1  0.41139284  0.41118087  0.11980403  1  -0.094775  -0.109376  7.3e-05  4.003256  0.0
C  C67  1  0.34782496  0.55571821  0.11036822  1  -0.093782  -0.113949  0.000281  4.013272  0.0
C  C68  1  0.65219011  0.44427890  0.88963714  1  -0.093669  -0.113795  0.000281  4.012869  0.0
C  C69  1  0.43586825  0.64666160  0.99083180  1  -0.024022  -0.037255  2.7e-05  3.969906  0.0
C  C70  1  0.56414149  0.35333775  0.00917311  1  -0.024117  -0.037356  2.7e-05  3.969655  0.0
C  C71  1  0.36760862  0.80409122  0.97870698  1  0.184028  0.548507  -0.000592  4.277124  0.0
C  C72  1  0.63239613  0.19590493  0.02128986  1  0.184078  0.548522  -0.000592  4.276979  0.0
N  N73  1  0.05044388  0.18677744  0.08837759  1  -0.490135  -0.328414  0.064871  3.502672  0.082
N  N74  1  0.94955526  0.81322424  0.91161993  1  -0.490223  -0.328645  0.064875  3.502765  0.082
N  N75  1  0.18776142  0.01243769  0.78867430  1  -0.494997  -0.383236  0.068852  3.418806  0.087
N  N76  1  0.81224038  0.98756287  0.21132345  1  -0.494976  -0.383152  0.068852  3.418755  0.087
O  O77  1  0.45359566  0.87629774  0.86279695  1  -0.3524  -0.571947  -0.000224  2.125391  0.0
O  O78  1  0.54641310  0.12369619  0.13719860  1  -0.352466  -0.572056  -0.000225  2.12533  0.0
O  O79  1  0.22686550  0.85053379  0.08045047  1  -0.348627  -0.605345  -0.001317  2.203745  0.0
O  O80  1  0.77313732  0.14945687  0.91955036  1  -0.348612  -0.605268  -0.001317  2.203876  0.0
