# generated using pymatgen
data_MnH10C15SN3O4
_symmetry_space_group_name_H-M   'P 1'
_cell_length_a   8.42169966
_cell_length_b   9.40828197
_cell_length_c   10.29753883
_cell_angle_alpha   62.89028947
_cell_angle_beta   72.58609534
_cell_angle_gamma   67.86374931
_symmetry_Int_Tables_number   1
_chemical_formula_structural   MnH10C15SN3O4
_chemical_formula_sum   'Mn2 H20 C30 S2 N6 O8'
_cell_volume   664.63962280
_cell_formula_units_Z   2
loop_
 _symmetry_equiv_pos_site_id
 _symmetry_equiv_pos_as_xyz
  1  'x, y, z'
loop_
 _atom_site_type_symbol
 _atom_site_label
 _atom_site_symmetry_multiplicity
 _atom_site_fract_x
 _atom_site_fract_y
 _atom_site_fract_z
 _atom_site_occupancy
 _atom_site_pbe_cm5_charge
 _atom_site_pbe_ddec_charge
 _atom_site_pbe_ddec_spin_density
 _atom_site_pbe_ddec_sum_bond_order
 _atom_site_pbe_magmom
Mn  Mn0  1  0.40370377  0.64239626  0.13376788  1  0.649259  0.86342  4.593378  2.500123  4.326
Mn  Mn1  1  0.59629734  0.35760359  0.86623205  1  0.649267  0.863419  4.593377  2.50012  4.326
H  H2  1  0.18196142  0.59136005  0.96958042  1  0.118745  0.082708  0.001085  1.029575  0.001
H  H3  1  0.81803968  0.40863982  0.03041853  1  0.118751  0.082725  0.001085  1.029577  0.001
H  H4  1  0.87911442  0.71888205  0.90057321  1  0.108127  0.125634  6e-05  1.029938  0.0
H  H5  1  0.12088669  0.28111780  0.09942672  1  0.108127  0.125647  6e-05  1.029909  0.0
H  H6  1  0.66407209  0.91779090  0.01142941  1  0.112855  0.115738  -0.000102  0.992305  0.0
H  H7  1  0.33592726  0.08220647  0.98857197  1  0.112857  0.115722  -0.000102  0.992329  0.0
H  H8  1  0.74956266  0.98007901  0.18716231  1  0.109264  0.125989  6e-05  1.05825  0.0
H  H9  1  0.25043830  0.01991711  0.81283918  1  0.109248  0.125988  6e-05  1.058232  0.0
H  H10  1  0.83586382  0.98137484  0.35952618  1  0.115945  0.138492  0.000342  1.02595  0.0
H  H11  1  0.16413391  0.01862379  0.64047411  1  0.11594  0.138451  0.000342  1.025961  0.0
H  H12  1  0.30068578  0.90037206  0.51474024  1  0.118726  0.137138  0.00034  1.026419  0.0
H  H13  1  0.69931159  0.09962779  0.48526060  1  0.118719  0.137178  0.00034  1.026385  0.0
H  H14  1  0.56135867  0.77971967  0.51159647  1  0.115163  0.131913  0.000269  1.03441  0.0
H  H15  1  0.43864068  0.22027770  0.48840491  1  0.11515  0.131872  0.000269  1.034428  0.0
H  H16  1  0.85776329  0.58981825  0.52510804  1  0.107416  0.10228  0.000694  1.032616  0.0
H  H17  1  0.14223532  0.41018161  0.47489249  1  0.107413  0.102264  0.000694  1.032639  0.0
H  H18  1  0.97530875  0.40861096  0.37286096  1  0.108278  0.124654  0.000282  1.025663  0.0
H  H19  1  0.02468987  0.59138890  0.62713957  1  0.108265  0.124649  0.000282  1.025672  0.0
H  H20  1  0.77751671  0.42577591  0.22626448  1  0.119309  0.087917  0.000676  1.008711  0.001
H  H21  1  0.22248191  0.57422394  0.77373605  1  0.119306  0.08791  0.000676  1.008721  0.001
C  C22  1  0.08161481  0.67924390  0.01333565  1  0.053971  0.103006  0.012648  3.94527  0.01
C  C23  1  0.91838630  0.32075595  0.98666428  1  0.053963  0.102981  0.012648  3.94531  0.01
C  C24  1  0.91519585  0.74926459  0.97626659  1  -0.081909  -0.132499  -0.000507  3.942062  0.0
C  C25  1  0.08480562  0.25073403  0.02373279  1  -0.081928  -0.13255  -0.000507  3.942116  0.0
C  C26  1  0.79509363  0.86027314  0.03852574  1  -0.063999  -0.014108  0.010419  3.935804  0.008
C  C27  1  0.20490660  0.13972547  0.96147491  1  -0.063984  -0.014041  0.010419  3.935807  0.008
C  C28  1  0.84341413  0.89575930  0.13606542  1  -0.076625  -0.152522  -0.000859  3.916138  -0.001
C  C29  1  0.15658647  0.10423807  0.86393565  1  -0.07661  -0.152565  -0.000859  3.916118  -0.001
C  C30  1  0.01315674  0.82028367  0.16748293  1  0.118523  0.15711  0.010138  3.990045  0.008
C  C31  1  0.98684313  0.17971619  0.83251730  1  0.118538  0.157158  0.010138  3.990036  0.008
C  C32  1  0.07910471  0.84895495  0.26886315  1  0.128235  0.184541  0.015419  4.012498  0.012
C  C33  1  0.92089551  0.15104366  0.73113750  1  0.128242  0.184522  0.015419  4.012516  0.012
C  C34  1  0.97528091  0.93361312  0.36019222  1  -0.065159  -0.184312  0.001209  3.838673  0.0
C  C35  1  0.02471771  0.06638675  0.63980734  1  -0.065151  -0.18425  0.001209  3.838685  0.0
C  C36  1  0.05272495  0.95568996  0.45071470  1  0.01871  0.120049  0.015013  3.932971  0.011
C  C37  1  0.94727366  0.04430991  0.54928486  1  0.018729  0.12008  0.015013  3.933019  0.011
C  C38  1  0.23303773  0.88826543  0.44699402  1  -0.061849  -0.173331  0.001155  3.849938  0.0
C  C39  1  0.76695964  0.11173444  0.55300584  1  -0.061889  -0.173448  0.001155  3.849984  0.0
C  C40  1  0.32731120  0.79851091  0.35818960  1  0.131688  0.190347  0.01522  3.996316  0.012
C  C41  1  0.67268830  0.20149019  0.64181021  1  0.131722  0.190386  0.01522  3.996337  0.012
C  C42  1  0.51172894  0.70215530  0.36241395  1  0.127359  0.171258  0.008474  3.961136  0.007
C  C43  1  0.48826968  0.29784455  0.63758659  1  0.127347  0.171188  0.008474  3.961163  0.007
C  C44  1  0.61242666  0.69980359  0.44961267  1  -0.068537  -0.130183  0.001544  3.884489  0.0
C  C45  1  0.38757372  0.30019876  0.55038544  1  -0.06851  -0.130099  0.001544  3.884432  0.0
C  C46  1  0.78043073  0.59302301  0.45560049  1  -0.065703  -0.028154  0.009297  3.95101  0.006
C  C47  1  0.21956664  0.40697687  0.54439840  1  -0.065687  -0.028106  0.009297  3.95092  0.006
C  C48  1  0.84445855  0.49311726  0.37406074  1  -0.082498  -0.132878  0.001164  3.957045  0.001
C  C49  1  0.15554095  0.50688385  0.62593907  1  -0.082526  -0.132956  0.001164  3.95708  0.001
C  C50  1  0.73593862  0.50371479  0.28930805  1  0.055714  0.105116  0.009144  3.951072  0.007
C  C51  1  0.26406125  0.49628507  0.71069218  1  0.055713  0.105127  0.009144  3.95112  0.007
S  S52  1  0.44403418  0.25141144  0.20622506  1  0.567314  1.407102  0.020713  6.38171  0.014
S  S53  1  0.55596620  0.74859090  0.79377500  1  0.567302  1.407008  0.020714  6.381759  0.014
N  N54  1  0.13071227  0.71466979  0.10517697  1  -0.321207  -0.284895  0.040298  3.517334  0.019
N  N55  1  0.86928920  0.28532883  0.89482240  1  -0.32121  -0.284887  0.040298  3.517312  0.019
N  N56  1  0.25131093  0.78277012  0.26946811  1  -0.326849  -0.333664  0.044748  3.556208  0.021
N  N57  1  0.74868893  0.21722974  0.73053212  1  -0.326858  -0.33366  0.044747  3.556227  0.021
N  N58  1  0.57408978  0.60556976  0.28278248  1  -0.31874  -0.281223  0.041898  3.507103  0.026
N  N59  1  0.42590971  0.39443134  0.71721733  1  -0.318721  -0.281173  0.041897  3.507073  0.026
O  O60  1  0.25683660  0.28988446  0.25947300  1  -0.359575  -0.652607  0.006707  2.140223  0.007
O  O61  1  0.74316429  0.71012035  0.74052689  1  -0.359592  -0.652588  0.006707  2.140189  0.007
O  O62  1  0.50960103  0.39908985  0.16447406  1  -0.370192  -0.68406  0.065944  2.393774  0.042
O  O63  1  0.49040095  0.60091125  0.83552417  1  -0.37017  -0.684  0.065942  2.393728  0.042
O  O64  1  0.54658097  0.10470891  0.31398654  1  -0.352119  -0.635436  0.008112  2.16919  0.01
O  O65  1  0.45342190  0.89529342  0.68601291  1  -0.352111  -0.635385  0.008113  2.169125  0.01
O  O66  1  0.51986531  0.77669166  0.93631307  1  -0.369647  -0.65455  0.065016  2.292285  0.045
O  O67  1  0.48013455  0.22330820  0.06368716  1  -0.369645  -0.654559  0.065018  2.29226  0.045
