# generated using pymatgen
data_Hg2H9C7NCl4
_symmetry_space_group_name_H-M   'P 1'
_cell_length_a   3.98512370
_cell_length_b   16.35523230
_cell_length_c   20.10253138
_cell_angle_alpha   89.99975037
_cell_angle_beta   90.00101267
_cell_angle_gamma   86.39997409
_symmetry_Int_Tables_number   1
_chemical_formula_structural   Hg2H9C7NCl4
_chemical_formula_sum   'Hg8 H36 C28 N4 Cl16'
_cell_volume   1307.64974165
_cell_formula_units_Z   4
loop_
 _symmetry_equiv_pos_site_id
 _symmetry_equiv_pos_as_xyz
  1  'x, y, z'
loop_
 _atom_site_type_symbol
 _atom_site_label
 _atom_site_symmetry_multiplicity
 _atom_site_fract_x
 _atom_site_fract_y
 _atom_site_fract_z
 _atom_site_occupancy
 _atom_site_pbe_bader_charge
 _atom_site_pbe_bader_spin_density
 _atom_site_pbe_cm5_charge
 _atom_site_pbe_ddec_charge
 _atom_site_pbe_ddec_spin_density
 _atom_site_pbe_ddec_sum_bond_order
 _atom_site_pbe_magmom
Hg  Hg0  1  0.99999458  0.49999947  0.00001207  1  0.891865  0  0.570564  0.615436  0  2.542714  0
Hg  Hg1  1  0.00003341  0.99999881  0.49998930  1  0.891799  0  0.570526  0.615392  0  2.542524  0
Hg  Hg2  1  0.45034965  0.78034816  0.04889363  1  0.826896  0  0.443186  0.606541  0  2.704927  0
Hg  Hg3  1  0.54962161  0.71964755  0.54888498  1  0.826908  0  0.443223  0.606652  0  2.704774  0
Hg  Hg4  1  0.54961444  0.21965206  0.95111167  1  0.826861  0  0.44319  0.606573  0  2.70484  0
Hg  Hg5  1  0.45035425  0.28034593  0.45110291  1  0.826907  0  0.443159  0.606522  0  2.704922  0
Hg  Hg6  1  0.00000611  0.00000551  0.00000298  1  0.829459  0  0.451004  0.590861  0  2.685396  0
Hg  Hg7  1  0.99999316  0.50000384  0.49999288  1  0.829411  0  0.45101  0.590887  0  2.685406  0
H  H8  1  0.20344749  0.34674751  0.08340660  1  0.107925  0  0.098601  0.090539  0  1.048109  0
H  H9  1  0.79651726  0.15324614  0.58339861  1  0.107196  0  0.09867  0.090625  0  1.048272  0
H  H10  1  0.79648368  0.65324413  0.91661014  1  0.107306  0  0.098718  0.090749  0  1.048086  0
H  H11  1  0.20347381  0.84674672  0.41658580  1  0.107933  0  0.098667  0.09064  0  1.048169  0
H  H12  1  0.09736379  0.40691307  0.29168724  1  0.127566  0  0.093881  0.118075  0  1.022535  0
H  H13  1  0.90268137  0.09308086  0.79168391  1  0.127596  0  0.093857  0.1182  0  1.021856  0
H  H14  1  0.90260688  0.59309083  0.70832751  1  0.127797  0  0.093882  0.118185  0  1.022069  0
H  H15  1  0.09735673  0.90692426  0.20830198  1  0.127333  0  0.093827  0.117939  0  1.022285  0
H  H16  1  0.84754512  0.58183155  0.13576679  1  0.140042  0  0.099879  0.092197  0  1.048583  0
H  H17  1  0.15250705  0.91817913  0.63574566  1  0.139789  0  0.099813  0.092109  0  1.04876  0
H  H18  1  0.15243699  0.41817663  0.86425442  1  0.139848  0  0.099844  0.09215  0  1.048805  0
H  H19  1  0.84755757  0.08182047  0.36423676  1  0.140475  0  0.099825  0.092163  0  1.048922  0
H  H20  1  0.39653221  0.24640768  0.16318015  1  0.032201  0  0.08749  0.136448  0  1.005961  0
H  H21  1  0.60346739  0.25359168  0.66317313  1  0.032078  0  0.087486  0.136389  0  1.005974  0
H  H22  1  0.60344237  0.75360050  0.83683759  1  0.032024  0  0.087451  0.136394  0  1.006069  0
H  H23  1  0.39654139  0.74641037  0.33680730  1  0.032335  0  0.087434  0.13646  0  1.005737  0
H  H24  1  0.10868348  0.24478105  0.23072549  1  0.060732  0  0.087818  0.13521  0  1.021515  0
H  H25  1  0.89132084  0.25520920  0.73072619  1  0.061082  0  0.087786  0.135123  0  1.021496  0
H  H26  1  0.89128752  0.75521182  0.76928279  1  0.0611  0  0.087819  0.135111  0  1.021471  0
H  H27  1  0.10868638  0.74478918  0.26926319  1  0.060839  0  0.087818  0.135207  0  1.021445  0
H  H28  1  0.51005324  0.28114057  0.24392659  1  0.068252  0  0.082436  0.129184  0  1.04293  0
H  H29  1  0.48992914  0.21884306  0.74391630  1  0.06848  0  0.082467  0.129169  0  1.042901  0
H  H30  1  0.48987432  0.71885535  0.75609214  1  0.06843  0  0.082436  0.129201  0  1.042839  0
H  H31  1  0.51004908  0.78115103  0.25606562  1  0.068204  0  0.082443  0.1292  0  1.042893  0
H  H32  1  0.75219608  0.62341125  0.24779354  1  0.028865  0  0.091591  0.135188  0  1.007155  0
H  H33  1  0.24789661  0.87658709  0.74777577  1  0.028336  0  0.09151  0.135157  0  1.007277  0
H  H34  1  0.24783872  0.37659694  0.75222071  1  0.028818  0  0.091527  0.135219  0  1.007132  0
H  H35  1  0.75218933  0.12341742  0.25220914  1  0.028602  0  0.091619  0.135318  0  1.007338  0
H  H36  1  0.05485042  0.58025920  0.30514838  1  0.045914  0  0.088192  0.136239  0  1.016063  0
H  H37  1  0.94525953  0.91973543  0.80513683  1  0.046382  0  0.088174  0.136148  0  1.015717  0
H  H38  1  0.94518124  0.41975143  0.69486339  1  0.045901  0  0.088162  0.136268  0  1.015927  0
H  H39  1  0.05481417  0.08026785  0.19485653  1  0.046227  0  0.088248  0.13635  0  1.015979  0
H  H40  1  0.64741049  0.54490078  0.30402421  1  0.061136  0  0.083175  0.136819  0  1.030551  0
H  H41  1  0.35268191  0.95510303  0.80400009  1  0.061241  0  0.083143  0.136795  0  1.030529  0
H  H42  1  0.35259543  0.45512210  0.69599899  1  0.061475  0  0.08323  0.13687  0  1.030399  0
H  H43  1  0.64738628  0.04491190  0.19598034  1  0.061243  0  0.083196  0.136909  0  1.030497  0
C  C44  1  0.13652392  0.38882851  0.12401053  1  0.467819  0  0.034997  -0.000411  0  3.893083  0
C  C45  1  0.86347103  0.11117229  0.62399241  1  0.469493  0  0.034836  -0.000667  0  3.893806  0
C  C46  1  0.86340284  0.61117048  0.87601168  1  0.469141  0  0.034891  -0.000809  0  3.893343  0
C  C47  1  0.13655814  0.88882854  0.37599001  1  0.468551  0  0.034832  -0.000722  0  3.893378  0
C  C48  1  0.17099528  0.36500220  0.19051830  1  0.028822  0  0.001368  0.153888  0  3.961147  0
C  C49  1  0.82900771  0.13499560  0.69049674  1  0.027907  0  0.001408  0.153921  0  3.961169  0
C  C50  1  0.82894168  0.63499618  0.80950839  1  0.02826  0  0.001378  0.154018  0  3.96123  0
C  C51  1  0.17102318  0.86500829  0.30948020  1  0.029307  0  0.001401  0.154056  0  3.960898  0
C  C52  1  0.07683248  0.42339664  0.23915788  1  -0.069478  0  -0.067494  -0.15014  0  3.836954  0
C  C53  1  0.92317226  0.07659552  0.73913347  1  -0.069188  0  -0.067562  -0.15045  0  3.835936  0
C  C54  1  0.92313584  0.57660664  0.76087129  1  -0.069209  0  -0.067593  -0.150417  0  3.836566  0
C  C55  1  0.07684169  0.92340592  0.26084397  1  -0.069246  0  -0.067489  -0.150024  0  3.836832  0
C  C56  1  0.95494472  0.50260347  0.22129407  1  -0.000307  0  1.9e-05  0.150271  0  3.969093  0
C  C57  1  0.04509827  0.99738174  0.72126997  1  2.6e-05  0  6e-05  0.150216  0  3.969084  0
C  C58  1  0.04502235  0.49739491  0.77872566  1  -6.3e-05  0  5.5e-05  0.150297  0  3.969207  0
C  C59  1  0.95494660  0.00260684  0.27870548  1  -0.000107  0  8.2e-05  0.150267  0  3.969107  0
C  C60  1  0.93586731  0.52122939  0.15354423  1  0.44743  0  0.035582  -0.001211  0  3.894023  0
C  C61  1  0.06417016  0.97876800  0.65351946  1  0.447444  0  0.035767  -0.000945  0  3.893947  0
C  C62  1  0.06409255  0.47876777  0.84648246  1  0.447747  0  0.035675  -0.001098  0  3.89365  0
C  C63  1  0.93586920  0.02123222  0.34646345  1  0.446932  0  0.035626  -0.001187  0  3.894303  0
C  C64  1  0.30462487  0.27972018  0.20758811  1  -0.054142  0  -0.243123  -0.417326  0  3.932443  0
C  C65  1  0.69538028  0.22026677  0.70757487  1  -0.054069  0  -0.243097  -0.417136  0  3.932707  0
C  C66  1  0.69533861  0.72027269  0.79243211  1  -0.054424  0  -0.243059  -0.417194  0  3.932638  0
C  C67  1  0.30462020  0.77972855  0.29240406  1  -0.054119  0  -0.243077  -0.417411  0  3.932122  0
C  C68  1  0.84685335  0.56641276  0.27192190  1  -0.029807  0  -0.241055  -0.415522  0  3.92896  0
C  C69  1  0.15323642  0.93358765  0.77189705  1  -0.029374  0  -0.240925  -0.415362  0  3.929049  0
C  C70  1  0.15315573  0.43359787  0.72810230  1  -0.02932  0  -0.241015  -0.415689  0  3.92915  0
C  C71  1  0.84683084  0.06642114  0.22808536  1  -0.030003  0  -0.24114  -0.41587  0  3.929248  0
N  N72  1  0.02395342  0.46510148  0.10678412  1  -1.206796  0  -0.308341  -0.138423  0  3.633484  0
N  N73  1  0.97603733  0.03490834  0.60677490  1  -1.208139  0  -0.3083  -0.138237  0  3.633284  0
N  N74  1  0.97598228  0.53490180  0.89323112  1  -1.208529  0  -0.308299  -0.138155  0  3.632833  0
N  N75  1  0.02398149  0.96509372  0.39321349  1  -1.208368  0  -0.308279  -0.138258  0  3.633775  0
Cl  Cl76  1  0.46369152  0.61819678  0.02800544  1  -0.569022  0  -0.291622  -0.470894  0  1.472042  0
Cl  Cl77  1  0.53632205  0.88180118  0.52799037  1  -0.569036  0  -0.291647  -0.470908  0  1.47188  0
Cl  Cl78  1  0.53627853  0.38179976  0.97201080  1  -0.569013  0  -0.291634  -0.470885  0  1.47192  0
Cl  Cl79  1  0.46372094  0.11819475  0.47199404  1  -0.568781  0  -0.291604  -0.470849  0  1.472003  0
Cl  Cl80  1  0.08616347  0.82245562  0.95721524  1  -0.465423  0  -0.24398  -0.352231  0  1.39986  0
Cl  Cl81  1  0.91374659  0.67754177  0.45719783  1  -0.465336  0  -0.243949  -0.352241  0  1.399736  0
Cl  Cl82  1  0.91377334  0.17754337  0.04279652  1  -0.46533  0  -0.243939  -0.352198  0  1.399852  0
Cl  Cl83  1  0.08620104  0.32245416  0.54278260  1  -0.465434  0  -0.243943  -0.352193  0  1.399839  0
Cl  Cl84  1  0.86300094  0.77310506  0.13661852  1  -0.466891  0  -0.229252  -0.3494  0  1.421727  0
Cl  Cl85  1  0.13700760  0.72689031  0.63660864  1  -0.466951  0  -0.229311  -0.349494  0  1.42174  0
Cl  Cl86  1  0.13697147  0.22689209  0.86338877  1  -0.466923  0  -0.229298  -0.349474  0  1.421757  0
Cl  Cl87  1  0.86300057  0.27310439  0.36337875  1  -0.466925  0  -0.229262  -0.349439  0  1.421728  0
Cl  Cl88  1  0.39162909  0.97172893  0.08757084  1  -0.442494  0  -0.214165  -0.328225  0  1.513681  0
Cl  Cl89  1  0.60839992  0.52827330  0.58756469  1  -0.44244  0  -0.214168  -0.328234  0  1.513652  0
Cl  Cl90  1  0.60838754  0.02827190  0.91243148  1  -0.442483  0  -0.214171  -0.328203  0  1.513601  0
Cl  Cl91  1  0.39162219  0.47172569  0.41242767  1  -0.442522  0  -0.214159  -0.328212  0  1.513684  0
