# generated using pymatgen
data_NdH11C13O7
_symmetry_space_group_name_H-M   'P 1'
_cell_length_a   7.32643306
_cell_length_b   13.18500888
_cell_length_c   13.59200000
_cell_angle_alpha   99.02637795
_cell_angle_beta   90.00000000
_cell_angle_gamma   90.00000000
_symmetry_Int_Tables_number   1
_chemical_formula_structural   NdH11C13O7
_chemical_formula_sum   'Nd4 H44 C52 O28'
_cell_volume   1296.71516677
_cell_formula_units_Z   4
loop_
 _symmetry_equiv_pos_site_id
 _symmetry_equiv_pos_as_xyz
  1  'x, y, z'
loop_
 _atom_site_type_symbol
 _atom_site_label
 _atom_site_symmetry_multiplicity
 _atom_site_fract_x
 _atom_site_fract_y
 _atom_site_fract_z
 _atom_site_occupancy
 _atom_site_hle17_bader_spin_density
 _atom_site_hle17_ddec_charge
 _atom_site_hle17_ddec_spin_density
 _atom_site_hle17_ddec_sum_bond_order
 _atom_site_hle17_magmom
 _atom_site_hse06_10hf_bader_spin_density
 _atom_site_hse06_10hf_ddec_charge
 _atom_site_hse06_10hf_ddec_spin_density
 _atom_site_hse06_10hf_ddec_sum_bond_order
 _atom_site_hse06_10hf_magmom
 _atom_site_hse06_bader_spin_density
 _atom_site_hse06_ddec_charge
 _atom_site_hse06_ddec_spin_density
 _atom_site_hse06_ddec_sum_bond_order
 _atom_site_hse06_magmom
 _atom_site_pbe_bader_charge
 _atom_site_pbe_bader_spin_density
 _atom_site_pbe_cm5_charge
 _atom_site_pbe_ddec_charge
 _atom_site_pbe_ddec_spin_density
 _atom_site_pbe_ddec_sum_bond_order
 _atom_site_pbe_magmom
Nd  Nd0  1  0.08599273  0.81427131  0.52468359  1  0  2.32973  0  1.603776  0  0  2.221168  0  1.955161  0  0  2.265958  0  1.911959  0  2.254724  0  1.482572  2.132221  0  2.089044  0
Nd  Nd1  1  0.58599321  0.68572847  0.47531619  1  0  2.329731  0  1.603788  0  0  2.221172  0  1.955177  0  0  2.265961  0  1.911975  0  2.254708  0  1.482581  2.132212  0  2.089086  0
Nd  Nd2  1  0.91400685  0.18572880  0.47531679  1  0  2.329719  0  1.60377  0  0  2.221155  0  1.955157  0  0  2.265946  0  1.911954  0  2.254774  0  1.482573  2.132218  0  2.089026  0
Nd  Nd3  1  0.41400638  0.31427087  0.52468334  1  0  2.329712  0  1.603781  0  0  2.221145  0  1.955168  0  0  2.265936  0  1.911967  0  2.254772  0  1.482565  2.132209  0  2.089033  0
H  H4  1  0.92078914  0.01085570  0.65911315  1  0  0.432438  0  0.869642  0  0  0.403159  0  0.931446  0  0  0.413573  0  0.916301  0  0.654181  0  0.298196  0.395642  0  0.942205  0
H  H5  1  0.42079003  0.48914397  0.34088625  1  0  0.432359  0  0.869755  0  0  0.403067  0  0.931582  0  0  0.413482  0  0.916437  0  0.654179  0  0.298152  0.395549  0  0.942345  0
H  H6  1  0.07921044  0.98914364  0.34088638  1  0  0.432357  0  0.869758  0  0  0.403068  0  0.931582  0  0  0.413484  0  0.916435  0  0.654174  0  0.298152  0.39555  0  0.942343  0
H  H7  1  0.57921092  0.51085537  0.65911328  1  0  0.432374  0  0.869737  0  0  0.403084  0  0.931561  0  0  0.413499  0  0.916417  0  0.654181  0  0.298149  0.395567  0  0.942323  0
H  H8  1  0.03563535  0.93146082  0.71015714  1  0  0.417481  0  0.879012  0  0  0.393013  0  0.935517  0  0  0.402833  0  0.920987  0  0.633265  0  0.301024  0.38631  0  0.945259  0
H  H9  1  0.53563582  0.56853973  0.28984276  1  0  0.417476  0  0.879023  0  0  0.393009  0  0.935524  0  0  0.402829  0  0.920993  0  0.633273  0  0.301021  0.386306  0  0.945264  0
H  H10  1  0.96436423  0.06853929  0.28984251  1  0  0.417484  0  0.878993  0  0  0.393018  0  0.935511  0  0  0.402837  0  0.920983  0  0.633272  0  0.301029  0.386314  0  0.945253  0
H  H11  1  0.46436376  0.43146038  0.71015763  1  0  0.417492  0  0.878988  0  0  0.393026  0  0.935497  0  0  0.402847  0  0.920966  0  0.633263  0  0.301024  0.386323  0  0.945237  0
H  H12  1  0.67504882  0.87652265  0.74137593  1  0  0.134722  0  0.964305  0  0  0.142657  0  1.024922  0  0  0.147013  0  1.023016  0  0.16059  0  0.108473  0.139422  0  1.026864  0
H  H13  1  0.17504835  0.62347790  0.25862397  1  0  0.134741  0  0.964275  0  0  0.142649  0  1.024913  0  0  0.147005  0  1.023007  0  0.160541  0  0.108468  0.139414  0  1.026856  0
H  H14  1  0.32495076  0.12347823  0.25862384  1  0  0.134752  0  0.964284  0  0  0.142666  0  1.024923  0  0  0.147022  0  1.023018  0  0.16054  0  0.108476  0.13943  0  1.026866  0
H  H15  1  0.82495123  0.37652144  0.74137556  1  0  0.134728  0  0.9643  0  0  0.14266  0  1.024921  0  0  0.147017  0  1.023013  0  0.160527  0  0.108471  0.139425  0  1.026864  0
H  H16  1  0.33455161  0.86149776  0.87218226  1  0  0.090463  0  0.942467  0  0  0.101709  0  1.004186  0  0  0.104542  0  1.002446  0  0.090381  0  0.10173  0.099534  0  1.005741  0
H  H17  1  0.83455072  0.63850202  0.12781752  1  0  0.090496  0  0.942479  0  0  0.101742  0  1.004193  0  0  0.104576  0  1.002453  0  0.09037  0  0.10175  0.099566  0  1.00575  0
H  H18  1  0.66545070  0.13850158  0.12781727  1  0  0.09049  0  0.942477  0  0  0.101737  0  1.004191  0  0  0.10457  0  1.002452  0  0.090362  0  0.101749  0.099562  0  1.005747  0
H  H19  1  0.16544886  0.36149809  0.87218213  1  0  0.090483  0  0.942488  0  0  0.101734  0  1.004194  0  0  0.104568  0  1.002452  0  0.090381  0  0.101733  0.099557  0  1.005751  0
H  H20  1  0.85415781  0.90427856  0.87511088  1  0  0.098612  0  0.947766  0  0  0.111475  0  1.005429  0  0  0.114533  0  1.003885  0  0.071234  0  0.105642  0.109204  0  1.006727  0
H  H21  1  0.35415733  0.59572199  0.12488976  1  0  0.098594  0  0.947753  0  0  0.111453  0  1.005426  0  0  0.114512  0  1.003881  0  0.071236  0  0.105639  0.109185  0  1.006717  0
H  H22  1  0.14584314  0.09572231  0.12489036  1  0  0.0986  0  0.947751  0  0  0.111458  0  1.005426  0  0  0.114517  0  1.003881  0  0.071235  0  0.105641  0.109191  0  1.006715  0
H  H23  1  0.64584225  0.40427889  0.87511075  1  0  0.098607  0  0.947759  0  0  0.111467  0  1.005422  0  0  0.114526  0  1.003878  0  0.071234  0  0.105644  0.109197  0  1.006722  0
H  H24  1  0.03891662  0.90192327  0.02684483  1  0  0.081033  0  0.963396  0  0  0.09287  0  1.02472  0  0  0.095443  0  1.023926  0  0.044743  0  0.097086  0.090991  0  1.025409  0
H  H25  1  0.53891709  0.59807651  0.97315495  1  0  0.081037  0  0.963384  0  0  0.092871  0  1.024715  0  0  0.095447  0  1.023918  0  0.044753  0  0.097089  0.090991  0  1.025405  0
H  H26  1  0.96108296  0.09807761  0.97315641  1  0  0.081028  0  0.963382  0  0  0.092853  0  1.024722  0  0  0.095435  0  1.023918  0  0.044758  0  0.097084  0.090975  0  1.02541  0
H  H27  1  0.46108249  0.40192360  0.02684470  1  0  0.081069  0  0.963352  0  0  0.092907  0  1.024672  0  0  0.095482  0  1.023876  0  0.044756  0  0.097112  0.091026  0  1.025364  0
H  H28  1  0.37034666  0.84721701  0.03704682  1  0  0.088624  0  0.964131  0  0  0.099419  0  1.029272  0  0  0.102266  0  1.028145  0  0.063922  0  0.10054  0.097382  0  1.030125  0
H  H29  1  0.87034577  0.65278353  0.96295381  1  0  0.088635  0  0.964182  0  0  0.099433  0  1.029312  0  0  0.102279  0  1.028186  0  0.063902  0  0.100562  0.097405  0  1.03014  0
H  H30  1  0.62965292  0.15278386  0.96295368  1  0  0.088673  0  0.964148  0  0  0.099474  0  1.029266  0  0  0.102322  0  1.02814  0  0.063916  0  0.100567  0.097439  0  1.030118  0
H  H31  1  0.12965382  0.34721504  0.03704560  1  0  0.088633  0  0.96414  0  0  0.099415  0  1.0293  0  0  0.102261  0  1.028175  0  0.063917  0  0.100552  0.097394  0  1.03011  0
H  H32  1  0.89277824  0.86848147  0.18443627  1  0  0.104449  0  0.948025  0  0  0.114152  0  1.009353  0  0  0.117533  0  1.007711  0  0.091596  0  0.104774  0.111553  0  1.010893  0
H  H33  1  0.39277640  0.63151831  0.81556352  1  0  0.104453  0  0.948047  0  0  0.114162  0  1.009356  0  0  0.11754  0  1.007723  0  0.091599  0  0.104784  0.111561  0  1.010901  0
H  H34  1  0.10722271  0.13151864  0.81556412  1  0  0.104448  0  0.948032  0  0  0.114156  0  1.009346  0  0  0.117534  0  1.007711  0  0.0916  0  0.104777  0.111557  0  1.010888  0
H  H35  1  0.60722318  0.36848180  0.18443687  1  0  0.104453  0  0.948035  0  0  0.114161  0  1.009349  0  0  0.117539  0  1.007714  0  0.091594  0  0.104782  0.111561  0  1.010891  0
H  H36  1  0.62525924  0.81283525  0.26952463  1  0  0.106373  0  0.962239  0  0  0.113153  0  1.028673  0  0  0.116418  0  1.025969  0  0.137358  0  0.114708  0.111106  0  1.029936  0
H  H37  1  0.12525741  0.68716530  0.73047600  1  0  0.10636  0  0.9622  0  0  0.11314  0  1.028646  0  0  0.116404  0  1.025946  0  0.13738  0  0.1147  0.111096  0  1.029911  0
H  H38  1  0.37474170  0.18716563  0.73047587  1  0  0.106352  0  0.962207  0  0  0.113129  0  1.028659  0  0  0.116402  0  1.025938  0  0.137376  0  0.114694  0.111086  0  1.029923  0
H  H39  1  0.87474354  0.31283481  0.26952438  1  0  0.106345  0  0.96222  0  0  0.113124  0  1.028666  0  0  0.116384  0  1.025975  0  0.137359  0  0.114697  0.11108  0  1.029933  0
H  H40  1  0.26101515  0.87985707  0.18540164  1  0  0.112271  0  0.950737  0  0  0.124935  0  1.006933  0  0  0.128565  0  1.006187  0  0.071809  0  0.104908  0.122301  0  1.007898  0
H  H41  1  0.76101426  0.62014424  0.81459911  1  0  0.112285  0  0.950775  0  0  0.12495  0  1.006966  0  0  0.12858  0  1.006219  0  0.071807  0  0.104917  0.122318  0  1.007925  0
H  H42  1  0.73898444  0.12014380  0.81459886  1  0  0.112268  0  0.950733  0  0  0.124933  0  1.006936  0  0  0.128564  0  1.006185  0  0.071818  0  0.104896  0.122294  0  1.007912  0
H  H43  1  0.23898533  0.37985587  0.18540128  1  0  0.112265  0  0.95076  0  0  0.124932  0  1.006954  0  0  0.128563  0  1.006205  0  0.071811  0  0.10491  0.122296  0  1.007921  0
H  H44  1  0.44025653  0.06058182  0.56692824  1  0  0.01654  0  0.922614  0  0  0.026894  0  0.989055  0  0  0.026687  0  0.985706  0  0.112339  0  0.12658  0.02659  0  0.992106  0
H  H45  1  0.94025700  0.43941862  0.43307275  1  0  0.016525  0  0.922596  0  0  0.02689  0  0.989033  0  0  0.026684  0  0.98568  0  0.11233  0  0.126571  0.026585  0  0.992087  0
H  H46  1  0.55974305  0.93941829  0.43307141  1  0  0.016486  0  0.922646  0  0  0.026847  0  0.989089  0  0  0.02664  0  0.98574  0  0.112178  0  0.126579  0.026543  0  0.992141  0
H  H47  1  0.05974258  0.56058072  0.56692752  1  0  0.016485  0  0.922611  0  0  0.026852  0  0.98906  0  0  0.026645  0  0.985709  0  0.112177  0  0.126554  0.026547  0  0.992115  0
C  C48  1  0.40107512  0.84803872  0.68136699  1  0  0.732806  0  3.887423  0  0  0.6882  0  4.180785  0  0  0.724546  0  4.168758  0  1.498023  0  0.213391  0.663946  0  4.182315  0
C  C49  1  0.90107423  0.65196106  0.31863279  1  0  0.732812  0  3.887393  0  0  0.688191  0  4.180759  0  0  0.724532  0  4.168737  0  1.498001  0  0.213387  0.663936  0  4.182289  0
C  C50  1  0.59892583  0.15196139  0.31863339  1  0  0.732823  0  3.887384  0  0  0.68821  0  4.180747  0  0  0.724551  0  4.168725  0  1.497848  0  0.213388  0.663956  0  4.182277  0
C  C51  1  0.09892536  0.34803905  0.68136612  1  0  0.732823  0  3.887351  0  0  0.688241  0  4.180679  0  0  0.724569  0  4.168676  0  1.498011  0  0.213413  0.663988  0  4.18221  0
C  C52  1  0.53337688  0.86858130  0.76363333  1  0  -0.231514  0  3.635167  0  0  -0.246352  0  3.890001  0  0  -0.259197  0  3.907769  0  -0.12303  0  -0.096795  -0.238445  0  3.879052  0
C  C53  1  0.03337504  0.63141847  0.23636645  1  0  -0.231674  0  3.635186  0  0  -0.246444  0  3.889982  0  0  -0.259289  0  3.90775  0  -0.122972  0  -0.096828  -0.238539  0  3.879034  0
C  C54  1  0.46662543  0.13141880  0.23636632  1  0  -0.23164  0  3.63515  0  0  -0.246435  0  3.889965  0  0  -0.259279  0  3.907733  0  -0.122952  0  -0.096809  -0.238528  0  3.879016  0
C  C55  1  0.96662318  0.36858087  0.76363308  1  0  -0.231535  0  3.635135  0  0  -0.246375  0  3.889964  0  0  -0.259213  0  3.907734  0  -0.122965  0  -0.096809  -0.238469  0  3.879014  0
C  C56  1  0.48052306  0.87040057  0.85886018  1  0  -0.033157  0  3.729522  0  0  -0.05818  0  3.982228  0  0  -0.054579  0  4.002129  0  -0.029665  0  -0.071533  -0.06045  0  3.969171  0
C  C57  1  0.98052216  0.62959998  0.14114046  1  0  -0.03306  0  3.729431  0  0  -0.058105  0  3.982124  0  0  -0.054504  0  4.002022  0  -0.029667  0  -0.071502  -0.060377  0  3.969071  0
C  C58  1  0.51947789  0.12960031  0.14114032  1  0  -0.033063  0  3.729454  0  0  -0.058097  0  3.982151  0  0  -0.054495  0  4.002049  0  -0.029669  0  -0.071503  -0.060369  0  3.969095  0
C  C59  1  0.01947605  0.37039937  0.85885981  1  0  -0.033203  0  3.729525  0  0  -0.058231  0  3.982241  0  0  -0.054632  0  4.00214  0  -0.029658  0  -0.071539  -0.060503  0  3.969187  0
C  C60  1  0.59745581  0.87676301  0.94621460  1  0  0.072757  0  3.839523  0  0  0.092908  0  4.072628  0  0  0.091034  0  4.098164  0  0.017047  0  -0.013287  0.094062  0  4.05517  0
C  C61  1  0.09745534  0.62323753  0.05378530  1  0  0.072738  0  3.83951  0  0  0.092889  0  4.072628  0  0  0.091017  0  4.098161  0  0.017065  0  -0.013287  0.094043  0  4.05517  0
C  C62  1  0.40254377  0.12323786  0.05378590  1  0  0.072788  0  3.839431  0  0  0.09294  0  4.072546  0  0  0.091067  0  4.098079  0  0.017053  0  -0.013258  0.094096  0  4.055085  0
C  C63  1  0.90254561  0.37676181  0.94621497  1  0  0.072817  0  3.83951  0  0  0.092965  0  4.072626  0  0  0.091094  0  4.098158  0  0.01706  0  -0.013262  0.094118  0  4.055168  0
C  C64  1  0.78789364  0.89247752  0.94425291  1  0  -0.098963  0  3.696211  0  0  -0.119297  0  3.940793  0  0  -0.121057  0  3.961873  0  0.000646  0  -0.081502  -0.117843  0  3.92633  0
C  C65  1  0.28789316  0.60752303  0.05574699  1  0  -0.098936  0  3.696242  0  0  -0.119266  0  3.940819  0  0  -0.121028  0  3.961901  0  0.000647  0  -0.081498  -0.117813  0  3.926358  0
C  C66  1  0.21210731  0.10752336  0.05574685  1  0  -0.098951  0  3.696369  0  0  -0.119281  0  3.940948  0  0  -0.121043  0  3.962031  0  0.000634  0  -0.081498  -0.117829  0  3.926487  0
C  C67  1  0.71210642  0.39247631  0.94425255  1  0  -0.098948  0  3.696285  0  0  -0.119278  0  3.940872  0  0  -0.12104  0  3.961953  0  0.000644  0  -0.081507  -0.117826  0  3.926408  0
C  C68  1  0.89177229  0.89040329  0.02971858  1  0  -0.070868  0  3.808167  0  0  -0.084251  0  4.062941  0  0  -0.087162  0  4.085755  0  -0.089977  0  -0.091544  -0.082247  0  4.047303  0
C  C69  1  0.39177045  0.60959726  0.97028132  1  0  -0.070867  0  3.808206  0  0  -0.084252  0  4.062983  0  0  -0.087164  0  4.085796  0  -0.089941  0  -0.09155  -0.082247  0  4.047342  0
C  C70  1  0.10822866  0.10959758  0.97028266  1  0  -0.070881  0  3.808284  0  0  -0.084256  0  4.063058  0  0  -0.087174  0  4.085869  0  -0.08995  0  -0.091561  -0.082253  0  4.047419  0
C  C71  1  0.60823049  0.39040285  0.02971833  1  0  -0.070909  0  3.808239  0  0  -0.084295  0  4.063019  0  0  -0.087207  0  4.085832  0  -0.089948  0  -0.091558  -0.08229  0  4.047379  0
C  C72  1  0.51688454  0.86136030  0.03613133  1  0  -0.138555  0  3.688347  0  0  -0.163293  0  3.926594  0  0  -0.166336  0  3.949301  0  -0.093997  0  -0.077496  -0.16099  0  3.911054  0
C  C73  1  0.01688270  0.63864102  0.96386943  1  0  -0.138577  0  3.68845  0  0  -0.163323  0  3.926694  0  0  -0.166367  0  3.9494  0  -0.094019  0  -0.077517  -0.161015  0  3.911159  0
C  C74  1  0.48311640  0.13864058  0.96386917  1  0  -0.138723  0  3.688308  0  0  -0.16346  0  3.926576  0  0  -0.166504  0  3.949281  0  -0.094003  0  -0.077584  -0.161154  0  3.911036  0
C  C75  1  0.98311415  0.36135679  0.03613061  1  0  -0.138611  0  3.688403  0  0  -0.163351  0  3.926643  0  0  -0.166395  0  3.949349  0  -0.094013  0  -0.077531  -0.16104  0  3.911112  0
C  C76  1  0.81011045  0.87245560  0.11829007  1  0  -0.099947  0  3.687664  0  0  -0.12106  0  3.934553  0  0  -0.122687  0  3.954875  0  -0.008139  0  -0.081917  -0.119732  0  3.920873  0
C  C77  1  0.31010998  0.62754572  0.88170995  1  0  -0.099974  0  3.687669  0  0  -0.121089  0  3.934554  0  0  -0.122719  0  3.954876  0  -0.008293  0  -0.081939  -0.119758  0  3.920874  0
C  C78  1  0.18988913  0.12754605  0.88171055  1  0  -0.099943  0  3.687559  0  0  -0.121045  0  3.934442  0  0  -0.122675  0  3.954771  0  -0.008221  0  -0.08191  -0.119715  0  3.920764  0
C  C79  1  0.68988960  0.37245362  0.11828958  1  0  -0.099959  0  3.687671  0  0  -0.121085  0  3.934551  0  0  -0.122713  0  3.954873  0  -0.008132  0  -0.081939  -0.119752  0  3.920871  0
C  C80  1  0.61997564  0.85855191  0.12269038  1  0  0.077318  0  3.825817  0  0  0.09797  0  4.058065  0  0  0.095734  0  4.083281  0  0.003651  0  -0.010446  0.099324  0  4.04095  0
C  C81  1  0.11997380  0.64144863  0.87730952  1  0  0.077319  0  3.825744  0  0  0.097984  0  4.057974  0  0  0.095752  0  4.083186  0  0.003729  0  -0.010429  0.099327  0  4.040878  0
C  C82  1  0.38002668  0.14144896  0.87730939  1  0  0.077416  0  3.825634  0  0  0.098051  0  4.057917  0  0  0.095816  0  4.083132  0  0.003766  0  -0.010382  0.099397  0  4.040816  0
C  C83  1  0.88002578  0.35855071  0.12269075  1  0  0.077309  0  3.825797  0  0  0.098  0  4.057987  0  0  0.095768  0  4.083198  0  0.003541  0  -0.010414  0.09934  0  4.040895  0
C  C84  1  0.53495746  0.83918275  0.21482790  1  0  -0.011907  0  3.682068  0  0  -0.037207  0  3.931169  0  0  -0.031172  0  3.947483  0  -0.037372  0  -0.058116  -0.04106  0  3.920371  0
C  C85  1  0.03495425  0.66081857  0.78517211  1  0  -0.011836  0  3.682036  0  0  -0.037138  0  3.931132  0  0  -0.031106  0  3.947446  0  -0.037286  0  -0.058106  -0.040994  0  3.920343  0
C  C86  1  0.46504349  0.16081813  0.78517260  1  0  -0.011861  0  3.682067  0  0  -0.03716  0  3.931183  0  0  -0.031127  0  3.947502  0  -0.037411  0  -0.058121  -0.041014  0  3.920388  0
C  C87  1  0.96504396  0.33918154  0.21482753  1  0  -0.0118  0  3.681935  0  0  -0.037102  0  3.931023  0  0  -0.03107  0  3.947334  0  -0.03727  0  -0.058084  -0.040958  0  3.920236  0
C  C88  1  0.35561916  0.85058446  0.23616732  1  0  -0.241953  0  3.668816  0  0  -0.254075  0  3.922073  0  0  -0.267918  0  3.940453  0  -0.07971  0  -0.097636  -0.245601  0  3.910905  0
C  C89  1  0.85561827  0.64941685  0.76383343  1  0  -0.242033  0  3.668962  0  0  -0.254165  0  3.922231  0  0  -0.268008  0  3.94061  0  -0.079735  0  -0.097658  -0.245691  0  3.911067  0
C  C90  1  0.64438042  0.14941641  0.76383318  1  0  -0.242024  0  3.668807  0  0  -0.254153  0  3.922088  0  0  -0.267997  0  3.940469  0  -0.079705  0  -0.097657  -0.24568  0  3.910918  0
C  C91  1  0.14438131  0.35058326  0.23616622  1  0  -0.241979  0  3.668776  0  0  -0.254113  0  3.922056  0  0  -0.267956  0  3.940435  0  -0.079726  0  -0.097657  -0.24564  0  3.91089  0
C  C92  1  0.27333083  0.83085436  0.32979053  1  0  0.718687  0  3.895517  0  0  0.674694  0  4.187066  0  0  0.710269  0  4.176888  0  1.501306  0  0.212332  0.65079  0  4.188048  0
C  C93  1  0.77332993  0.66914618  0.67020937  1  0  0.718707  0  3.895511  0  0  0.674724  0  4.187043  0  0  0.7103  0  4.176865  0  1.501499  0  0.212324  0.650821  0  4.188027  0
C  C94  1  0.72667012  0.16914575  0.67020838  1  0  0.718744  0  3.895453  0  0  0.674754  0  4.187006  0  0  0.710329  0  4.176829  0  1.501579  0  0.212332  0.650852  0  4.18799  0
C  C95  1  0.22667101  0.33085469  0.32979113  1  0  0.71869  0  3.895535  0  0  0.674701  0  4.187082  0  0  0.710277  0  4.176903  0  1.501324  0  0.212312  0.650799  0  4.188066  0
C  C96  1  0.29579879  0.06548286  0.54481510  1  0  0.675419  0  3.816585  0  0  0.607113  0  4.126899  0  0  0.641865  0  4.113181  0  1.559071  0  0.184011  0.583207  0  4.129877  0
C  C97  1  0.79579789  0.43451681  0.45518430  1  0  0.675504  0  3.816563  0  0  0.607195  0  4.126872  0  0  0.64195  0  4.113149  0  1.559072  0  0.18404  0.583291  0  4.129851  0
C  C98  1  0.70420080  0.93451725  0.45518455  1  0  0.675629  0  3.81651  0  0  0.607303  0  4.126851  0  0  0.642054  0  4.113133  0  1.559051  0  0.18408  0.583397  0  4.129831  0
C  C99  1  0.20420305  0.56548253  0.54481597  1  0  0.675667  0  3.81652  0  0  0.607342  0  4.126845  0  0  0.642096  0  4.113121  0  1.559085  0  0.184109  0.583438  0  4.129825  0
O  O100  1  0.22950322  0.84531942  0.69872241  1  0  -0.737291  0  2.020338  0  0  -0.681313  0  2.252484  0  0  -0.706692  0  2.240759  0  -1.194562  0  -0.37179  -0.658654  0  2.260325  0
O  O101  1  0.72950233  0.65468036  0.30127810  1  0  -0.737288  0  2.020316  0  0  -0.68132  0  2.252478  0  0  -0.706697  0  2.240754  0  -1.194601  0  -0.371814  -0.658659  0  2.260318  0
O  O102  1  0.77049772  0.15467993  0.30127785  1  0  -0.737304  0  2.020324  0  0  -0.681339  0  2.252491  0  0  -0.706715  0  2.240767  0  -1.194437  0  -0.371817  -0.658682  0  2.260334  0
O  O103  1  0.27049725  0.34531975  0.69872228  1  0  -0.737322  0  2.02028  0  0  -0.681361  0  2.252426  0  0  -0.706736  0  2.240707  0  -1.194569  0  -0.371833  -0.658704  0  2.260266  0
O  O104  1  0.46140598  0.83096955  0.59186221  1  0  -0.784658  0  2.094261  0  0  -0.738993  0  2.348441  0  0  -0.764068  0  2.33758  0  -1.203474  0  -0.402261  -0.711233  0  2.354522  0
O  O105  1  0.96140509  0.66903022  0.40813757  1  0  -0.784648  0  2.094279  0  0  -0.738966  0  2.348431  0  0  -0.764049  0  2.337593  0  -1.203447  0  -0.402244  -0.711206  0  2.35451  0
O  O106  1  0.53859361  0.16902979  0.40813732  1  0  -0.78466  0  2.094277  0  0  -0.738998  0  2.348467  0  0  -0.76408  0  2.337627  0  -1.203462  0  -0.402254  -0.711241  0  2.354546  0
O  O107  1  0.03859450  0.33096988  0.59186281  1  0  -0.784622  0  2.094277  0  0  -0.738966  0  2.34845  0  0  -0.764047  0  2.337623  0  -1.203456  0  -0.402233  -0.711209  0  2.354529  0
O  O108  1  0.10940658  0.86185178  0.34943523  1  0  -0.701023  0  2.012603  0  0  -0.645201  0  2.23856  0  0  -0.67018  0  2.22929  0  -1.182689  0  -0.356791  -0.623252  0  2.245271  0
O  O109  1  0.60940706  0.63814800  0.65056529  1  0  -0.701018  0  2.01262  0  0  -0.645198  0  2.238573  0  0  -0.670176  0  2.229302  0  -1.182552  0  -0.356778  -0.623247  0  2.245284  0
O  O110  1  0.89059300  0.13814756  0.65056577  1  0  -0.701044  0  2.012633  0  0  -0.645218  0  2.238576  0  0  -0.670196  0  2.229305  0  -1.18263  0  -0.356763  -0.623268  0  2.245283  0
O  O111  1  0.39059253  0.36185134  0.34943498  1  0  -0.701013  0  2.012665  0  0  -0.645181  0  2.238613  0  0  -0.670158  0  2.229339  0  -1.182702  0  -0.356751  -0.623233  0  2.245324  0
O  O112  1  0.20129441  0.98553582  0.52973033  1  0  -0.697759  0  2.140684  0  0  -0.650787  0  2.407604  0  0  -0.674453  0  2.395621  0  -1.21708  0  -0.38895  -0.626069  0  2.415964  0
O  O113  1  0.70129488  0.51446319  0.47026860  1  0  -0.697772  0  2.140651  0  0  -0.650819  0  2.407609  0  0  -0.674484  0  2.395625  0  -1.217047  0  -0.388951  -0.6261  0  2.415973  0
O  O114  1  0.79870381  0.01446352  0.47026847  1  0  -0.697799  0  2.140635  0  0  -0.650826  0  2.407577  0  0  -0.674487  0  2.395587  0  -1.217031  0  -0.388919  -0.62611  0  2.415938  0
O  O115  1  0.29870470  0.48553692  0.52973178  1  0  -0.697842  0  2.140665  0  0  -0.650873  0  2.407617  0  0  -0.674536  0  2.395629  0  -1.217049  0  -0.388951  -0.626157  0  2.415977  0
O  O116  1  0.23529322  0.15485655  0.53660932  1  0  -0.777811  0  2.180038  0  0  -0.726005  0  2.447271  0  0  -0.751566  0  2.435252  0  -1.20777  0  -0.428777  -0.695855  0  2.455219  0
O  O117  1  0.73529369  0.34514312  0.46339081  1  0  -0.777854  0  2.180042  0  0  -0.726045  0  2.447272  0  0  -0.751604  0  2.43525  0  -1.20777  0  -0.428783  -0.695893  0  2.455216  0
O  O118  1  0.76470637  0.84514356  0.46339032  1  0  -0.777947  0  2.180035  0  0  -0.726151  0  2.447311  0  0  -0.751713  0  2.435293  0  -1.207755  0  -0.428879  -0.695995  0  2.455258  0
O  O119  1  0.26470726  0.65485622  0.53660872  1  0  -0.777922  0  2.180033  0  0  -0.726124  0  2.447299  0  0  -0.751683  0  2.435275  0  -1.207767  0  -0.428838  -0.695967  0  2.455246  0
O  O120  1  0.36045917  0.78525596  0.39213204  1  0  -0.796024  0  2.097417  0  0  -0.75143  0  2.36156  0  0  -0.775396  0  2.348411  0  -1.220748  0  -0.411172  -0.722574  0  2.369621  0
O  O121  1  0.86045965  0.71474382  0.60786848  1  0  -0.796023  0  2.097409  0  0  -0.751432  0  2.361545  0  0  -0.775398  0  2.348396  0  -1.221077  0  -0.411169  -0.722574  0  2.3696  0
O  O122  1  0.63953904  0.21474415  0.60786834  1  0  -0.796051  0  2.097387  0  0  -0.751462  0  2.361536  0  0  -0.775428  0  2.348387  0  -1.221156  0  -0.411176  -0.722609  0  2.369597  0
O  O123  1  0.13953994  0.28525552  0.39213179  1  0  -0.796049  0  2.09739  0  0  -0.75146  0  2.361535  0  0  -0.775426  0  2.348385  0  -1.220824  0  -0.411187  -0.722602  0  2.369583  0
O  O124  1  0.92862515  0.93726957  0.66767671  1  0  -0.868275  0  1.849173  0  0  -0.828014  0  2.019579  0  0  -0.846314  0  1.990617  0  -1.277621  0  -0.61597  -0.809555  0  2.042362  0
O  O125  1  0.42862468  0.56273021  0.33232381  1  0  -0.86821  0  1.849257  0  0  -0.827942  0  2.019666  0  0  -0.846243  0  1.990705  0  -1.277618  0  -0.615934  -0.809482  0  2.04245  0
O  O126  1  0.07137580  0.06272977  0.33232356  1  0  -0.868202  0  1.849202  0  0  -0.827931  0  2.019615  0  0  -0.846233  0  1.990651  0  -1.277615  0  -0.615929  -0.809474  0  2.042397  0
O  O127  1  0.57137627  0.43726990  0.66767657  1  0  -0.868224  0  1.849201  0  0  -0.82795  0  2.019608  0  0  -0.846252  0  1.990646  0  -1.277619  0  -0.615917  -0.809493  0  2.04239  0
