# generated using pymatgen
data_MnH6C4N7ClO
_symmetry_space_group_name_H-M   'P 1'
_cell_length_a   7.26252130
_cell_length_b   7.63364654
_cell_length_c   17.03921361
_cell_angle_alpha   98.29001397
_cell_angle_beta   89.99699937
_cell_angle_gamma   118.42004381
_symmetry_Int_Tables_number   1
_chemical_formula_structural   MnH6C4N7ClO
_chemical_formula_sum   'Mn4 H24 C16 N28 Cl4 O4'
_cell_volume   819.56236413
_cell_formula_units_Z   4
loop_
 _symmetry_equiv_pos_site_id
 _symmetry_equiv_pos_as_xyz
  1  'x, y, z'
loop_
 _atom_site_type_symbol
 _atom_site_label
 _atom_site_symmetry_multiplicity
 _atom_site_fract_x
 _atom_site_fract_y
 _atom_site_fract_z
 _atom_site_occupancy
 _atom_site_hle17_ddec_charge
 _atom_site_hle17_ddec_spin_density
 _atom_site_hle17_ddec_sum_bond_order
 _atom_site_hle17_magmom
 _atom_site_hse06_10hf_bader_charge
 _atom_site_hse06_10hf_bader_spin_density
 _atom_site_hse06_10hf_ddec_charge
 _atom_site_hse06_10hf_ddec_spin_density
 _atom_site_hse06_10hf_ddec_sum_bond_order
 _atom_site_hse06_10hf_magmom
 _atom_site_hse06_ddec_charge
 _atom_site_hse06_ddec_spin_density
 _atom_site_hse06_ddec_sum_bond_order
 _atom_site_hse06_magmom
 _atom_site_pbe_cm5_charge
 _atom_site_pbe_ddec_charge
 _atom_site_pbe_ddec_spin_density
 _atom_site_pbe_ddec_sum_bond_order
 _atom_site_pbe_magmom
Mn  Mn0  1  0.16950345  0.99969274  0.25000305  1  1.100159  4.825687  1.732316  4.678  1.491459  4.624782  0.931369  4.746118  2.204725  4.542  0.983593  4.78892  2.146733  4.598  0.604993  0.891515  4.705687  2.246233  4.488
Mn  Mn1  1  0.81339102  0.00015036  0.74996954  1  0.731754  1.084971  2.641353  1.071  1.322889  1.027616  0.6397  1.055741  3.166689  1.023  0.681104  1.02292  3.110846  0.995  0.632211  0.617764  1.085411  3.197848  1.048
Mn  Mn2  1  0.50041103  0.49234600  0.99363782  1  0.913182  4.79784  1.997216  4.657  1.445637  4.608102  0.726347  4.712793  2.510296  4.515  0.785587  4.763636  2.450949  4.579  0.495457  0.678622  4.662477  2.554592  4.452
Mn  Mn3  1  0.00818199  0.50795593  0.50621791  1  0.91381  -4.841764  1.997639  -4.656  1.439133  -4.607865  0.726978  -4.736821  2.511397  -4.514  0.786212  -4.784699  2.452073  -4.579  0.496354  0.679943  -4.690287  2.555123  -4.451
H  H4  1  0.10624999  0.99610631  0.09378288  1  0.297583  0.000623  0.956545  0.001  0.464685  0.002752  0.283461  0.002093  1.021337  0.002  0.290294  0.001575  1.016311  0.002  0.266598  0.27845  0.002578  1.025114  0.002
H  H5  1  0.11033109  0.00366842  0.40621740  1  0.297446  -0.000354  0.956759  0.0  0.46009  -0.000426  0.283253  9.2e-05  1.021654  0.001  0.290089  0.000147  1.016615  0.001  0.266589  0.27824  1.8e-05  1.025416  0.001
H  H6  1  0.88607094  0.98567711  0.89646924  1  0.293438  0.000657  0.935207  0.001  0.471568  0.00215  0.281376  0.001027  0.996975  0.002  0.287857  0.000689  0.992896  0.001  0.275232  0.276635  0.001326  1.000127  0.002
H  H7  1  0.89997308  0.01471434  0.60346280  1  0.293427  -6.3e-05  0.933971  0.0  0.442404  -0.000581  0.281443  -0.000564  0.995699  0.001  0.287922  -0.000423  0.991609  0.001  0.275236  0.276716  -0.000709  0.998869  0.001
H  H8  1  0.22828030  0.24590416  0.13536753  1  0.295569  0.000108  0.976018  0.001  0.515092  0.001477  0.268149  0.000924  1.058816  0.002  0.276052  0.000668  1.053066  0.002  0.289271  0.262611  0.001163  1.062671  0.002
H  H9  1  0.98235229  0.75385964  0.36471453  1  0.29605  9.4e-05  0.974984  0.001  0.522918  0.001159  0.267973  0.000763  1.058747  0.002  0.275891  0.000588  1.053009  0.001  0.28944  0.262427  0.000921  1.062592  0.002
H  H10  1  0.76268673  0.74349983  0.84989271  1  0.290685  -0.000162  0.95262  0.0  0.515985  0.001081  0.265499  0.000824  1.035534  0.001  0.272747  0.000721  1.03029  0.001  0.292482  0.260406  0.000929  1.039207  0.001
H  H11  1  0.01895176  0.25686505  0.65006746  1  0.291129  -0.000246  0.950979  0.0  0.500189  0.000718  0.265414  0.000521  1.034601  0.001  0.272676  0.000521  1.029366  0.001  0.292474  0.260346  0.000518  1.038254  0.001
H  H12  1  0.84922232  0.37700927  0.03553181  1  0.279887  -0.00027  0.909881  0.0  0.508867  0.000499  0.254387  1e-05  0.985887  0.0  0.261869  -0.000133  0.980034  0.0  0.311739  0.248999  0.000163  0.990264  0.0
H  H13  1  0.47193013  0.62257909  0.46451893  1  0.279875  0.000334  0.909501  0.0  0.512264  -0.000405  0.254153  0.000155  0.986124  0.0  0.26167  0.000253  0.980212  0.0  0.311406  0.248712  5.3e-05  0.990558  0.0
H  H14  1  0.15148665  0.61535840  0.96204882  1  0.28004  -0.00033  0.910103  0.0  0.506384  0.000458  0.25441  -0.000117  0.986549  0.0  0.261827  -0.00022  0.980775  0.0  0.311768  0.24898  -1.3e-05  0.990977  0.0
H  H15  1  0.53610582  0.38505846  0.53790832  1  0.280189  0.00026  0.909517  0.0  0.501051  -0.000485  0.254091  2.7e-05  0.986179  0.0  0.261538  0.000172  0.980394  0.0  0.311775  0.248698  -0.000131  0.990523  0.0
H  H16  1  0.82113407  0.05027874  0.06788777  1  0.112585  -0.000262  0.968321  0.0  0.164161  0.000783  0.12153  -1.5e-05  1.033216  0.0  0.124334  -0.000151  1.030323  0.0  0.11676  0.119333  0.000122  1.035454  0.0
H  H17  1  0.77085674  0.94928466  0.43215750  1  0.111951  5.2e-05  0.969788  0.0  0.167382  -0.000713  0.122036  -0.000348  1.033466  0.0  0.124807  -0.000207  1.030591  0.0  0.116909  0.119725  -0.000488  1.035862  0.0
H  H18  1  0.17700246  0.94194798  0.93109793  1  0.112011  -0.000144  0.971113  0.0  0.174337  0.000778  0.120044  0.000139  1.037467  0.0  0.123285  6e-06  1.033995  0.0  0.114624  0.117346  0.000261  1.040492  0.0
H  H19  1  0.23476042  0.05877496  0.56905014  1  0.113026  0.000139  0.970676  0.0  0.198914  -0.000741  0.120896  -0.00027  1.036999  0.0  0.124114  -0.000109  1.033526  0.0  0.114832  0.118205  -0.00044  1.039979  0.0
H  H20  1  0.09341440  0.27660633  0.34706695  1  0.397211  0.000621  0.901454  0.001  0.650842  0.000951  0.365154  0.00133  0.980024  0.001  0.374743  0.001107  0.966174  0.001  0.276324  0.35833  0.001523  0.989836  0.001
H  H21  1  0.81649101  0.72278646  0.15293822  1  0.397099  -0.000404  0.900941  0.001  0.634778  0.001041  0.364922  0.000325  0.980214  0.001  0.374478  3.2e-05  0.966435  0.001  0.276448  0.358172  0.000613  0.989924  0.002
H  H22  1  0.89394471  0.74834096  0.65214152  1  0.38833  0.00035  0.913236  0.0  0.64554  -0.000248  0.357571  1.3e-05  0.994656  0.0  0.366696  -1.5e-05  0.981625  0.0  0.274982  0.351362  2e-05  1.003497  0.0
H  H23  1  0.14575337  0.25196697  0.84770632  1  0.387875  -0.000512  0.912978  0.0  0.646152  -2.5e-05  0.357122  -0.000704  0.994937  0.0  0.36624  -0.000834  0.98192  0.0  0.275102  0.350965  -0.000579  1.003706  0.0
H  H24  1  0.10629513  0.35785720  0.26639051  1  0.412608  0.000408  0.878347  0.001  0.633984  0.002069  0.370353  0.001188  0.96922  0.002  0.381373  0.00087  0.953126  0.002  0.298442  0.362484  0.001486  0.980681  0.003
H  H25  1  0.74792942  0.64133090  0.23354812  1  0.41223  0.00033  0.879228  0.001  0.652484  0.002051  0.369806  0.001072  0.970189  0.002  0.380848  0.000759  0.954057  0.002  0.298272  0.361894  0.001369  0.981712  0.003
H  H26  1  0.88152248  0.67644533  0.73475876  1  0.419094  -0.000667  0.837463  0.0  0.623795  0.000769  0.389001  0.000447  0.919052  0.001  0.397144  0.000495  0.909584  0.001  0.319738  0.383446  0.00044  0.925433  0.001
H  H27  1  0.20528750  0.32372527  0.76505695  1  0.419163  -0.000695  0.836689  0.0  0.654209  0.000745  0.388895  0.000384  0.918748  0.001  0.397046  0.000425  0.909226  0.001  0.319533  0.383345  0.000385  0.925118  0.001
C  C28  1  0.42117500  0.13329369  0.10419025  1  0.381191  0.004557  3.77711  0.004  0.941705  0.010692  0.346808  0.009289  4.052252  0.008  0.362658  0.00734  4.068313  0.006  0.209022  0.335814  0.0114  4.041175  0.01
C  C29  1  0.28791677  0.86639277  0.39580092  1  0.381757  -0.005737  3.776386  -0.006  0.900576  -0.00648  0.347547  -0.005071  4.05092  -0.006  0.363433  -0.005114  4.066936  -0.005  0.209056  0.336534  -0.005073  4.039894  -0.006
C  C30  1  0.57147254  0.85527522  0.88802303  1  0.369227  0.003523  3.746459  0.004  0.944077  0.008489  0.336576  0.00665  4.022349  0.007  0.354113  0.006245  4.037924  0.006  0.210659  0.324213  0.00709  4.011994  0.007
C  C31  1  0.71585641  0.14517712  0.61206205  1  0.368782  -0.006927  3.747596  -0.006  0.893221  -0.009079  0.336042  -0.008042  4.023195  -0.007  0.35354  -0.006636  4.038868  -0.006  0.210458  0.323831  -0.009461  4.0127  -0.008
C  C32  1  0.40264675  0.81021811  0.13617844  1  0.333732  0.004143  3.793915  0.005  0.991574  0.010287  0.305585  0.007874  4.059325  0.009  0.320013  0.006441  4.07483  0.007  0.225878  0.295724  0.009317  4.048891  0.01
C  C33  1  0.59270621  0.18932737  0.36377574  1  0.333469  -0.000313  3.796489  -0.001  0.959032  0.000426  0.30658  0.000446  4.059779  0.0  0.321079  0.000347  4.075138  0.0  0.226066  0.296661  0.000523  4.049496  0.0
C  C34  1  0.59450253  0.17587414  0.85671608  1  0.321652  -2.4e-05  3.776001  0.002  0.971325  -0.000383  0.291513  -0.001161  4.043099  0.001  0.310362  0.000591  4.05316  0.002  0.21883  0.278321  -0.002827  4.03718  0.0
C  C35  1  0.41823126  0.82463515  0.64342993  1  0.324095  -0.005289  3.771302  -0.005  0.98476  -0.011016  0.293554  -0.009263  4.038996  -0.008  0.312251  -0.006603  4.049261  -0.006  0.219295  0.28067  -0.011124  4.032773  -0.009
C  C36  1  0.50536566  0.00057575  0.10730880  1  -0.198447  0.00119  3.81649  0.001  0.064498  0.003615  -0.18413  0.002282  4.073028  0.002  -0.195847  0.001368  4.094421  0.001  -0.025404  -0.17657  0.003222  4.058875  0.002
C  C37  1  0.50497563  0.99902014  0.39265183  1  -0.198656  0.002711  3.816461  0.003  0.091512  0.002078  -0.184494  0.001786  4.072315  0.002  -0.196223  0.001968  4.093676  0.002  -0.025018  -0.176942  0.001721  4.058181  0.002
C  C38  1  0.48852809  0.98919665  0.88732414  1  -0.182933  -0.000835  3.82491  0.0  0.055336  0.000793  -0.170757  0.000155  4.082839  0.0  -0.183363  -0.000359  4.101886  0.0  -0.020296  -0.162905  0.000604  4.071261  0.001
C  C39  1  0.49889001  0.01143219  0.61287782  1  -0.184202  0.00059  3.824546  0.001  0.080067  -0.000932  -0.171549  -0.000619  4.082292  0.0  -0.184216  9.5e-05  4.10155  0.001  -0.020116  -0.163664  -0.00133  4.070422  0.0
C  C40  1  0.70078143  0.09485987  0.07686507  1  0.073681  0.002814  3.634082  0.002  0.445558  0.00645  0.013001  0.004784  3.904654  0.004  0.025522  0.003748  3.914675  0.003  0.035115  0.005018  0.005912  3.897938  0.004
C  C41  1  0.60594152  0.90474100  0.42314440  1  0.075017  -0.005919  3.635166  -0.005  0.430008  -0.007742  0.013298  -0.006145  3.90544  -0.005  0.0259  -0.005586  3.915493  -0.004  0.034984  0.005392  -0.006954  3.898731  -0.005
C  C42  1  0.29631742  0.89667668  0.92003581  1  0.072218  0.003008  3.624562  0.003  0.42437  0.00579  0.011227  0.004393  3.896103  0.003  0.024369  0.004463  3.905696  0.004  0.034512  0.002352  0.004033  3.890299  0.003
C  C43  1  0.39934411  0.10394438  0.58008888  1  0.070805  -0.006515  3.626732  -0.005  0.421557  -0.009084  0.010021  -0.007187  3.89801  -0.005  0.023182  -0.005559  3.907586  -0.004  0.033369  0.001334  -0.009169  3.892002  -0.007
N  N44  1  0.55372256  0.29534818  0.07234774  1  -0.328208  0.025931  3.049526  0.016  -0.775972  0.044747  -0.284533  0.031533  3.336563  0.018  -0.30235  0.027502  3.352539  0.014  -0.242251  -0.271462  0.0355  3.325446  0.021
N  N45  1  0.25828224  0.70442585  0.42771900  1  -0.329402  -0.019907  3.051636  -0.009  -0.769515  -0.033645  -0.285321  -0.023984  3.338786  -0.009  -0.303211  -0.021396  3.354874  -0.007  -0.243422  -0.27232  -0.026195  3.32775  -0.011
N  N46  1  0.44276447  0.69420488  0.92079192  1  -0.32252  0.021914  3.059019  0.011  -0.775718  0.039733  -0.279336  0.027737  3.348285  0.013  -0.297374  0.02458  3.363455  0.011  -0.241579  -0.266231  0.030577  3.33803  0.016
N  N47  1  0.74837619  0.30613198  0.57920519  1  -0.321658  -0.025055  3.059725  -0.014  -0.78009  -0.040637  -0.278783  -0.028829  3.349232  -0.014  -0.296789  -0.025237  3.364352  -0.011  -0.24158  -0.265709  -0.03219  3.338896  -0.016
N  N48  1  0.27662668  0.77807120  0.19686696  1  -0.34749  0.029729  3.105872  0.018  -0.775745  0.048816  -0.296067  0.035065  3.404687  0.019  -0.315094  0.030975  3.417513  0.016  -0.222257  -0.282563  0.038894  3.395933  0.022
N  N49  1  0.49863433  0.22133595  0.30310878  1  -0.347258  0.028921  3.106317  0.017  -0.756876  0.045113  -0.295848  0.032848  3.404144  0.017  -0.314898  0.02966  3.416974  0.015  -0.22168  -0.282216  0.035745  3.395246  0.019
N  N50  1  0.72722905  0.19821893  0.79817232  1  -0.282691  -0.006964  3.254494  -0.013  -0.746426  -0.000111  -0.235999  -0.002892  3.569918  -0.01  -0.254613  -0.001173  3.577211  -0.01  -0.259734  -0.224852  -0.00511  3.564474  -0.012
N  N51  1  0.52884974  0.80222104  0.70187429  1  -0.283551  -0.00695  3.252146  -0.013  -0.752877  -0.00292  -0.236418  -0.004391  3.567434  -0.012  -0.255082  -0.001816  3.574891  -0.01  -0.259471  -0.225182  -0.007255  3.561726  -0.014
N  N52  1  0.20822833  0.58432766  0.20566089  1  -0.086312  0.001934  2.998904  0.003  -0.144964  0.008339  -0.07257  0.004818  3.28546  0.006  -0.072035  0.003463  3.296504  0.005  -0.086528  -0.072945  0.006207  3.278255  0.007
N  N53  1  0.62376992  0.41516631  0.29435817  1  -0.086159  -0.001289  2.99949  0.0  -0.16931  0.001881  -0.072859  6.1e-05  3.286336  0.001  -0.072361  -0.000253  3.297424  0.001  -0.086462  -0.073052  0.000323  3.278908  0.002
N  N54  1  0.80705089  0.39288544  0.78640741  1  -0.095306  -0.007318  2.911045  -0.007  -0.14796  -0.001008  -0.095829  -0.000953  3.213421  0.0  -0.088829  0.001868  3.218168  0.002  -0.105303  -0.101305  -0.002403  3.211481  -0.002
N  N55  1  0.41425927  0.60745599  0.71351853  1  -0.095944  -0.012618  2.912074  -0.013  -0.133283  -0.010349  -0.096663  -0.008133  3.214222  -0.008  -0.08957  -0.003592  3.218936  -0.003  -0.106007  -0.102212  -0.011972  3.212294  -0.011
N  N56  1  0.28820454  0.50409408  0.15253011  1  -0.080643  0.003124  3.09623  0.004  -0.150079  0.009694  -0.054992  0.006018  3.378025  0.007  -0.05665  0.00462  3.39226  0.006  -0.085617  -0.053796  0.007574  3.368298  0.008
N  N57  1  0.78400245  0.49559568  0.34749475  1  -0.081858  0.003611  3.096407  0.004  -0.152791  0.004141  -0.055636  0.003342  3.378024  0.003  -0.0573  0.002914  3.392264  0.003  -0.086052  -0.054447  0.003922  3.368319  0.004
N  N58  1  0.72701137  0.48172506  0.83621716  1  -0.103118  -0.001662  3.071071  -0.001  -0.155878  0.000446  -0.082612  -0.000941  3.368847  0.0  -0.080813  -0.00035  3.376318  0.001  -0.095823  -0.083593  -0.00049  3.364054  0.001
N  N59  1  0.24532531  0.51851857  0.66367811  1  -0.102938  -0.001803  3.073711  -0.002  -0.181404  -0.006888  -0.081868  -0.004694  3.371158  -0.005  -0.080035  -0.002633  3.3786  -0.003  -0.095332  -0.083062  -0.006242  3.366533  -0.006
N  N60  1  0.41020945  0.63983136  0.10712118  1  -0.338509  0.024259  3.094976  0.015  -0.792725  0.041171  -0.287619  0.029537  3.382632  0.017  -0.306717  0.026061  3.397065  0.014  -0.221653  -0.273606  0.032736  3.37232  0.02
N  N61  1  0.77049977  0.35989686  0.39287164  1  -0.337257  -0.024354  3.09642  -0.015  -0.75402  -0.03796  -0.287102  -0.02843  3.384077  -0.016  -0.306205  -0.025917  3.398461  -0.014  -0.22144  -0.273224  -0.030706  3.373967  -0.018
N  N62  1  0.59387089  0.35143008  0.88152367  1  -0.330574  0.026541  3.099759  0.017  -0.792864  0.041872  -0.279462  0.029913  3.393353  0.017  -0.297989  0.026762  3.403125  0.014  -0.225227  -0.265944  0.032627  3.386479  0.019
N  N63  1  0.24224651  0.64890569  0.61851489  1  -0.33126  -0.022092  3.10072  -0.011  -0.781698  -0.038848  -0.280469  -0.027783  3.394642  -0.013  -0.298933  -0.02472  3.404399  -0.011  -0.225532  -0.267047  -0.030638  3.387788  -0.015
N  N64  1  0.22988702  0.10879232  0.13171113  1  -0.70278  0.0314  3.165073  0.017  -1.318676  0.052542  -0.646818  0.036616  3.414091  0.017  -0.669198  0.03273  3.408063  0.014  -0.609441  -0.630141  0.040096  3.417829  0.019
N  N65  1  0.12118029  0.89092711  0.36830664  1  -0.702531  0.02977  3.165971  0.016  -1.307698  0.046214  -0.64635  0.03257  3.41559  0.013  -0.6688  0.029784  3.409565  0.011  -0.609048  -0.629531  0.034786  3.419299  0.014
N  N66  1  0.76153712  0.88134144  0.85668342  1  -0.618975  -0.008454  3.20475  -0.012  -1.26841  -0.000535  -0.579413  -0.002377  3.457152  -0.008  -0.606578  -0.002444  3.458518  -0.007  -0.604434  -0.560185  -0.002185  3.455319  -0.008
N  N67  1  0.87987905  0.11901894  0.64329808  1  -0.618483  -0.009574  3.202858  -0.013  -1.229043  -0.005445  -0.579032  -0.005457  3.45588  -0.011  -0.606181  -0.004768  3.457121  -0.01  -0.604123  -0.559853  -0.005965  3.454052  -0.012
N  N68  1  0.72350912  0.26860269  0.05794092  1  -0.150423  0.00198  3.561495  0.002  -0.86061  0.006412  -0.093423  0.003998  3.807128  0.004  -0.106089  0.002862  3.827478  0.003  -0.288168  -0.085333  0.005186  3.793561  0.005
N  N69  1  0.45479047  0.73108424  0.44213798  1  -0.149957  0.002107  3.559279  0.002  -0.856233  -0.000288  -0.093504  0.00065  3.805796  0.0  -0.106182  0.000973  3.826013  0.001  -0.287987  -0.085414  0.000484  3.792335  0.0
N  N70  1  0.27532462  0.72262812  0.93836455  1  -0.149533  -0.000302  3.552464  0.0  -0.858835  0.002066  -0.093789  0.000529  3.798519  0.001  -0.106444  0.000124  3.819019  0.001  -0.287459  -0.085721  0.000693  3.784997  0.001
N  N71  1  0.55254332  0.27779798  0.56163634  1  -0.15014  -0.000239  3.555489  0.0  -0.846131  -0.005074  -0.093787  -0.002985  3.802037  -0.003  -0.106435  -0.001854  3.822414  -0.002  -0.286604  -0.085718  -0.004214  3.788505  -0.004
Cl  Cl72  1  0.11556845  0.27078958  0.96910625  1  -0.550223  0.044326  1.037067  0.027  -0.72865  0.074485  -0.493358  0.05792  1.324804  0.032  -0.511879  0.049953  1.301345  0.026  -0.223601  -0.478644  0.065196  1.341493  0.037
Cl  Cl73  1  0.84516040  0.72959939  0.53082995  1  -0.55075  -0.044519  1.037543  -0.027  -0.723927  -0.071926  -0.493635  -0.057832  1.325205  -0.031  -0.512237  -0.050109  1.301877  -0.025  -0.22346  -0.478781  -0.064924  1.341652  -0.036
Cl  Cl74  1  0.87934791  0.71593147  0.02542503  1  -0.561005  0.046306  1.032244  0.029  -0.732457  0.076979  -0.50374  0.059586  1.322543  0.033  -0.52277  0.051267  1.299001  0.027  -0.234824  -0.488418  0.06723  1.339106  0.039
Cl  Cl75  1  0.16276920  0.28373947  0.47462491  1  -0.561458  -0.047877  1.032295  -0.03  -0.730695  -0.076144  -0.503934  -0.061119  1.322281  -0.033  -0.52308  -0.052783  1.298914  -0.027  -0.234615  -0.488484  -0.068813  1.338642  -0.039
O  O76  1  0.06975111  0.23380273  0.28891250  1  -0.801555  0.027374  1.893474  0.016  -1.299279  0.051142  -0.738189  0.03716  2.102315  0.023  -0.759602  0.033353  2.069326  0.02  -0.567231  -0.722133  0.040643  2.125367  0.025
O  O77  1  0.83544485  0.76550953  0.21109710  1  -0.801695  0.027  1.893159  0.016  -1.30164  0.051168  -0.737998  0.036834  2.102406  0.023  -0.75942  0.032903  2.069407  0.02  -0.567582  -0.721976  0.040441  2.125461  0.026
O  O78  1  0.92351895  0.79744328  0.71031829  1  -0.728589  0.003798  1.999789  0.0  -1.242007  0.006127  -0.674985  0.00355  2.218145  -0.001  -0.698886  0.003354  2.193797  -0.002  -0.550111  -0.657591  0.004009  2.233157  -0.001
O  O79  1  0.12642954  0.20276660  0.78953619  1  -0.728043  0.003372  1.998952  0.0  -1.271881  0.006293  -0.674216  0.003195  2.217824  -0.001  -0.698182  0.002876  2.193555  -0.002  -0.549767  -0.656767  0.003731  2.23268  -0.001
