# generated using pymatgen
data_YH8C6O7
_symmetry_space_group_name_H-M   'P 1'
_cell_length_a   7.66049172
_cell_length_b   10.69676633
_cell_length_c   12.66092227
_cell_angle_alpha   71.99571038
_cell_angle_beta   72.39089912
_cell_angle_gamma   69.01761160
_symmetry_Int_Tables_number   1
_chemical_formula_structural   YH8C6O7
_chemical_formula_sum   'Y4 H32 C24 O28'
_cell_volume   899.48410370
_cell_formula_units_Z   4
loop_
 _symmetry_equiv_pos_site_id
 _symmetry_equiv_pos_as_xyz
  1  'x, y, z'
loop_
 _atom_site_type_symbol
 _atom_site_label
 _atom_site_symmetry_multiplicity
 _atom_site_fract_x
 _atom_site_fract_y
 _atom_site_fract_z
 _atom_site_occupancy
 _atom_site_hle17_bader_spin_density
 _atom_site_hle17_ddec_charge
 _atom_site_hle17_ddec_spin_density
 _atom_site_hle17_ddec_sum_bond_order
 _atom_site_hle17_magmom
 _atom_site_hse06_10hf_bader_spin_density
 _atom_site_hse06_10hf_ddec_charge
 _atom_site_hse06_10hf_ddec_spin_density
 _atom_site_hse06_10hf_ddec_sum_bond_order
 _atom_site_hse06_10hf_magmom
 _atom_site_hse06_bader_spin_density
 _atom_site_hse06_ddec_charge
 _atom_site_hse06_ddec_spin_density
 _atom_site_hse06_ddec_sum_bond_order
 _atom_site_hse06_magmom
 _atom_site_pbe_bader_spin_density
 _atom_site_pbe_cm5_charge
 _atom_site_pbe_ddec_charge
 _atom_site_pbe_ddec_spin_density
 _atom_site_pbe_ddec_sum_bond_order
 _atom_site_pbe_magmom
Y  Y0  1  0.05458345  0.68959072  0.77044399  1  0  2.045135  0  1.86377  0  0  1.847143  0  2.34693  0  0  1.924143  0  2.277804  0  0  1.297815  1.792788  0  2.392383  0
Y  Y1  1  0.48541237  0.18955729  0.27046719  1  0  2.044083  0  1.867039  0  0  1.846055  0  2.349419  0  0  1.922431  0  2.28157  0  0  1.296715  1.791306  0  2.395609  0
Y  Y2  1  0.94541433  0.31040991  0.22955693  1  0  2.045163  0  1.863775  0  0  1.847153  0  2.346925  0  0  1.924158  0  2.277797  0  0  1.297826  1.792769  0  2.392435  0
Y  Y3  1  0.51458821  0.81044231  0.72953155  1  0  2.044115  0  1.866957  0  0  1.846063  0  2.349351  0  0  1.92246  0  2.281491  0  0  1.296722  1.791316  0  2.395527  0
H  H4  1  0.80752249  0.50325374  0.85259066  1  0  0.425781  0  0.872831  0  0  0.394174  0  0.937531  0  0  0.405478  0  0.921129  0  0  0.299267  0.386066  0  0.94929  0
H  H5  1  0.83673876  0.00331400  0.35262235  1  0  0.426409  0  0.872029  0  0  0.395037  0  0.936333  0  0  0.406318  0  0.919938  0  0  0.300248  0.386955  0  0.948078  0
H  H6  1  0.19247720  0.49674689  0.14740973  1  0  0.425795  0  0.872817  0  0  0.394183  0  0.937526  0  0  0.405487  0  0.921122  0  0  0.299262  0.386074  0  0.949286  0
H  H7  1  0.16326102  0.99668561  0.64737718  1  0  0.426475  0  0.871937  0  0  0.395077  0  0.93629  0  0  0.406359  0  0.919895  0  0  0.300255  0.386988  0  0.948046  0
H  H8  1  0.99252703  0.42131704  0.91194838  1  0  0.442666  0  0.852864  0  0  0.410233  0  0.917703  0  0  0.422014  0  0.900493  0  0  0.302016  0.401909  0  0.929839  0
H  H9  1  0.67429679  0.92137338  0.41194887  1  0  0.443031  0  0.852316  0  0  0.410511  0  0.917317  0  0  0.422286  0  0.900128  0  0  0.301684  0.402164  0  0.929507  0
H  H10  1  0.00747197  0.57868256  0.08805195  1  0  0.442674  0  0.852858  0  0  0.410241  0  0.917696  0  0  0.422021  0  0.900488  0  0  0.302019  0.401918  0  0.929832  0
H  H11  1  0.32570290  0.07862725  0.58805152  1  0  0.443009  0  0.852342  0  0  0.410492  0  0.917338  0  0  0.422268  0  0.900148  0  0  0.301678  0.402146  0  0.929524  0
H  H12  1  0.91519422  0.16469030  0.51558694  1  0  0.113412  0  0.940112  0  0  0.127058  0  1.002288  0  0  0.129537  0  1.001772  0  0  0.111595  0.125271  0  1.002803  0
H  H13  1  0.40452296  0.66463623  0.01559444  1  0  0.112888  0  0.94086  0  0  0.126523  0  1.003009  0  0  0.129079  0  1.002369  0  0  0.111587  0.124689  0  1.003548  0
H  H14  1  0.08480789  0.83530827  0.48441225  1  0  0.113406  0  0.940119  0  0  0.127055  0  1.002295  0  0  0.129531  0  1.001777  0  0  0.111595  0.125273  0  1.002806  0
H  H15  1  0.59547785  0.33536440  0.98440620  1  0  0.112879  0  0.940872  0  0  0.126521  0  1.003013  0  0  0.129077  0  1.002374  0  0  0.111587  0.124687  0  1.003553  0
H  H16  1  0.83764834  0.20219024  0.65066449  1  0  0.105353  0  0.914375  0  0  0.124722  0  0.965619  0  0  0.126788  0  0.964886  0  0  0.10673  0.123228  0  0.966247  0
H  H17  1  0.30953802  0.70215061  0.15066530  1  0  0.104651  0  0.913359  0  0  0.12375  0  0.965084  0  0  0.125759  0  0.964399  0  0  0.106157  0.122249  0  0.965717  0
H  H18  1  0.16235368  0.79780936  0.34933555  1  0  0.10535  0  0.91435  0  0  0.124707  0  0.965608  0  0  0.12677  0  0.964876  0  0  0.10674  0.123219  0  0.966233  0
H  H19  1  0.69046400  0.29784899  0.84933474  1  0  0.104648  0  0.913336  0  0  0.123749  0  0.96506  0  0  0.125759  0  0.964376  0  0  0.106156  0.122249  0  0.965692  0
H  H20  1  0.48925301  0.24152179  0.63838791  1  0  0.117005  0  0.915353  0  0  0.132942  0  0.968482  0  0  0.135674  0  0.966681  0  0  0.110007  0.130955  0  0.969848  0
H  H21  1  0.63089792  0.74144727  0.13836255  1  0  0.116484  0  0.916094  0  0  0.132114  0  0.969511  0  0  0.134774  0  0.967807  0  0  0.109724  0.130109  0  0.970914  0
H  H22  1  0.51074752  0.75847679  0.36161286  1  0  0.117005  0  0.915415  0  0  0.132928  0  0.968514  0  0  0.135659  0  0.966713  0  0  0.109994  0.130942  0  0.969882  0
H  H23  1  0.36910099  0.25855336  0.86163862  1  0  0.116481  0  0.916108  0  0  0.132114  0  0.969531  0  0  0.13478  0  0.967821  0  0  0.109734  0.130106  0  0.970937  0
H  H24  1  0.60711188  0.36346593  0.54164456  1  0  0.122678  0  0.920113  0  0  0.136869  0  0.97818  0  0  0.13956  0  0.976517  0  0  0.111352  0.13489  0  0.979477  0
H  H25  1  0.48776694  0.86343534  0.04167991  1  0  0.12249  0  0.920157  0  0  0.136785  0  0.977987  0  0  0.139488  0  0.976312  0  0  0.11089  0.134797  0  0.979315  0
H  H26  1  0.39288986  0.63653162  0.45835561  1  0  0.122666  0  0.920096  0  0  0.136822  0  0.978161  0  0  0.139513  0  0.976497  0  0  0.11133  0.134844  0  0.97946  0
H  H27  1  0.51223508  0.13656427  0.95832013  1  0  0.122495  0  0.920138  0  0  0.136804  0  0.977961  0  0  0.139509  0  0.976288  0  0  0.110891  0.134816  0  0.979289  0
H  H28  1  0.95044897  0.86298433  0.03148324  1  0  0.123889  0  0.922313  0  0  0.137934  0  0.978675  0  0  0.140862  0  0.977128  0  0  0.111978  0.135874  0  0.979814  0
H  H29  1  0.15496686  0.36292719  0.53157859  1  0  0.123572  0  0.922158  0  0  0.137826  0  0.978568  0  0  0.140805  0  0.976976  0  0  0.111607  0.135625  0  0.979894  0
H  H30  1  0.04954961  0.13701630  0.96851689  1  0  0.123939  0  0.922335  0  0  0.137982  0  0.978684  0  0  0.140914  0  0.977138  0  0  0.111999  0.135923  0  0.97982  0
H  H31  1  0.84503325  0.63707241  0.46842199  1  0  0.123539  0  0.922137  0  0  0.1378  0  0.978574  0  0  0.140779  0  0.976982  0  0  0.111596  0.135597  0  0.979904  0
H  H32  1  0.88750373  0.99838772  0.91767716  1  0  0.111395  0  0.904351  0  0  0.12945  0  0.957016  0  0  0.131359  0  0.956624  0  0  0.11181  0.127989  0  0.957568  0
H  H33  1  0.19649349  0.49824152  0.41772172  1  0  0.110577  0  0.903595  0  0  0.129323  0  0.95571  0  0  0.131204  0  0.955365  0  0  0.111238  0.127931  0  0.956128  0
H  H34  1  0.11249522  0.00161393  0.08232199  1  0  0.111394  0  0.90441  0  0  0.129459  0  0.957046  0  0  0.131369  0  0.956658  0  0  0.111812  0.127994  0  0.957607  0
H  H35  1  0.80350699  0.50175911  0.58227787  1  0  0.110552  0  0.903598  0  0  0.129307  0  0.955729  0  0  0.131188  0  0.955386  0  0  0.111222  0.127913  0  0.956146  0
C  C36  1  0.80491596  0.01404328  0.64675828  1  0  0.746244  0  3.791035  0  0  0.696819  0  4.091985  0  0  0.732034  0  4.082786  0  0  0.241356  0.672775  0  4.097684  0
C  C37  1  0.53429473  0.51399670  0.14678223  1  0  0.746693  0  3.784844  0  0  0.695966  0  4.087902  0  0  0.731189  0  4.078569  0  0  0.239153  0.67187  0  4.093671  0
C  C38  1  0.19508494  0.98595632  0.35324150  1  0  0.746245  0  3.790969  0  0  0.696802  0  4.09198  0  0  0.731995  0  4.082792  0  0  0.241346  0.672761  0  4.097673  0
C  C39  1  0.46570608  0.48600393  0.85321841  1  0  0.746801  0  3.78471  0  0  0.696066  0  4.087782  0  0  0.73129  0  4.078446  0  0  0.239194  0.671964  0  4.093559  0
C  C40  1  0.79941429  0.16334616  0.59228393  1  0  -0.242362  0  3.650151  0  0  -0.285905  0  3.907999  0  0  -0.290877  0  3.914729  0  0  -0.155104  -0.282468  0  3.903366  0
C  C41  1  0.44498202  0.66330807  0.09227624  1  0  -0.241564  0  3.650319  0  0  -0.284604  0  3.908746  0  0  -0.28954  0  3.915341  0  0  -0.155228  -0.281076  0  3.904042  0
C  C42  1  0.20058512  0.83665241  0.40771659  1  0  -0.242284  0  3.650072  0  0  -0.285838  0  3.907893  0  0  -0.290804  0  3.914624  0  0  -0.155071  -0.282411  0  3.903263  0
C  C43  1  0.55501805  0.33669359  0.90772316  1  0  -0.241616  0  3.650333  0  0  -0.284653  0  3.908779  0  0  -0.289591  0  3.915375  0  0  -0.15526  -0.281129  0  3.904081  0
C  C44  1  0.60578602  0.25593702  0.56447465  1  0  -0.23898  0  3.651398  0  0  -0.283303  0  3.909851  0  0  -0.287513  0  3.915049  0  0  -0.157468  -0.280304  0  3.906192  0
C  C45  1  0.57381560  0.75588357  0.06445427  1  0  -0.238009  0  3.653155  0  0  -0.28207  0  3.910842  0  0  -0.286239  0  3.91612  0  0  -0.156161  -0.279081  0  3.907133  0
C  C46  1  0.39421749  0.74406361  0.43552466  1  0  -0.239065  0  3.651587  0  0  -0.283254  0  3.909855  0  0  -0.28747  0  3.915058  0  0  -0.157459  -0.280256  0  3.906203  0
C  C47  1  0.42618409  0.24411706  0.93554612  1  0  -0.237987  0  3.653145  0  0  -0.282071  0  3.910844  0  0  -0.286248  0  3.916127  0  0  -0.156159  -0.279082  0  3.907138  0
C  C48  1  0.56474461  0.23150960  0.46416305  1  0  0.742555  0  3.752452  0  0  0.69202  0  4.051211  0  0  0.727286  0  4.04256  0  0  0.233234  0.667943  0  4.056463  0
C  C49  1  0.73960425  0.73151553  0.96413182  1  0  0.741416  0  3.750336  0  0  0.691593  0  4.048009  0  0  0.726744  0  4.039558  0  0  0.2341  0.667541  0  4.053175  0
C  C50  1  0.43525592  0.76848897  0.53583772  1  0  0.742567  0  3.752571  0  0  0.692014  0  4.051298  0  0  0.727278  0  4.04265  0  0  0.233238  0.667941  0  4.056544  0
C  C51  1  0.26039545  0.26848510  0.03586856  1  0  0.741365  0  3.750414  0  0  0.69156  0  4.048076  0  0  0.72671  0  4.03963  0  0  0.234078  0.667505  0  4.053246  0
C  C52  1  0.18342585  0.89336714  0.89462589  1  0  0.724814  0  3.804448  0  0  0.677466  0  4.101078  0  0  0.711865  0  4.093813  0  0  0.218993  0.654039  0  4.105336  0
C  C53  1  0.02857731  0.39334266  0.39463695  1  0  0.722113  0  3.809356  0  0  0.673964  0  4.107818  0  0  0.708411  0  4.100617  0  0  0.216006  0.650492  0  4.112051  0
C  C54  1  0.81657426  0.10663246  0.10537468  1  0  0.72488  0  3.804426  0  0  0.6775  0  4.10108  0  0  0.711904  0  4.093815  0  0  0.218967  0.654078  0  4.105329  0
C  C55  1  0.97142238  0.60665797  0.60536343  1  0  0.722064  0  3.809388  0  0  0.673972  0  4.107805  0  0  0.708421  0  4.100606  0  0  0.216017  0.650505  0  4.112035  0
C  C56  1  0.99572919  0.94983775  0.97036144  1  0  -0.238803  0  3.695517  0  0  -0.280183  0  3.951062  0  0  -0.284981  0  3.958005  0  0  -0.159085  -0.276937  0  3.946296  0
C  C57  1  0.08407697  0.44977957  0.47038548  1  0  -0.237438  0  3.692253  0  0  -0.279466  0  3.9492  0  0  -0.284321  0  3.956164  0  0  -0.157723  -0.276071  0  3.94425  0
C  C58  1  0.00427171  0.05016185  0.02963835  1  0  -0.238916  0  3.695626  0  0  -0.280276  0  3.951163  0  0  -0.285095  0  3.958125  0  0  -0.159108  -0.277028  0  3.946394  0
C  C59  1  0.91592281  0.55022003  0.52961405  1  0  -0.237256  0  3.692128  0  0  -0.27938  0  3.949143  0  0  -0.284239  0  3.956111  0  0  -0.157691  -0.275983  0  3.944194  0
O  O60  1  0.96132725  0.93092296  0.67400301  1  0  -0.71163  0  2.023309  0  0  -0.647685  0  2.266885  0  0  -0.677901  0  2.257173  0  0  -0.343663  -0.6266  0  2.27293  0
O  O61  1  0.43366610  0.43089443  0.17409398  1  0  -0.711079  0  2.019499  0  0  -0.645798  0  2.262778  0  0  -0.675984  0  2.253091  0  0  -0.340865  -0.624656  0  2.268907  0
O  O62  1  0.03867439  0.06907562  0.32599801  1  0  -0.711645  0  2.023397  0  0  -0.647681  0  2.266942  0  0  -0.6779  0  2.257244  0  0  -0.343654  -0.626593  0  2.272992  0
O  O63  1  0.56633359  0.56910620  0.82590640  1  0  -0.711114  0  2.019509  0  0  -0.645822  0  2.262787  0  0  -0.676011  0  2.253099  0  0  -0.340867  -0.624679  0  2.268918  0
O  O64  1  0.65488073  0.98164733  0.66141074  1  0  -0.666815  0  2.045527  0  0  -0.596397  0  2.290137  0  0  -0.626409  0  2.280269  0  0  -0.365319  -0.575574  0  2.296415  0
O  O65  1  0.70206912  0.48158834  0.16140578  1  0  -0.667017  0  2.042495  0  0  -0.597245  0  2.288998  0  0  -0.627286  0  2.278977  0  0  -0.365335  -0.576332  0  2.295236  0
O  O66  1  0.34512129  0.01835227  0.33858930  1  0  -0.666789  0  2.045435  0  0  -0.596427  0  2.290115  0  0  -0.626385  0  2.280215  0  0  -0.365333  -0.575594  0  2.296384  0
O  O67  1  0.29793057  0.51841229  0.83859460  1  0  -0.667039  0  2.042361  0  0  -0.597279  0  2.288891  0  0  -0.627318  0  2.278868  0  0  -0.365339  -0.576367  0  2.295128  0
O  O68  1  0.66304027  0.26425075  0.36314823  1  0  -0.755997  0  2.101001  0  0  -0.685252  0  2.355423  0  0  -0.718801  0  2.347811  0  0  -0.382843  -0.661679  0  2.359585  0
O  O69  1  0.70962818  0.76425501  0.86310147  1  0  -0.756037  0  2.097546  0  0  -0.685664  0  2.352171  0  0  -0.719171  0  2.344615  0  0  -0.384851  -0.662126  0  2.356375  0
O  O70  1  0.33695914  0.73574783  0.63685229  1  0  -0.75603  0  2.101013  0  0  -0.685266  0  2.355397  0  0  -0.718821  0  2.347807  0  0  -0.382868  -0.661709  0  2.359576  0
O  O71  1  0.29037040  0.23574562  0.13689867  1  0  -0.756006  0  2.097566  0  0  -0.685656  0  2.352211  0  0  -0.719153  0  2.344637  0  0  -0.384844  -0.662118  0  2.356424  0
O  O72  1  0.43037256  0.18182078  0.47565277  1  0  -0.667591  0  2.041216  0  0  -0.603343  0  2.273624  0  0  -0.63203  0  2.264572  0  0  -0.322648  -0.583455  0  2.279358  0
O  O73  1  0.91214687  0.68187202  0.97563912  1  0  -0.666369  0  2.04111  0  0  -0.602276  0  2.27305  0  0  -0.630943  0  2.264014  0  0  -0.322187  -0.582445  0  2.278644  0
O  O74  1  0.56962876  0.81817779  0.52434721  1  0  -0.667575  0  2.041251  0  0  -0.603323  0  2.273652  0  0  -0.632013  0  2.264601  0  0  -0.322625  -0.583433  0  2.279379  0
O  O75  1  0.08785324  0.31812758  0.02436146  1  0  -0.666336  0  2.041129  0  0  -0.602248  0  2.273065  0  0  -0.630918  0  2.264029  0  0  -0.322166  -0.582411  0  2.278658  0
O  O76  1  0.19712227  0.80395235  0.84072052  1  0  -0.77934  0  2.123171  0  0  -0.712412  0  2.38653  0  0  -0.745761  0  2.378381  0  0  -0.41167  -0.688979  0  2.391238  0
O  O77  1  0.15821576  0.30390696  0.34074936  1  0  -0.778474  0  2.121083  0  0  -0.711766  0  2.385678  0  0  -0.74498  0  2.377218  0  0  -0.412135  -0.688309  0  2.390367  0
O  O78  1  0.80287672  0.19604725  0.15927981  1  0  -0.779419  0  2.123244  0  0  -0.712429  0  2.386556  0  0  -0.74578  0  2.378404  0  0  -0.411659  -0.688996  0  2.391264  0
O  O79  1  0.84178472  0.69609367  0.65925023  1  0  -0.77845  0  2.121092  0  0  -0.711769  0  2.385708  0  0  -0.74496  0  2.377194  0  0  -0.412146  -0.688316  0  2.390393  0
O  O80  1  0.32820804  0.93089161  0.88226285  1  0  -0.634418  0  1.945691  0  0  -0.580763  0  2.175188  0  0  -0.607824  0  2.167731  0  0  -0.336316  -0.562021  0  2.179809  0
O  O81  1  0.85869184  0.43091545  0.38220764  1  0  -0.632681  0  1.949213  0  0  -0.578637  0  2.178983  0  0  -0.605763  0  2.17148  0  0  -0.333782  -0.55987  0  2.183543  0
O  O82  1  0.67179133  0.06910902  0.11773649  1  0  -0.634425  0  1.945669  0  0  -0.580769  0  2.175174  0  0  -0.607832  0  2.16772  0  0  -0.336314  -0.562028  0  2.179794  0
O  O83  1  0.14130907  0.56908415  0.61779214  1  0  -0.632658  0  1.949181  0  0  -0.578658  0  2.17896  0  0  -0.605784  0  2.171456  0  0  -0.333786  -0.559901  0  2.183531  0
O  O84  1  0.94570463  0.48794064  0.84459822  1  0  -0.885294  0  1.888288  0  0  -0.831598  0  2.078558  0  0  -0.854291  0  2.045251  0  0  -0.621389  -0.815579  0  2.101635  0
O  O85  1  0.72184933  0.98800594  0.34461461  1  0  -0.88549  0  1.887526  0  0  -0.831919  0  2.07765  0  0  -0.854506  0  2.044471  0  0  -0.621507  -0.815885  0  2.100757  0
O  O86  1  0.05429516  0.51205896  0.15540132  1  0  -0.885312  0  1.888264  0  0  -0.831618  0  2.078548  0  0  -0.85431  0  2.045239  0  0  -0.62138  -0.815593  0  2.101624  0
O  O87  1  0.27815046  0.01199366  0.65538492  1  0  -0.885534  0  1.887469  0  0  -0.831943  0  2.077601  0  0  -0.854532  0  2.044413  0  0  -0.621512  -0.815907  0  2.100707  0
