# generated using pymatgen
data_ZnH22(C13O3)2
_symmetry_space_group_name_H-M   'P 1'
_cell_length_a   6.45507676
_cell_length_b   7.25760520
_cell_length_c   22.78718843
_cell_angle_alpha   89.15525727
_cell_angle_beta   98.17728385
_cell_angle_gamma   90.06433564
_symmetry_Int_Tables_number   1
_chemical_formula_structural   ZnH22(C13O3)2
_chemical_formula_sum   'Zn2 H44 C52 O12'
_cell_volume   1056.57389839
_cell_formula_units_Z   2
loop_
 _symmetry_equiv_pos_site_id
 _symmetry_equiv_pos_as_xyz
  1  'x, y, z'
loop_
 _atom_site_type_symbol
 _atom_site_label
 _atom_site_symmetry_multiplicity
 _atom_site_fract_x
 _atom_site_fract_y
 _atom_site_fract_z
 _atom_site_occupancy
 _atom_site_hle17_bader_spin_density
 _atom_site_hle17_ddec_charge
 _atom_site_hle17_ddec_spin_density
 _atom_site_hle17_ddec_sum_bond_order
 _atom_site_hle17_magmom
 _atom_site_hse06_10hf_bader_spin_density
 _atom_site_hse06_10hf_ddec_charge
 _atom_site_hse06_10hf_ddec_spin_density
 _atom_site_hse06_10hf_ddec_sum_bond_order
 _atom_site_hse06_10hf_magmom
 _atom_site_hse06_bader_spin_density
 _atom_site_hse06_ddec_charge
 _atom_site_hse06_ddec_spin_density
 _atom_site_hse06_ddec_sum_bond_order
 _atom_site_hse06_magmom
 _atom_site_pbe_bader_spin_density
 _atom_site_pbe_cm5_charge
 _atom_site_pbe_ddec_charge
 _atom_site_pbe_ddec_spin_density
 _atom_site_pbe_ddec_sum_bond_order
 _atom_site_pbe_magmom
Zn  Zn0  1  0.50000826  0.00000308  0.49999889  1  0  1.200728  0  1.701899  0  0  1.039731  0  2.149121  0  0  1.085624  0  2.089859  0  0  0.680462  1.007371  0  2.189997  0
Zn  Zn1  1  0.00000356  0.50000151  0.49999917  1  0  1.202589  0  1.701789  0  0  1.040891  0  2.149216  0  0  1.086777  0  2.089979  0  0  0.68108  1.008595  0  2.190071  0
H  H2  1  0.92731668  0.25472574  0.32579676  1  0  0.100754  0  0.951975  0  0  0.110575  0  1.014733  0  0  0.113402  0  1.013142  0  0  0.105351  0.108568  0  1.015837  0
H  H3  1  0.60320892  0.24541479  0.67410634  1  0  0.099673  0  0.953415  0  0  0.109478  0  1.016183  0  0  0.112306  0  1.014598  0  0  0.10482  0.107458  0  1.017309  0
H  H4  1  0.07269566  0.74530589  0.67419427  1  0  0.100678  0  0.952027  0  0  0.110643  0  1.014645  0  0  0.113471  0  1.013054  0  0  0.105345  0.108631  0  1.015757  0
H  H5  1  0.39678619  0.75460996  0.32588486  1  0  0.099615  0  0.95341  0  0  0.109474  0  1.016082  0  0  0.112299  0  1.0145  0  0  0.104869  0.107456  0  1.017202  0
H  H6  1  0.01720134  0.21299403  0.13729922  1  0  0.08862  0  0.987197  0  0  0.098604  0  1.05136  0  0  0.100484  0  1.052342  0  0  0.096625  0.09725  0  1.050759  0
H  H7  1  0.88131299  0.28663581  0.86245442  1  0  0.088032  0  0.986915  0  0  0.097679  0  1.051672  0  0  0.099506  0  1.052812  0  0  0.096239  0.096267  0  1.051079  0
H  H8  1  0.98282329  0.78697385  0.86270205  1  0  0.088516  0  0.987252  0  0  0.098546  0  1.051371  0  0  0.10043  0  1.05235  0  0  0.09655  0.097178  0  1.05081  0
H  H9  1  0.11863831  0.71334785  0.13753018  1  0  0.088184  0  0.986798  0  0  0.097852  0  1.051483  0  0  0.099655  0  1.05265  0  0  0.096362  0.096481  0  1.050849  0
H  H10  1  0.62203590  0.10943178  0.26841745  1  0  0.086681  0  0.971524  0  0  0.09823  0  1.034629  0  0  0.100768  0  1.034258  0  0  0.098687  0.096493  0  1.034858  0
H  H11  1  0.35611196  0.38921113  0.73173442  1  0  0.085952  0  0.973624  0  0  0.097719  0  1.036505  0  0  0.100318  0  1.03606  0  0  0.098316  0.095905  0  1.036828  0
H  H12  1  0.37796675  0.89050987  0.73158558  1  0  0.086719  0  0.971364  0  0  0.098153  0  1.034612  0  0  0.10069  0  1.03424  0  0  0.098655  0.096415  0  1.034842  0
H  H13  1  0.64388292  0.61080897  0.26827126  1  0  0.086004  0  0.973457  0  0  0.097811  0  1.036285  0  0  0.100405  0  1.035842  0  0  0.098311  0.095995  0  1.036614  0
H  H14  1  0.59581544  0.92513127  0.19753667  1  0  0.088389  0  0.969597  0  0  0.098051  0  1.035033  0  0  0.100729  0  1.034328  0  0  0.09774  0.096152  0  1.03559  0
H  H15  1  0.40128262  0.57398268  0.80273293  1  0  0.087947  0  0.969202  0  0  0.098434  0  1.033633  0  0  0.101107  0  1.032953  0  0  0.097956  0.096526  0  1.034203  0
H  H16  1  0.40420764  0.07484902  0.80246453  1  0  0.088357  0  0.969625  0  0  0.09801  0  1.035071  0  0  0.100689  0  1.034361  0  0  0.097695  0.096107  0  1.035637  0
H  H17  1  0.59870422  0.42603420  0.19728603  1  0  0.088122  0  0.969331  0  0  0.098541  0  1.033828  0  0  0.101174  0  1.03317  0  0  0.098008  0.096622  0  1.03443  0
H  H18  1  0.95188723  0.16081969  0.22272168  1  0  0.084405  0  0.968129  0  0  0.095777  0  1.031911  0  0  0.098535  0  1.031047  0  0  0.097019  0.093787  0  1.032678  0
H  H19  1  0.73143335  0.33905116  0.77717587  1  0  0.084598  0  0.968147  0  0  0.096038  0  1.031873  0  0  0.098819  0  1.030964  0  0  0.09714  0.09406  0  1.032617  0
H  H20  1  0.04812496  0.83920197  0.77727858  1  0  0.084681  0  0.967962  0  0  0.095928  0  1.03186  0  0  0.098686  0  1.030999  0  0  0.097109  0.09394  0  1.032625  0
H  H21  1  0.26853987  0.66099155  0.22281397  1  0  0.084605  0  0.968164  0  0  0.09594  0  1.032002  0  0  0.098726  0  1.03108  0  0  0.097024  0.093948  0  1.032788  0
H  H22  1  0.59251976  0.18802839  0.37171009  1  0  0.11189  0  0.956941  0  0  0.120584  0  1.018733  0  0  0.124208  0  1.01565  0  0  0.106204  0.117909  0  1.02109  0
H  H23  1  0.22290333  0.31083270  0.62839860  1  0  0.112591  0  0.956082  0  0  0.121115  0  1.018113  0  0  0.124748  0  1.015047  0  0  0.106366  0.118454  0  1.020382  0
H  H24  1  0.40746720  0.81192285  0.62829490  1  0  0.111949  0  0.956871  0  0  0.120616  0  1.018731  0  0  0.124241  0  1.015639  0  0  0.106233  0.117943  0  1.021084  0
H  H25  1  0.77712293  0.68918480  0.37160225  1  0  0.112525  0  0.956255  0  0  0.121124  0  1.018177  0  0  0.124758  0  1.015109  0  0  0.106375  0.11842  0  1.020502  0
H  H26  1  0.61828887  0.83452575  0.09505773  1  0  0.085436  0  0.985168  0  0  0.095787  0  1.046456  0  0  0.097202  0  1.048373  0  0  0.094581  0.094726  0  1.045275  0
H  H27  1  0.52535602  0.66526762  0.90525706  1  0  0.084879  0  0.985044  0  0  0.094672  0  1.046964  0  0  0.096145  0  1.048811  0  0  0.094081  0.09357  0  1.045833  0
H  H28  1  0.38175775  0.16549584  0.90494396  1  0  0.085571  0  0.985048  0  0  0.095908  0  1.046353  0  0  0.097322  0  1.048272  0  0  0.09464  0.094846  0  1.045175  0
H  H29  1  0.47456186  0.33474095  0.09476387  1  0  0.084508  0  0.985466  0  0  0.09446  0  1.047264  0  0  0.095928  0  1.049126  0  0  0.094027  0.093361  0  1.046118  0
H  H30  1  0.33818207  0.92701798  0.01281975  1  0  0.081491  0  0.964745  0  0  0.093093  0  1.026289  0  0  0.09562  0  1.025662  0  0  0.096436  0.091279  0  1.026801  0
H  H31  1  0.32605247  0.57325130  0.98723578  1  0  0.082771  0  0.964767  0  0  0.095044  0  1.02544  0  0  0.097656  0  1.024697  0  0  0.097466  0.093162  0  1.026037  0
H  H32  1  0.66187084  0.07298444  0.98717871  1  0  0.08138  0  0.965017  0  0  0.093026  0  1.026523  0  0  0.095576  0  1.02586  0  0  0.096468  0.091212  0  1.027037  0
H  H33  1  0.67383575  0.42671491  0.01277564  1  0  0.082664  0  0.96464  0  0  0.094974  0  1.025315  0  0  0.097547  0  1.024616  0  0  0.097404  0.093102  0  1.025908  0
H  H34  1  0.03744252  0.11698375  0.03541516  1  0  0.079675  0  0.973631  0  0  0.091084  0  1.037079  0  0  0.093225  0  1.036775  0  0  0.095741  0.089561  0  1.037339  0
H  H35  1  0.00249853  0.38299823  0.96437167  1  0  0.078459  0  0.973143  0  0  0.090127  0  1.036286  0  0  0.092265  0  1.035971  0  0  0.0957  0.088608  0  1.03655  0
H  H36  1  0.96260412  0.88301181  0.96458261  1  0  0.079607  0  0.973515  0  0  0.091019  0  1.036978  0  0  0.093159  0  1.036676  0  0  0.095722  0.089496  0  1.037237  0
H  H37  1  0.99740569  0.61695363  0.03561673  1  0  0.078391  0  0.973145  0  0  0.090021  0  1.036355  0  0  0.092155  0  1.036039  0  0  0.095645  0.08851  0  1.036594  0
H  H38  1  0.15207500  0.08525562  0.54696050  1  0  0.427919  0  0.871373  0  0  0.399094  0  0.930764  0  0  0.409226  0  0.91622  0  0  0.298181  0.391955  0  0.940996  0
H  H39  1  0.60431389  0.41458071  0.45300248  1  0  0.428552  0  0.871617  0  0  0.400126  0  0.930018  0  0  0.410184  0  0.915555  0  0  0.298513  0.393023  0  0.940217  0
H  H40  1  0.84794965  0.91474115  0.45304206  1  0  0.427745  0  0.871562  0  0  0.398947  0  0.930952  0  0  0.409078  0  0.916408  0  0  0.298074  0.391802  0  0.941191  0
H  H41  1  0.39567484  0.58542180  0.54699419  1  0  0.428518  0  0.871648  0  0  0.400086  0  0.930067  0  0  0.410145  0  0.915604  0  0  0.298479  0.392983  0  0.940266  0
H  H42  1  0.15306899  0.88803865  0.51691155  1  0  0.40843  0  0.903226  0  0  0.374496  0  0.977506  0  0  0.385983  0  0.960807  0  0  0.289567  0.366347  0  0.989314  0
H  H43  1  0.63615104  0.61164519  0.48316190  1  0  0.409217  0  0.90282  0  0  0.374892  0  0.976939  0  0  0.386307  0  0.960346  0  0  0.289893  0.366816  0  0.988653  0
H  H44  1  0.84697756  0.11195532  0.48309192  1  0  0.408601  0  0.903082  0  0  0.374441  0  0.977573  0  0  0.385918  0  0.960896  0  0  0.289566  0.366321  0  0.989354  0
H  H45  1  0.36385176  0.38835177  0.51683580  1  0  0.409212  0  0.902722  0  0  0.374873  0  0.976942  0  0  0.386288  0  0.96035  0  0  0.289899  0.366797  0  0.988657  0
C  C46  1  0.23781033  0.28409149  0.41662914  1  0  0.674289  0  3.835429  0  0  0.615085  0  4.131967  0  0  0.650542  0  4.123116  0  0  0.222403  0.590933  0  4.13738  0
C  C47  1  0.82225906  0.21599613  0.58331631  1  0  0.672459  0  3.834173  0  0  0.613105  0  4.130761  0  0  0.64862  0  4.121907  0  0  0.221686  0.588933  0  4.136176  0
C  C48  1  0.76219087  0.71590267  0.58336982  1  0  0.674449  0  3.835368  0  0  0.615101  0  4.132076  0  0  0.650563  0  4.123226  0  0  0.222412  0.590946  0  4.137489  0
C  C49  1  0.17776882  0.78401323  0.41668110  1  0  0.672459  0  3.834361  0  0  0.61323  0  4.130881  0  0  0.64875  0  4.122028  0  0  0.221769  0.589042  0  4.1363  0
C  C50  1  0.25756724  0.22975043  0.35501426  1  0  -0.079822  0  3.759446  0  0  -0.057663  0  3.998508  0  0  -0.067947  0  4.022931  0  0  -0.022138  -0.050978  0  3.982062  0
C  C51  1  0.90430079  0.26998737  0.64494400  1  0  -0.080215  0  3.76203  0  0  -0.057687  0  4.000372  0  0  -0.068004  0  4.024855  0  0  -0.022339  -0.050973  0  3.983876  0
C  C52  1  0.74243551  0.77023406  0.64498521  1  0  -0.079988  0  3.759443  0  0  -0.057683  0  3.998377  0  0  -0.067963  0  4.022786  0  0  -0.022089  -0.051001  0  3.981935  0
C  C53  1  0.09571458  0.73003441  0.35505288  1  0  -0.079851  0  3.76157  0  0  -0.05752  0  4.000088  0  0  -0.067842  0  4.024576  0  0  -0.022283  -0.050805  0  3.983589  0
C  C54  1  0.07818646  0.22121466  0.31249967  1  0  -0.050585  0  3.731628  0  0  -0.077028  0  3.982195  0  0  -0.075255  0  4.00303  0  0  -0.079902  -0.077932  0  3.967916  0
C  C55  1  0.76755829  0.27865548  0.68742968  1  0  -0.048152  0  3.734013  0  0  -0.074479  0  3.984199  0  0  -0.072697  0  4.005071  0  0  -0.079024  -0.075394  0  3.969904  0
C  C56  1  0.92182579  0.77879889  0.68749621  1  0  -0.050552  0  3.731548  0  0  -0.077136  0  3.982032  0  0  -0.075364  0  4.002865  0  0  -0.08  -0.078041  0  3.967755  0
C  C57  1  0.23243835  0.72136781  0.31256379  1  0  -0.048219  0  3.733605  0  0  -0.074478  0  3.983778  0  0  -0.072698  0  4.004656  0  0  -0.079117  -0.075389  0  3.969482  0
C  C58  1  0.28910955  0.13041534  0.23726979  1  0  0.063056  0  3.77  0  0  0.077081  0  3.998127  0  0  0.079313  0  4.021599  0  0  -0.002544  0.075727  0  3.982137  0
C  C59  1  0.05424228  0.36888742  0.76274871  1  0  0.061116  0  3.772062  0  0  0.076409  0  3.999082  0  0  0.078681  0  4.022566  0  0  -0.003195  0.075041  0  3.983056  0
C  C60  1  0.71090890  0.86958434  0.76272856  1  0  0.063047  0  3.769824  0  0  0.076963  0  3.99809  0  0  0.079198  0  4.021559  0  0  -0.002548  0.075611  0  3.982096  0
C  C61  1  0.94574178  0.63113439  0.23724775  1  0  0.061235  0  3.771903  0  0  0.076637  0  3.998634  0  0  0.078908  0  4.022121  0  0  -0.003069  0.075273  0  3.982606  0
C  C62  1  0.30416494  0.07582796  0.17574705  1  0  0.045387  0  3.775087  0  0  0.062153  0  4.002967  0  0  0.062176  0  4.025717  0  0  -0.007126  0.062129  0  3.987417  0
C  C63  1  0.13076105  0.42353590  0.82429388  1  0  0.043754  0  3.776356  0  0  0.05959  0  4.004983  0  0  0.059479  0  4.027893  0  0  -0.008286  0.059653  0  3.989296  0
C  C64  1  0.69586600  0.92416201  0.82425315  1  0  0.045703  0  3.774668  0  0  0.062475  0  4.002652  0  0  0.062498  0  4.025396  0  0  -0.006944  0.062448  0  3.987098  0
C  C65  1  0.86920885  0.57647615  0.17570595  1  0  0.04351  0  3.776641  0  0  0.059533  0  4.004918  0  0  0.059423  0  4.027815  0  0  -0.00828  0.059593  0  3.989239  0
C  C66  1  0.14808134  0.12758710  0.12878794  1  0  -0.111717  0  3.727798  0  0  -0.128899  0  3.967596  0  0  -0.131245  0  3.988427  0  0  -0.089673  -0.127214  0  3.953502  0
C  C67  1  0.02088308  0.37206074  0.87110427  1  0  -0.110721  0  3.726626  0  0  -0.127596  0  3.966948  0  0  -0.129908  0  3.987766  0  0  -0.089135  -0.125864  0  3.952888  0
C  C68  1  0.85195117  0.87239876  0.87121145  1  0  -0.111893  0  3.727946  0  0  -0.129119  0  3.967827  0  0  -0.13147  0  3.988658  0  0  -0.089748  -0.12743  0  3.95372  0
C  C69  1  0.97906184  0.62793091  0.12888840  1  0  -0.110704  0  3.726608  0  0  -0.127645  0  3.966878  0  0  -0.129939  0  3.987713  0  0  -0.089155  -0.125946  0  3.952797  0
C  C70  1  0.46821075  0.14034168  0.28036328  1  0  -0.129499  0  3.735144  0  0  -0.145793  0  3.984253  0  0  -0.151228  0  4.00567  0  0  -0.09231  -0.142203  0  3.969635  0
C  C71  1  0.19015370  0.35877219  0.71970085  1  0  -0.129415  0  3.737948  0  0  -0.146271  0  3.986677  0  0  -0.151729  0  4.00809  0  0  -0.092817  -0.142644  0  3.972067  0
C  C72  1  0.53179821  0.85963306  0.71963909  1  0  -0.129437  0  3.734884  0  0  -0.145597  0  3.984033  0  0  -0.151031  0  4.005451  0  0  -0.092201  -0.142011  0  3.969416  0
C  C73  1  0.80984750  0.64124256  0.28030028  1  0  -0.129491  0  3.73768  0  0  -0.146447  0  3.986431  0  0  -0.1519  0  4.007844  0  0  -0.092876  -0.142816  0  3.971804  0
C  C74  1  0.47341608  0.96986136  0.16220318  1  0  -0.117506  0  3.730811  0  0  -0.136835  0  3.978496  0  0  -0.13947  0  3.99851  0  0  -0.091105  -0.134924  0  3.964831  0
C  C75  1  0.31372222  0.52956612  0.83797769  1  0  -0.117294  0  3.729461  0  0  -0.137052  0  3.977069  0  0  -0.13967  0  3.997124  0  0  -0.091788  -0.135156  0  3.963392  0
C  C76  1  0.52660860  0.03013410  0.83779763  1  0  -0.117492  0  3.730752  0  0  -0.136743  0  3.978318  0  0  -0.139383  0  3.998342  0  0  -0.091083  -0.134831  0  3.964656  0
C  C77  1  0.68623498  0.47045106  0.16203302  1  0  -0.117493  0  3.730004  0  0  -0.137305  0  3.977622  0  0  -0.139878  0  3.997718  0  0  -0.091847  -0.13541  0  3.963935  0
C  C78  1  0.09373384  0.17077234  0.25476973  1  0  -0.11479  0  3.733839  0  0  -0.133071  0  3.983505  0  0  -0.13833  0  4.005638  0  0  -0.090306  -0.129662  0  3.968569  0
C  C79  1  0.84116998  0.32888759  0.74517119  1  0  -0.114608  0  3.735559  0  0  -0.133431  0  3.985074  0  0  -0.138705  0  4.007196  0  0  -0.089827  -0.130017  0  3.970133  0
C  C80  1  0.90628778  0.82924666  0.74522785  1  0  -0.114997  0  3.733788  0  0  -0.133172  0  3.983575  0  0  -0.138431  0  4.0057  0  0  -0.090345  -0.129762  0  3.968634  0
C  C81  1  0.15881881  0.67113706  0.25482283  1  0  -0.114661  0  3.73545  0  0  -0.133496  0  3.984951  0  0  -0.138768  0  4.007078  0  0  -0.089746  -0.13009  0  3.97001  0
C  C82  1  0.45314680  0.18729850  0.33853889  1  0  -0.040706  0  3.703046  0  0  -0.068017  0  3.954121  0  0  -0.06552  0  3.97262  0  0  -0.079135  -0.069479  0  3.941596  0
C  C83  1  0.11661934  0.31197890  0.66150145  1  0  -0.040026  0  3.703122  0  0  -0.067452  0  3.954504  0  0  -0.064956  0  3.973015  0  0  -0.078094  -0.068896  0  3.941946  0
C  C84  1  0.54685119  0.81266662  0.66146303  1  0  -0.040773  0  3.703229  0  0  -0.068106  0  3.954232  0  0  -0.065601  0  3.972723  0  0  -0.079251  -0.069565  0  3.941706  0
C  C85  1  0.88339443  0.68803867  0.33849756  1  0  -0.040012  0  3.70314  0  0  -0.067433  0  3.9545  0  0  -0.064937  0  3.973012  0  0  -0.078088  -0.068846  0  3.94196  0
C  C86  1  0.48587031  0.91707873  0.10418329  1  0  -0.074192  0  3.789948  0  0  -0.084623  0  4.034291  0  0  -0.086139  0  4.056502  0  0  -0.095736  -0.083529  0  4.019204  0
C  C87  1  0.38357009  0.58278107  0.89600951  1  0  -0.069475  0  3.786668  0  0  -0.07942  0  4.031137  0  0  -0.080985  0  4.053355  0  0  -0.093144  -0.078294  0  4.016036  0
C  C88  1  0.51417004  0.08292912  0.89581772  1  0  -0.074478  0  3.790053  0  0  -0.084893  0  4.034425  0  0  -0.086414  0  4.056638  0  0  -0.095843  -0.083799  0  4.019339  0
C  C89  1  0.61635258  0.41722633  0.10400548  1  0  -0.069139  0  3.78654  0  0  -0.079187  0  4.030985  0  0  -0.080749  0  4.053177  0  0  -0.093213  -0.078058  0  4.015889  0
C  C90  1  0.32864859  0.96853145  0.05818756  1  0  -0.085102  0  3.786159  0  0  -0.097499  0  4.03167  0  0  -0.099772  0  4.05254  0  0  -0.096473  -0.095837  0  4.017358  0
C  C91  1  0.27161192  0.53153954  0.94185335  1  0  -0.0912  0  3.787941  0  0  -0.104364  0  4.03402  0  0  -0.10671  0  4.054916  0  0  -0.099635  -0.102635  0  4.019687  0
C  C92  1  0.67139492  0.03146821  0.94181095  1  0  -0.085116  0  3.786245  0  0  -0.097552  0  4.031761  0  0  -0.099833  0  4.052626  0  0  -0.096569  -0.095892  0  4.01745  0
C  C93  1  0.72828893  0.46845162  0.05815373  1  0  -0.090826  0  3.787395  0  0  -0.104057  0  4.033529  0  0  -0.106372  0  4.054445  0  0  -0.099395  -0.102347  0  4.019195  0
C  C94  1  0.16018408  0.07428844  0.07087033  1  0  -0.078437  0  3.803787  0  0  -0.089987  0  4.049888  0  0  -0.091741  0  4.071414  0  0  -0.096812  -0.08872  0  4.035198  0
C  C95  1  0.09034928  0.42561704  0.92903474  1  0  -0.075056  0  3.801813  0  0  -0.086702  0  4.047985  0  0  -0.088452  0  4.069516  0  0  -0.095992  -0.085434  0  4.033261  0
C  C96  1  0.83985628  0.92570294  0.92912850  1  0  -0.07816  0  3.803472  0  0  -0.089689  0  4.049613  0  0  -0.091445  0  4.071147  0  0  -0.096681  -0.08842  0  4.034918  0
C  C97  1  0.90956896  0.57435937  0.07096079  1  0  -0.07524  0  3.80192  0  0  -0.086862  0  4.048171  0  0  -0.088602  0  4.069681  0  0  -0.096138  -0.085595  0  4.033467  0
O  O98  1  0.06537033  0.34894277  0.42702577  1  0  -0.613706  0  2.060872  0  0  -0.545205  0  2.319519  0  0  -0.572499  0  2.308644  0  0  -0.29867  -0.526361  0  2.326529  0
O  O99  1  0.63901651  0.15154628  0.57293454  1  0  -0.61329  0  2.059163  0  0  -0.545418  0  2.318403  0  0  -0.572669  0  2.307471  0  0  -0.29928  -0.526582  0  2.325429  0
O  O100  1  0.93464659  0.65106796  0.57297163  1  0  -0.613892  0  2.060793  0  0  -0.545252  0  2.31938  0  0  -0.572551  0  2.308506  0  0  -0.298635  -0.526399  0  2.326386  0
O  O101  1  0.36101764  0.84845896  0.42706226  1  0  -0.613196  0  2.059138  0  0  -0.545373  0  2.318323  0  0  -0.572599  0  2.307339  0  0  -0.299253  -0.52654  0  2.325361  0
O  O102  1  0.39982990  0.26477571  0.45736714  1  0  -0.71472  0  2.144833  0  0  -0.631212  0  2.385922  0  0  -0.659039  0  2.371447  0  0  -0.322647  -0.611821  0  2.395519  0
O  O103  1  0.94333826  0.23517616  0.54255609  1  0  -0.713202  0  2.144726  0  0  -0.628797  0  2.385281  0  0  -0.656861  0  2.370965  0  0  -0.321345  -0.609331  0  2.394821  0
O  O104  1  0.60017441  0.73520739  0.54263283  1  0  -0.71461  0  2.144952  0  0  -0.63109  0  2.386066  0  0  -0.658924  0  2.371599  0  0  -0.322652  -0.611702  0  2.395662  0
O  O105  1  0.05670053  0.76482758  0.45744398  1  0  -0.713346  0  2.144974  0  0  -0.629064  0  2.385518  0  0  -0.657139  0  2.371194  0  0  -0.321446  -0.60953  0  2.395005  0
O  O106  1  0.24096727  0.97560080  0.54341191  1  0  -0.815977  0  1.933475  0  0  -0.754066  0  2.146042  0  0  -0.77627  0  2.111367  0  0  -0.573903  -0.738244  0  2.170066  0
O  O107  1  0.69718011  0.52413790  0.45664736  1  0  -0.818653  0  1.933673  0  0  -0.755932  0  2.14532  0  0  -0.778026  0  2.110835  0  0  -0.575098  -0.740213  0  2.169159  0
O  O108  1  0.75906519  0.02439868  0.45659185  1  0  -0.816063  0  1.933424  0  0  -0.753819  0  2.146104  0  0  -0.77602  0  2.111439  0  0  -0.573845  -0.738027  0  2.170072  0
O  O109  1  0.30282267  0.47585491  0.54335078  1  0  -0.818597  0  1.933653  0  0  -0.755858  0  2.145364  0  0  -0.777956  0  2.110877  0  0  -0.575075  -0.740144  0  2.169209  0
