# generated using pymatgen
data_KH11C5S2NO
_symmetry_space_group_name_H-M   'P 1'
_cell_length_a   6.31800764
_cell_length_b   7.17084964
_cell_length_c   11.50121573
_cell_angle_alpha   80.35167935
_cell_angle_beta   76.09125524
_cell_angle_gamma   67.29615183
_symmetry_Int_Tables_number   1
_chemical_formula_structural   KH11C5S2NO
_chemical_formula_sum   'K2 H22 C10 S4 N2 O2'
_cell_volume   464.96600706
_cell_formula_units_Z   2
loop_
 _symmetry_equiv_pos_site_id
 _symmetry_equiv_pos_as_xyz
  1  'x, y, z'
loop_
 _atom_site_type_symbol
 _atom_site_label
 _atom_site_symmetry_multiplicity
 _atom_site_fract_x
 _atom_site_fract_y
 _atom_site_fract_z
 _atom_site_occupancy
 _atom_site_hle17_bader_spin_density
 _atom_site_hle17_ddec_charge
 _atom_site_hle17_ddec_spin_density
 _atom_site_hle17_ddec_sum_bond_order
 _atom_site_hle17_magmom
 _atom_site_hse06_10hf_bader_spin_density
 _atom_site_hse06_10hf_ddec_charge
 _atom_site_hse06_10hf_ddec_spin_density
 _atom_site_hse06_10hf_ddec_sum_bond_order
 _atom_site_hse06_10hf_magmom
 _atom_site_hse06_bader_spin_density
 _atom_site_hse06_ddec_charge
 _atom_site_hse06_ddec_spin_density
 _atom_site_hse06_ddec_sum_bond_order
 _atom_site_hse06_magmom
 _atom_site_pbe_bader_spin_density
 _atom_site_pbe_cm5_charge
 _atom_site_pbe_ddec_charge
 _atom_site_pbe_ddec_spin_density
 _atom_site_pbe_ddec_sum_bond_order
 _atom_site_pbe_magmom
K  K0  1  0.31418573  0.80090394  0.94734100  1  0  0.83854  0  0.553522  0  0  0.769663  0  0.766214  0  0  0.782855  0  0.748358  0  0  0.583109  0.759389  0  0.779454  0
K  K1  1  0.68584344  0.19909285  0.05266468  1  0  0.838566  0  0.553516  0  0  0.769702  0  0.766179  0  0  0.782896  0  0.74832  0  0  0.583092  0.75947  0  0.779348  0
H  H2  1  0.20719137  0.43191216  0.85078460  1  0  0.04616  0  0.936421  0  0  0.062308  0  1.000703  0  0  0.062505  0  1.00056  0  0  0.096513  0.062054  0  1.001024  0
H  H3  1  0.79283203  0.56809098  0.14918467  1  0  0.04612  0  0.936616  0  0  0.062183  0  1.000949  0  0  0.06238  0  1.00081  0  0  0.096538  0.061931  0  1.001266  0
H  H4  1  0.44361777  0.21806688  0.79014515  1  0  0.031253  0  0.953916  0  0  0.042136  0  1.026542  0  0  0.04208  0  1.027031  0  0  0.089684  0.042227  0  1.02605  0
H  H5  1  0.55641008  0.78194537  0.20981566  1  0  0.031023  0  0.953893  0  0  0.041884  0  1.026548  0  0  0.04183  0  1.027038  0  0  0.08965  0.041971  0  1.026065  0
H  H6  1  0.29218325  0.65563946  0.67112577  1  0  0.097989  0  0.979754  0  0  0.115942  0  1.047358  0  0  0.116692  0  1.048885  0  0  0.084206  0.115265  0  1.04645  0
H  H7  1  0.70785379  0.34437417  0.32884586  1  0  0.098028  0  0.979829  0  0  0.115937  0  1.047447  0  0  0.116692  0  1.048975  0  0  0.084157  0.11526  0  1.046541  0
H  H8  1  0.25460766  0.44626237  0.62580370  1  0  0.104171  0  0.950037  0  0  0.12595  0  1.012211  0  0  0.127485  0  1.011887  0  0  0.08328  0.124677  0  1.012739  0
H  H9  1  0.74543443  0.55375885  0.37415866  1  0  0.104191  0  0.949983  0  0  0.125969  0  1.012144  0  0  0.127491  0  1.011837  0  0  0.083313  0.1247  0  1.012663  0
H  H10  1  0.54057211  0.45074891  0.60862072  1  0  0.095264  0  0.969673  0  0  0.118671  0  1.029852  0  0  0.119507  0  1.030783  0  0  0.084732  0.118009  0  1.029255  0
H  H11  1  0.45944772  0.54927083  0.39135689  1  0  0.095298  0  0.969502  0  0  0.118691  0  1.029742  0  0  0.119531  0  1.030663  0  0  0.084778  0.118027  0  1.029144  0
H  H12  1  0.87673505  0.20312609  0.55690664  1  0  0.069323  0  0.977367  0  0  0.082338  0  1.046713  0  0  0.08353  0  1.045933  0  0  0.097691  0.081324  0  1.047522  0
H  H13  1  0.12322991  0.79688005  0.44311868  1  0  0.069261  0  0.977751  0  0  0.082277  0  1.047079  0  0  0.083467  0  1.046294  0  0  0.0977  0.081265  0  1.047888  0
H  H14  1  0.74295357  0.08235976  0.48778506  1  0  0.073765  0  0.933531  0  0  0.090509  0  0.996267  0  0  0.091232  0  0.996197  0  0  0.106207  0.090064  0  0.996294  0
H  H15  1  0.25703154  0.91762513  0.51223370  1  0  0.073705  0  0.933286  0  0  0.090495  0  0.996034  0  0  0.091222  0  0.99595  0  0  0.106173  0.090049  0  0.996064  0
H  H16  1  0.78508737  0.66352028  0.70929468  1  0  0.104115  0  0.977011  0  0  0.120628  0  1.045811  0  0  0.122276  0  1.044985  0  0  0.099556  0.119268  0  1.046683  0
H  H17  1  0.21483821  0.33647846  0.29074265  1  0  0.104178  0  0.977045  0  0  0.120622  0  1.04589  0  0  0.122258  0  1.045086  0  0  0.099569  0.119265  0  1.046762  0
H  H18  1  0.77389166  0.75086604  0.55434822  1  0  0.096925  0  0.940613  0  0  0.118004  0  1.003934  0  0  0.119291  0  1.002908  0  0  0.102339  0.116667  0  1.005271  0
H  H19  1  0.22603448  0.24914327  0.44569144  1  0  0.09695  0  0.940496  0  0  0.117943  0  1.003932  0  0  0.119229  0  1.002906  0  0  0.10234  0.116609  0  1.005264  0
H  H20  1  0.53383219  0.86779891  0.67004446  1  0  0.083557  0  0.966125  0  0  0.0998  0  1.042873  0  0  0.100898  0  1.042313  0  0  0.092646  0.098773  0  1.043597  0
H  H21  1  0.46611131  0.13224366  0.32998171  1  0  0.08354  0  0.966039  0  0  0.09979  0  1.042768  0  0  0.100889  0  1.042208  0  0  0.092622  0.09877  0  1.043486  0
H  H22  1  0.69413768  0.36440049  0.80781607  1  0  0.328253  0  0.963193  0  0  0.305742  0  1.04268  0  0  0.314731  0  1.03288  0  0  0.262693  0.299218  0  1.04985  0
H  H23  1  0.30588479  0.63558893  0.19217037  1  0  0.327967  0  0.963395  0  0  0.305595  0  1.042611  0  0  0.314582  0  1.032816  0  0  0.262559  0.299074  0  1.049773  0
C  C24  1  0.89322697  0.96288133  0.75288181  1  0  0.272195  0  3.809538  0  0  0.247393  0  4.105356  0  0  0.27106  0  4.114369  0  0  0.121313  0.231421  0  4.097962  0
C  C25  1  0.10677822  0.03709427  0.24714829  1  0  0.272164  0  3.809526  0  0  0.24731  0  4.105366  0  0  0.270959  0  4.114423  0  0  0.121299  0.231333  0  4.09798  0
C  C26  1  0.38103089  0.38391356  0.79225153  1  0  0.189896  0  3.640017  0  0  0.141607  0  3.907662  0  0  0.149178  0  3.914375  0  0  -0.087343  0.136432  0  3.902873  0
C  C27  1  0.61900489  0.61607138  0.20771362  1  0  0.190323  0  3.640276  0  0  0.14218  0  3.907794  0  0  0.149758  0  3.91449  0  0  -0.087239  0.13699  0  3.903033  0
C  C28  1  0.36674926  0.49038640  0.66700623  1  0  -0.324742  0  3.683115  0  0  -0.398827  0  3.922041  0  0  -0.402283  0  3.932571  0  0  -0.253615  -0.39611  0  3.914796  0
C  C29  1  0.63330863  0.50962412  0.33295777  1  0  -0.324992  0  3.683093  0  0  -0.399064  0  3.922077  0  0  -0.402511  0  3.932611  0  0  -0.253752  -0.396368  0  3.914877  0
C  C30  1  0.88101868  0.05697395  0.53768316  1  0  -0.028688  0  3.657003  0  0  -0.091434  0  3.909333  0  0  -0.087898  0  3.921279  0  0  -0.065962  -0.093659  0  3.900595  0
C  C31  1  0.11893631  0.94299291  0.46234399  1  0  -0.02861  0  3.656642  0  0  -0.091511  0  3.909045  0  0  -0.087959  0  3.920975  0  0  -0.066048  -0.093757  0  3.900343  0
C  C32  1  0.72601003  0.79670840  0.64643559  1  0  -0.171871  0  3.658296  0  0  -0.271651  0  3.901668  0  0  -0.268408  0  3.910557  0  0  -0.139869  -0.273375  0  3.895831  0
C  C33  1  0.27392771  0.20330852  0.35358699  1  0  -0.172022  0  3.658331  0  0  -0.271715  0  3.901785  0  0  -0.268469  0  3.910676  0  0  -0.139969  -0.273447  0  3.895947  0
S  S34  1  0.03598355  0.12865485  0.74711561  1  0  -0.579023  0  1.946777  0  0  -0.553902  0  2.270247  0  0  -0.568187  0  2.261606  0  0  -0.248692  -0.543534  0  2.276252  0
S  S35  1  0.96402102  0.87132242  0.25289268  1  0  -0.578983  0  1.94654  0  0  -0.553916  0  2.269954  0  0  -0.568196  0  2.261314  0  0  -0.248681  -0.543536  0  2.275956  0
S  S36  1  0.82691693  0.82661674  0.88462501  1  0  -0.600457  0  1.921453  0  0  -0.569815  0  2.241919  0  0  -0.585003  0  2.234992  0  0  -0.30211  -0.558917  0  2.24667  0
S  S37  1  0.17313582  0.17336621  0.11539115  1  0  -0.600695  0  1.920886  0  0  -0.570015  0  2.241296  0  0  -0.585204  0  2.23437  0  0  -0.3022  -0.559112  0  2.246051  0
N  N38  1  0.83562933  0.94025528  0.65114830  1  0  -0.098757  0  3.425465  0  0  0.00902  0  3.641297  0  0  -0.01032  0  3.666942  0  0  -0.271652  0.02244  0  3.623115  0
N  N39  1  0.16433431  0.05973430  0.34886845  1  0  -0.098492  0  3.425552  0  0  0.009473  0  3.641144  0  0  -0.009866  0  3.666781  0  0  -0.27134  0.022899  0  3.622958  0
O  O40  1  0.53025235  0.43556480  0.84856723  1  0  -0.627831  0  2.096617  0  0  -0.564039  0  2.321043  0  0  -0.581186  0  2.311027  0  0  -0.534674  -0.551594  0  2.328041  0
O  O41  1  0.46978865  0.56443515  0.15140962  1  0  -0.627557  0  2.09704  0  0  -0.563873  0  2.321344  0  0  -0.581017  0  2.311329  0  0  -0.534613  -0.55143  0  2.32834  0
