# generated using pymatgen
data_Cu3H16C12(N8O)2
_symmetry_space_group_name_H-M   'P 1'
_cell_length_a   7.57654171
_cell_length_b   7.89554644
_cell_length_c   9.33684264
_cell_angle_alpha   81.89083494
_cell_angle_beta   66.04606686
_cell_angle_gamma   69.65832851
_symmetry_Int_Tables_number   1
_chemical_formula_structural   Cu3H16C12(N8O)2
_chemical_formula_sum   'Cu3 H16 C12 N16 O2'
_cell_volume   478.60049987
_cell_formula_units_Z   1
loop_
 _symmetry_equiv_pos_site_id
 _symmetry_equiv_pos_as_xyz
  1  'x, y, z'
loop_
 _atom_site_type_symbol
 _atom_site_label
 _atom_site_symmetry_multiplicity
 _atom_site_fract_x
 _atom_site_fract_y
 _atom_site_fract_z
 _atom_site_occupancy
 _atom_site_pbe_cm5_charge
 _atom_site_pbe_ddec_charge
 _atom_site_pbe_ddec_spin_density
 _atom_site_pbe_ddec_sum_bond_order
 _atom_site_pbe_magmom
Cu  Cu0  1  0.99999989  1.00000000  0.00000155  1  0.77175  0.646874  -0.642359  2.253477  -0.523
Cu  Cu1  1  0.26916584  0.50016587  0.46173063  1  0.596126  0.261319  -0.064876  2.551513  -0.055
Cu  Cu2  1  0.73083509  0.49983359  0.53826955  1  0.596117  0.261344  -0.06489  2.551487  -0.055
H  H3  1  0.57115488  0.98297961  0.28300606  1  0.106071  0.121148  0.000161  1.002817  0.0
H  H4  1  0.14588336  0.01698326  0.28278331  1  0.106249  0.121188  0.000163  1.003074  0.0
H  H5  1  0.42884664  0.01701851  0.71699258  1  0.106084  0.121164  0.000161  1.002821  0.0
H  H6  1  0.85411661  0.98301890  0.71721687  1  0.106256  0.121202  0.000163  1.003045  0.0
H  H7  1  0.52804788  0.78443944  0.38578252  1  0.103474  0.111892  -5e-06  1.027621  0.0
H  H8  1  0.08620798  0.21562793  0.38542865  1  0.103437  0.112223  -1.7e-05  1.027255  0.0
H  H9  1  0.47195413  0.21556001  0.61421659  1  0.103489  0.111912  -5e-06  1.0276  0.0
H  H10  1  0.91379101  0.78437154  0.61457058  1  0.103431  0.112208  -1.7e-05  1.027269  0.0
H  H11  1  0.68541955  0.62176265  0.12741283  1  0.094945  0.05899  2.9e-05  0.99411  0.0
H  H12  1  0.18714465  0.37821181  0.12714323  1  0.094701  0.05829  2.9e-05  0.994738  0.0
H  H13  1  0.31458353  0.37823680  0.87258521  1  0.094946  0.058998  2.9e-05  0.994101  0.0
H  H14  1  0.81285279  0.62178902  0.87285707  1  0.094698  0.058296  2.9e-05  0.994733  0.0
H  H15  1  0.45976921  0.80590051  0.14909511  1  0.096793  0.057712  8e-06  1.050591  0.0
H  H16  1  0.39115917  0.19413242  0.14877430  1  0.096799  0.057705  7e-06  1.049678  0.0
H  H17  1  0.54023005  0.19409761  0.85090721  1  0.096822  0.0578  8e-06  1.050569  0.0
H  H18  1  0.60883924  0.80586840  0.85122648  1  0.096775  0.057672  7e-06  1.049697  0.0
C  C19  1  0.83767029  0.76909061  0.27916634  1  0.218014  0.315868  0.000301  3.964502  -0.001
C  C20  1  0.88314003  0.23090014  0.27897846  1  0.218531  0.315209  0.000401  3.962103  -0.001
C  C21  1  0.16233650  0.23091017  0.72082897  1  0.218023  0.315785  0.000301  3.964579  -0.001
C  C22  1  0.11685836  0.76909529  0.72102136  1  0.218561  0.315131  0.0004  3.962112  -0.001
C  C23  1  0.62838846  0.83444520  0.27955008  1  -0.158299  -0.274021  0.000323  3.955064  0.0
C  C24  1  0.09209850  0.16549604  0.27927194  1  -0.158681  -0.274357  0.000314  3.957237  0.0
C  C25  1  0.37161537  0.16555154  0.72045105  1  -0.158371  -0.274077  0.000323  3.955137  0.0
C  C26  1  0.90789943  0.83450614  0.72072884  1  -0.158658  -0.274318  0.000314  3.957248  0.0
C  C27  1  0.61884492  0.77034126  0.13763456  1  -0.072738  0.047939  0.00017  3.899898  0.0
C  C28  1  0.24356363  0.22964872  0.13730234  1  -0.072382  0.048986  0.000165  3.902185  0.0
C  C29  1  0.38115795  0.22965818  0.86236658  1  -0.07276  0.047851  0.00017  3.899898  0.0
C  C30  1  0.75643177  0.77035212  0.86269855  1  -0.072384  0.048993  0.000165  3.902243  0.0
N  N31  1  0.99943837  0.81381155  0.17365670  1  -0.250295  -0.256658  -0.049921  3.549801  -0.068
N  N32  1  0.82671050  0.18614688  0.17367041  1  -0.250853  -0.257034  -0.050085  3.548332  -0.068
N  N33  1  0.00056389  0.18618385  0.82634503  1  -0.250277  -0.25662  -0.049923  3.549611  -0.068
N  N34  1  0.17328490  0.81385665  0.82633095  1  -0.25083  -0.256979  -0.050087  3.548229  -0.068
N  N35  1  0.15942894  0.72692011  0.21406646  1  -0.091431  -0.063311  2.6e-05  3.23124  0.0
N  N36  1  0.62627114  0.27324479  0.21411144  1  -0.090368  -0.061746  0.000129  3.231863  0.0
N  N37  1  0.84057501  0.27307932  0.78593361  1  -0.091426  -0.063304  2.6e-05  3.231234  0.0
N  N38  1  0.37372570  0.72675469  0.78588992  1  -0.090408  -0.061798  0.000129  3.231887  0.0
N  N39  1  0.09710619  0.63150469  0.34092678  1  -0.151983  -0.037593  -0.00426  3.620283  -0.006
N  N40  1  0.56190894  0.36882633  0.34082768  1  -0.153209  -0.039676  -0.004583  3.624472  -0.007
N  N41  1  0.90289631  0.36849610  0.65907281  1  -0.15197  -0.037579  -0.00426  3.620331  -0.006
N  N42  1  0.43808790  0.63117315  0.65917368  1  -0.153181  -0.039692  -0.004583  3.624483  -0.007
N  N43  1  0.89547317  0.65368155  0.38417842  1  -0.26815  -0.248682  -0.00408  3.499416  -0.005
N  N44  1  0.72042660  0.34655970  0.38393419  1  -0.267877  -0.246577  -0.004575  3.499366  -0.006
N  N45  1  0.10453019  0.34631654  0.61582272  1  -0.268157  -0.248623  -0.00408  3.499544  -0.005
N  N46  1  0.27956869  0.65344114  0.61606824  1  -0.267913  -0.246501  -0.004575  3.499403  -0.006
O  O47  1  0.73200707  0.85093828  0.00017598  1  -0.234734  -0.252268  0.001362  2.525092  0.0
O  O48  1  0.26799241  0.14906254  0.99982372  1  -0.234754  -0.252289  0.001362  2.525078  0.0
