# generated using pymatgen
data_TmH4(C3O4)2
_symmetry_space_group_name_H-M   'P 1'
_cell_length_a   10.32700625
_cell_length_b   18.46620546
_cell_length_c   18.46620245
_cell_angle_alpha   90.00014238
_cell_angle_beta   90.00002556
_cell_angle_gamma   90.00001903
_symmetry_Int_Tables_number   1
_chemical_formula_structural   TmH4(C3O4)2
_chemical_formula_sum   'Tm16 H64 C96 O128'
_cell_volume   3521.51624189
_cell_formula_units_Z   16
loop_
 _symmetry_equiv_pos_site_id
 _symmetry_equiv_pos_as_xyz
  1  'x, y, z'
loop_
 _atom_site_type_symbol
 _atom_site_label
 _atom_site_symmetry_multiplicity
 _atom_site_fract_x
 _atom_site_fract_y
 _atom_site_fract_z
 _atom_site_occupancy
 _atom_site_pbe_bader_charge
 _atom_site_pbe_bader_spin_density
 _atom_site_pbe_cm5_charge
 _atom_site_pbe_ddec_charge
 _atom_site_pbe_ddec_spin_density
 _atom_site_pbe_ddec_sum_bond_order
 _atom_site_pbe_magmom
Tm  Tm0  1  0.64988283  0.97873041  0.25299376  1  2.199883  0  1.563441  2.137775  0  2.19086  0
Tm  Tm1  1  0.64988366  0.52126934  0.24700604  1  2.199917  0  1.563446  2.137786  0  2.190799  0
Tm  Tm2  1  0.64988193  0.24700600  0.97873059  1  2.199877  0  1.563456  2.137735  0  2.190942  0
Tm  Tm3  1  0.64988272  0.25299475  0.52126946  1  2.199883  0  1.56345  2.137767  0  2.19084  0
Tm  Tm4  1  0.85011793  0.02126960  0.75299415  1  2.199907  0  1.563464  2.137723  0  2.190943  0
Tm  Tm5  1  0.85011806  0.47873065  0.74700594  1  2.199919  0  1.563477  2.137789  0  2.190846  0
Tm  Tm6  1  0.85011610  0.75299349  0.47873131  1  2.199893  0  1.563436  2.137763  0  2.190892  0
Tm  Tm7  1  0.85011592  0.74700577  0.02126908  1  2.199882  0  1.563447  2.137756  0  2.19086  0
Tm  Tm8  1  0.35011436  0.02126846  0.74700585  1  2.199917  0  1.563437  2.13777  0  2.19086  0
Tm  Tm9  1  0.35011449  0.47873061  0.75299412  1  2.199947  0  1.563426  2.137774  0  2.190855  0
Tm  Tm10  1  0.35011525  0.75299450  0.02126902  1  2.199886  0  1.563429  2.137729  0  2.1909  0
Tm  Tm11  1  0.35011446  0.74700683  0.47873070  1  2.199895  0  1.563455  2.137814  0  2.190801  0
Tm  Tm12  1  0.14988507  0.97873090  0.24700546  1  2.199905  0  1.563431  2.137748  0  2.190898  0
Tm  Tm13  1  0.14988396  0.52126985  0.25299421  1  2.199892  0  1.563461  2.13775  0  2.190877  0
Tm  Tm14  1  0.14988496  0.24700539  0.52126939  1  2.199885  0  1.563403  2.137771  0  2.190855  0
Tm  Tm15  1  0.14988611  0.25299365  0.97873107  1  2.199894  0  1.563458  2.13778  0  2.190858  0
H  H16  1  0.69921073  0.83195691  0.26096869  1  0.636695  0  0.322398  0.397246  0  0.912075  0
H  H17  1  0.81519303  0.85611016  0.20713579  1  0.631559  0  0.330176  0.409913  0  0.891809  0
H  H18  1  0.69692715  0.11258485  0.16428631  1  0.668782  0  0.309393  0.425552  0  0.894737  0
H  H19  1  0.55341316  0.11998326  0.19789310  1  0.659727  0  0.338873  0.441447  0  0.837235  0
H  H20  1  0.69920971  0.66804286  0.23903166  1  0.636693  0  0.322395  0.397242  0  0.912059  0
H  H21  1  0.81519397  0.64388963  0.29286350  1  0.631487  0  0.330181  0.409923  0  0.891753  0
H  H22  1  0.69692633  0.38741467  0.33571334  1  0.668797  0  0.309366  0.425487  0  0.894826  0
H  H23  1  0.55341231  0.38001732  0.30210705  1  0.659725  0  0.338871  0.441448  0  0.837235  0
H  H24  1  0.69920885  0.23903126  0.83195704  1  0.636685  0  0.322378  0.397233  0  0.912052  0
H  H25  1  0.81519409  0.29286369  0.85611043  1  0.631487  0  0.330179  0.409929  0  0.891756  0
H  H26  1  0.69692623  0.33571292  0.11258510  1  0.668798  0  0.309374  0.425504  0  0.894809  0
H  H27  1  0.55341222  0.30210720  0.11998234  1  0.659732  0  0.338874  0.441456  0  0.837226  0
H  H28  1  0.69921073  0.26096951  0.66804302  1  0.636695  0  0.322397  0.397258  0  0.91204  0
H  H29  1  0.81519398  0.20713710  0.64388965  1  0.631575  0  0.33019  0.40996  0  0.891742  0
H  H30  1  0.69692628  0.16428714  0.38741454  1  0.668791  0  0.309379  0.425515  0  0.894791  0
H  H31  1  0.55341326  0.19789337  0.38001673  1  0.659728  0  0.338873  0.441452  0  0.83723  0
H  H32  1  0.80078906  0.16804366  0.76096890  1  0.63669  0  0.322394  0.397233  0  0.912075  0
H  H33  1  0.68480673  0.14388973  0.70713591  1  0.631563  0  0.330184  0.409927  0  0.891788  0
H  H34  1  0.80307354  0.88741494  0.66428722  1  0.66879  0  0.309375  0.425515  0  0.894789  0
H  H35  1  0.94658755  0.88001662  0.69789294  1  0.659726  0  0.338877  0.441465  0  0.837212  0
H  H36  1  0.80079007  0.33195712  0.73903118  1  0.636677  0  0.322372  0.39724  0  0.912006  0
H  H37  1  0.68480586  0.35611103  0.79286306  1  0.631433  0  0.330185  0.409932  0  0.891751  0
H  H38  1  0.80307353  0.61258555  0.83571302  1  0.668792  0  0.30937  0.42549  0  0.89483  0
H  H39  1  0.94658752  0.61998336  0.80210679  1  0.659724  0  0.338887  0.441466  0  0.837208  0
H  H40  1  0.80079004  0.76096841  0.33195722  1  0.636697  0  0.322396  0.397251  0  0.912056  0
H  H41  1  0.68480579  0.70713604  0.35611046  1  0.631478  0  0.330198  0.409932  0  0.891775  0
H  H42  1  0.80307345  0.66428674  0.61258546  1  0.668783  0  0.309398  0.425552  0  0.894739  0
H  H43  1  0.94658747  0.69789302  0.61998282  1  0.65973  0  0.338883  0.441462  0  0.837214  0
H  H44  1  0.80078996  0.73903083  0.16804261  1  0.636681  0  0.322382  0.397259  0  0.911992  0
H  H45  1  0.68480573  0.79286373  0.14388934  1  0.631486  0  0.330184  0.409924  0  0.89176  0
H  H46  1  0.80307361  0.83571320  0.88741478  1  0.668794  0  0.309379  0.425511  0  0.894797  0
H  H47  1  0.94658663  0.80210641  0.88001692  1  0.65973  0  0.338874  0.441458  0  0.837221  0
H  H48  1  0.30078936  0.16804197  0.73903146  1  0.636702  0  0.322407  0.397246  0  0.912075  0
H  H49  1  0.18480610  0.14388925  0.79286327  1  0.631488  0  0.330178  0.409898  0  0.8918  0
H  H50  1  0.30307294  0.88741402  0.83571385  1  0.668777  0  0.30941  0.425591  0  0.894679  0
H  H51  1  0.44658693  0.88001724  0.80210651  1  0.659738  0  0.338874  0.441477  0  0.83718  0
H  H52  1  0.30078941  0.33195710  0.76096850  1  0.636694  0  0.322399  0.39724  0  0.912072  0
H  H53  1  0.18480612  0.35610979  0.70713611  1  0.631557  0  0.330184  0.409916  0  0.891799  0
H  H54  1  0.30307182  0.61258529  0.66428681  1  0.668784  0  0.309397  0.425578  0  0.894698  0
H  H55  1  0.44658584  0.61998264  0.69789310  1  0.659746  0  0.338868  0.441478  0  0.837184  0
H  H56  1  0.30078834  0.76096924  0.16804311  1  0.636679  0  0.322399  0.397239  0  0.912085  0
H  H57  1  0.18480504  0.70713681  0.14388972  1  0.631488  0  0.330179  0.409926  0  0.891749  0
H  H58  1  0.30307290  0.66428649  0.88741451  1  0.668789  0  0.309388  0.425559  0  0.894724  0
H  H59  1  0.44658594  0.69789384  0.88001727  1  0.659743  0  0.338872  0.441466  0  0.837198  0
H  H60  1  0.30079033  0.73903207  0.33195713  1  0.636692  0  0.322383  0.397231  0  0.912082  0
H  H61  1  0.18480611  0.79286394  0.35611050  1  0.63148  0  0.33019  0.409915  0  0.891809  0
H  H62  1  0.30307284  0.83571390  0.61258507  1  0.668781  0  0.309379  0.425527  0  0.894767  0
H  H63  1  0.44658683  0.80210713  0.61998234  1  0.659743  0  0.338878  0.441478  0  0.83718  0
H  H64  1  0.19920909  0.83195738  0.23903180  1  0.636674  0  0.322385  0.397237  0  0.912056  0
H  H65  1  0.31519433  0.85611076  0.29286370  1  0.631424  0  0.33021  0.40995  0  0.891757  0
H  H66  1  0.19692655  0.11258556  0.33571348  1  0.668785  0  0.309396  0.425554  0  0.89473  0
H  H67  1  0.05341351  0.11998226  0.30210667  1  0.659741  0  0.338884  0.441477  0  0.837203  0
H  H68  1  0.19921002  0.66804338  0.26096897  1  0.636685  0  0.32237  0.39722  0  0.912073  0
H  H69  1  0.31519327  0.64389001  0.20713601  1  0.631567  0  0.330196  0.409943  0  0.891767  0
H  H70  1  0.19692753  0.38741495  0.16428659  1  0.668791  0  0.309389  0.42555  0  0.894734  0
H  H71  1  0.05341354  0.38001714  0.19789282  1  0.659741  0  0.338874  0.441475  0  0.837186  0
H  H72  1  0.19921102  0.23903046  0.66804347  1  0.63669  0  0.322388  0.39724  0  0.912069  0
H  H73  1  0.31519334  0.29286338  0.64388969  1  0.63157  0  0.330195  0.409939  0  0.891781  0
H  H74  1  0.19692664  0.33571322  0.38741469  1  0.668792  0  0.309396  0.425568  0  0.894713  0
H  H75  1  0.05341359  0.30210640  0.38001734  1  0.659744  0  0.338878  0.441485  0  0.837172  0
H  H76  1  0.19921013  0.26096858  0.83195754  1  0.63668  0  0.322394  0.397243  0  0.912052  0
H  H77  1  0.31519339  0.20713569  0.85611027  1  0.631478  0  0.330188  0.4099  0  0.891785  0
H  H78  1  0.19692648  0.16428621  0.11258537  1  0.668783  0  0.309382  0.425529  0  0.894767  0
H  H79  1  0.05341346  0.19789300  0.11998269  1  0.659739  0  0.338868  0.441455  0  0.83721  0
C  C80  1  0.92995701  0.02146579  0.43813679  1  0.071547  0  0.002973  -0.05776  0  3.896998  0
C  C81  1  0.97783467  0.95029874  0.44340162  1  0.004724  0  0.009946  -0.062857  0  3.881638  0
C  C82  1  0.95426806  0.07094110  0.49414404  1  -0.059675  0  0.008756  -0.055603  0  3.892217  0
C  C83  1  0.84331911  0.04601379  0.37720333  1  1.615124  0  0.230673  0.616432  0  4.216452  0
C  C84  1  0.97552709  0.89652693  0.38179441  1  1.628754  0  0.247342  0.698252  0  4.106719  0
C  C85  1  0.90595883  0.14817840  0.48952055  1  1.639181  0  0.236756  0.674541  0  4.183627  0
C  C86  1  0.92995797  0.47853378  0.06186237  1  0.071793  0  0.002919  -0.05789  0  3.897099  0
C  C87  1  0.97783536  0.54970107  0.05659772  1  0.004729  0  0.009952  -0.062789  0  3.881574  0
C  C88  1  0.95426894  0.42905846  0.00585621  1  -0.059695  0  0.008796  -0.055511  0  3.892282  0
C  C89  1  0.84331913  0.45398630  0.12279690  1  1.61433  0  0.230661  0.616443  0  4.21641  0
C  C90  1  0.97552689  0.60347289  0.11820493  1  1.628742  0  0.247287  0.698244  0  4.106716  0
C  C91  1  0.90595967  0.35182170  0.01048024  1  1.639161  0  0.236784  0.674601  0  4.18354  0
C  C92  1  0.92995879  0.06186231  0.02146590  1  0.071633  0  0.002934  -0.057787  0  3.897067  0
C  C93  1  0.97783654  0.05659817  0.95029953  1  0.004828  0  0.009928  -0.062879  0  3.88167  0
C  C94  1  0.95426788  0.00585520  0.07094054  1  -0.059672  0  0.0088  -0.055576  0  3.892203  0
C  C95  1  0.84331900  0.12279634  0.04601351  1  1.614897  0  0.230641  0.616381  0  4.216449  0
C  C96  1  0.97552900  0.11820416  0.89652786  1  1.628723  0  0.247328  0.69837  0  4.10667  0
C  C97  1  0.90595962  0.01047941  0.14817786  1  1.639154  0  0.236751  0.674508  0  4.183701  0
C  C98  1  0.92995909  0.43813834  0.47853381  1  0.07152  0  0.002931  -0.057853  0  3.897099  0
C  C99  1  0.97783650  0.44340264  0.54970059  1  0.004893  0  0.009964  -0.062788  0  3.881585  0
C  C100  1  0.95426913  0.49414491  0.42905917  1  -0.059627  0  0.008796  -0.055563  0  3.892124  0
C  C101  1  0.84331924  0.37720429  0.45398672  1  1.614893  0  0.230689  0.61651  0  4.216542  0
C  C102  1  0.97552702  0.38179557  0.60347226  1  1.628726  0  0.247366  0.698397  0  4.106657  0
C  C103  1  0.90595984  0.48952069  0.35182292  1  1.639145  0  0.236785  0.674514  0  4.183743  0
C  C104  1  0.57004196  0.97853414  0.93813678  1  0.071539  0  0.002972  -0.05771  0  3.89698  0
C  C105  1  0.52216334  0.04970012  0.94340146  1  0.004707  0  0.009917  -0.062948  0  3.881738  0
C  C106  1  0.54573289  0.92905897  0.99414444  1  -0.059658  0  0.008768  -0.055612  0  3.89226  0
C  C107  1  0.65668078  0.95398653  0.87720328  1  1.615127  0  0.23066  0.616409  0  4.21652  0
C  C108  1  0.52447281  0.10347178  0.88179547  1  1.628722  0  0.247424  0.698481  0  4.106559  0
C  C109  1  0.59404212  0.85182274  0.98952131  1  1.639153  0  0.236744  0.674517  0  4.183845  0
C  C110  1  0.57004167  0.52146684  0.56186177  1  0.07138  0  0.002965  -0.057799  0  3.897062  0
C  C111  1  0.52216427  0.45030007  0.55659801  1  0.004833  0  0.009962  -0.062728  0  3.881515  0
C  C112  1  0.54573065  0.57094147  0.50585573  1  -0.059448  0  0.008752  -0.055614  0  3.892276  0
C  C113  1  0.65668056  0.54601393  0.62279638  1  1.614903  0  0.230657  0.616428  0  4.216399  0
C  C114  1  0.52447182  0.39652841  0.61820346  1  1.628701  0  0.247322  0.698323  0  4.106666  0
C  C115  1  0.59403896  0.64817879  0.51047996  1  1.639151  0  0.236768  0.674548  0  4.183556  0
C  C116  1  0.57004178  0.93813713  0.52146579  1  0.071818  0  0.002983  -0.057763  0  3.896994  0
C  C117  1  0.52216534  0.94340179  0.45029902  1  0.004704  0  0.009928  -0.062878  0  3.88163  0
C  C118  1  0.54573080  0.99414328  0.57094165  1  -0.059672  0  0.008718  -0.055637  0  3.892231  0
C  C119  1  0.65668063  0.87720315  0.54601436  1  1.614901  0  0.230672  0.616444  0  4.216421  0
C  C120  1  0.52447284  0.88179513  0.39652719  1  1.628736  0  0.247331  0.698335  0  4.10668  0
C  C121  1  0.59404106  0.98951980  0.64817897  1  1.639173  0  0.236745  0.674529  0  4.183546  0
C  C122  1  0.57004185  0.56186223  0.97853331  1  0.071559  0  0.002957  -0.05775  0  3.89709  0
C  C123  1  0.52216507  0.55659795  0.04970020  1  0.00473  0  0.009904  -0.062915  0  3.881729  0
C  C124  1  0.54573080  0.50585608  0.92905799  1  -0.059447  0  0.008775  -0.0556  0  3.89222  0
C  C125  1  0.65668071  0.62279622  0.95398585  1  1.614901  0  0.230656  0.616408  0  4.216452  0
C  C126  1  0.52447362  0.61820569  0.10347203  1  1.628749  0  0.24735  0.698281  0  4.106633  0
C  C127  1  0.59404100  0.51047957  0.85182122  1  1.639181  0  0.236792  0.67461  0  4.183434  0
C  C128  1  0.07004211  0.97853471  0.56186120  1  0.071286  0  0.002935  -0.057811  0  3.897139  0
C  C129  1  0.02216542  0.04970121  0.55659691  1  0.00491  0  0.009975  -0.062837  0  3.881594  0
C  C130  1  0.04573300  0.92905994  0.50585449  1  -0.059408  0  0.008856  -0.0555  0  3.89232  0
C  C131  1  0.15667711  0.95398617  0.62279574  1  1.614875  0  0.230609  0.616442  0  4.216345  0
C  C132  1  0.02447300  0.10347249  0.61820574  1  1.628766  0  0.247365  0.698339  0  4.106569  0
C  C133  1  0.09403933  0.85182372  0.51047906  1  1.639156  0  0.236835  0.674582  0  4.183656  0
C  C134  1  0.07004116  0.52146456  0.93813778  1  0.071514  0  0.002939  -0.057768  0  3.897093  0
C  C135  1  0.02216666  0.45029834  0.94340298  1  0.004727  0  0.009991  -0.062869  0  3.881635  0
C  C136  1  0.04573308  0.57094041  0.99414502  1  -0.059484  0  0.008828  -0.05557  0  3.892242  0
C  C137  1  0.15667709  0.54601312  0.87720380  1  1.61487  0  0.23065  0.616505  0  4.216261  0
C  C138  1  0.02447416  0.39652652  0.88179468  1  1.628745  0  0.247337  0.698371  0  4.106581  0
C  C139  1  0.09404043  0.64817663  0.98952100  1  1.639162  0  0.236795  0.674566  0  4.183775  0
C  C140  1  0.07004226  0.93813765  0.97853480  1  0.071403  0  0.002951  -0.05779  0  3.89708  0
C  C141  1  0.02216548  0.94340178  0.04970170  1  0.004884  0  0.009976  -0.062823  0  3.881547  0
C  C142  1  0.04573512  0.99414530  0.92906016  1  -0.059439  0  0.008839  -0.055531  0  3.892238  0
C  C143  1  0.15668109  0.87720361  0.95398664  1  1.61433  0  0.23067  0.616452  0  4.21645  0
C  C144  1  0.02447303  0.88179472  0.10347337  1  1.628724  0  0.247296  0.698355  0  4.106579  0
C  C145  1  0.09404144  0.98952000  0.85182338  1  1.639151  0  0.236769  0.674452  0  4.183893  0
C  C146  1  0.07004294  0.56186324  0.52146526  1  0.071409  0  0.002963  -0.05781  0  3.897112  0
C  C147  1  0.02216650  0.55659894  0.45029848  1  0.004872  0  0.01  -0.062768  0  3.881433  0
C  C148  1  0.04573483  0.50585504  0.57093990  1  -0.059697  0  0.008792  -0.05561  0  3.892351  0
C  C149  1  0.15667989  0.62279729  0.54601452  1  1.614542  0  0.230662  0.61648  0  4.216463  0
C  C150  1  0.02447307  0.61820547  0.39652735  1  1.628726  0  0.247313  0.698378  0  4.106615  0
C  C151  1  0.09404122  0.51048035  0.64817669  1  1.639166  0  0.236735  0.674447  0  4.183873  0
C  C152  1  0.42995716  0.02146473  0.06186174  1  0.071342  0  0.002947  -0.057746  0  3.897118  0
C  C153  1  0.47783288  0.95029822  0.05659761  1  0.004897  0  0.00993  -0.062938  0  3.881716  0
C  C154  1  0.45426527  0.07093991  0.00585462  1  -0.059475  0  0.008825  -0.055529  0  3.89228  0
C  C155  1  0.34331931  0.04601397  0.12279633  1  1.614899  0  0.230663  0.616424  0  4.216462  0
C  C156  1  0.47552535  0.89652709  0.11820469  1  1.628697  0  0.247314  0.698331  0  4.10663  0
C  C157  1  0.40595894  0.14817668  0.01047938  1  1.639167  0  0.236709  0.67437  0  4.183984  0
C  C158  1  0.42995745  0.47853528  0.43813729  1  0.071347  0  0.002967  -0.0578  0  3.89707  0
C  C159  1  0.47783388  0.54970205  0.44340214  1  0.004925  0  0.009963  -0.062837  0  3.881567  0
C  C160  1  0.45426460  0.42906011  0.49414550  1  -0.059426  0  0.008822  -0.055599  0  3.892282  0
C  C161  1  0.34331953  0.45398657  0.37720323  1  1.61432  0  0.230653  0.616444  0  4.216521  0
C  C162  1  0.47552730  0.60347371  0.38179452  1  1.62873  0  0.247303  0.698336  0  4.106624  0
C  C163  1  0.40595822  0.35182387  0.48952074  1  1.639148  0  0.236717  0.674456  0  4.183933  0
C  C164  1  0.42995831  0.06186175  0.47853490  1  0.071305  0  0.002925  -0.057842  0  3.897152  0
C  C165  1  0.47783378  0.05659709  0.54970167  1  0.004926  0  0.009987  -0.062788  0  3.881549  0
C  C166  1  0.45426735  0.00585451  0.42905959  1  -0.059436  0  0.00883  -0.055512  0  3.892253  0
C  C167  1  0.34332237  0.12279572  0.45398688  1  1.614946  0  0.230682  0.616537  0  4.216308  0
C  C168  1  0.47552628  0.11820591  0.60347350  1  1.628756  0  0.247337  0.698293  0  4.106701  0
C  C169  1  0.40595903  0.01047908  0.35182335  1  1.639156  0  0.236749  0.67446  0  4.183791  0
C  C170  1  0.42995824  0.43813772  0.02146522  1  0.071552  0  0.002915  -0.057852  0  3.897196  0
C  C171  1  0.47783405  0.44340309  0.95029887  1  0.004744  0  0.00998  -0.062795  0  3.881584  0
C  C172  1  0.45426639  0.49414550  0.07094000  1  -0.059484  0  0.008865  -0.055487  0  3.892318  0
C  C173  1  0.34332325  0.37720319  0.04601376  1  1.614946  0  0.23063  0.616434  0  4.216393  0
C  C174  1  0.47552550  0.38179427  0.89652704  1  1.628745  0  0.247343  0.698304  0  4.106657  0
C  C175  1  0.40595910  0.48952147  0.14817622  1  1.639169  0  0.2367  0.674448  0  4.183884  0
O  O176  1  0.76909547  0.86649838  0.25200859  1  -1.228006  0  -0.601223  -0.788281  0  2.142893  0
O  O177  1  0.63265103  0.09149447  0.19899942  1  -1.287036  0  -0.636  -0.867793  0  2.039496  0
O  O178  1  0.82694168  0.11292790  0.36777808  1  -1.16248  0  -0.293812  -0.539922  0  2.17195  0
O  O179  1  0.78880697  0.99601779  0.34033119  1  -1.207926  0  -0.432467  -0.701949  0  2.390281  0
O  O180  1  0.93256787  0.83317824  0.39249441  1  -1.196472  0  -0.379456  -0.650239  0  2.287399  0
O  O181  1  0.03146257  0.91506441  0.32341794  1  -1.213073  0  -0.427658  -0.710284  0  2.352701  0
O  O182  1  0.98452855  0.19592777  0.46600793  1  -1.200457  0  -0.428895  -0.70479  0  2.335204  0
O  O183  1  0.79593567  0.16184718  0.51645733  1  -1.200911  0  -0.401263  -0.661754  0  2.309976  0
O  O184  1  0.76909636  0.63350194  0.24799015  1  -1.227907  0  -0.601231  -0.788282  0  2.142831  0
O  O185  1  0.63265019  0.40850612  0.30100021  1  -1.287039  0  -0.635958  -0.867719  0  2.039497  0
O  O186  1  0.82694070  0.38707218  0.13222106  1  -1.162482  0  -0.293808  -0.539918  0  2.171962  0
O  O187  1  0.78880868  0.50398253  0.15966864  1  -1.207324  0  -0.432446  -0.701943  0  2.390274  0
O  O188  1  0.93256964  0.66682157  0.10750545  1  -1.196473  0  -0.379419  -0.650185  0  2.287374  0
O  O189  1  0.03146144  0.58493577  0.17658170  1  -1.213059  0  -0.427647  -0.710306  0  2.352724  0
O  O190  1  0.98452841  0.30407181  0.03399287  1  -1.200468  0  -0.428908  -0.704807  0  2.335167  0
O  O191  1  0.79593591  0.33815252  0.98354221  1  -1.200882  0  -0.40128  -0.661818  0  2.309945  0
O  O192  1  0.76909553  0.24799037  0.86649800  1  -1.228481  0  -0.601212  -0.788273  0  2.142815  0
O  O193  1  0.63265105  0.30100029  0.09149409  1  -1.287044  0  -0.635971  -0.867723  0  2.039469  0
O  O194  1  0.82694061  0.13222067  0.11292766  1  -1.162465  0  -0.293801  -0.539909  0  2.171964  0
O  O195  1  0.78880795  0.15966866  0.99601830  1  -1.207881  0  -0.432448  -0.701937  0  2.39033  0
O  O196  1  0.93256783  0.10750561  0.83318076  1  -1.196424  0  -0.37944  -0.650191  0  2.28728  0
O  O197  1  0.03146355  0.17658100  0.91506546  1  -1.213042  0  -0.42764  -0.710372  0  2.35269  0
O  O198  1  0.98452743  0.03399270  0.19592675  1  -1.200442  0  -0.428858  -0.704718  0  2.335224  0
O  O199  1  0.79593577  0.98354181  0.16184727  1  -1.200843  0  -0.401279  -0.661781  0  2.310013  0
O  O200  1  0.76909544  0.25200932  0.63350153  1  -1.227989  0  -0.601236  -0.788346  0  2.142846  0
O  O201  1  0.63265114  0.19900030  0.40850554  1  -1.287045  0  -0.63597  -0.867735  0  2.039458  0
O  O202  1  0.82693885  0.36777888  0.38707256  1  -1.162468  0  -0.293868  -0.540005  0  2.171937  0
O  O203  1  0.78880780  0.34033266  0.50398178  1  -1.207911  0  -0.432425  -0.701915  0  2.3904  0
O  O204  1  0.93256784  0.39249411  0.66681989  1  -1.196441  0  -0.379477  -0.650246  0  2.287324  0
O  O205  1  0.03146056  0.32341910  0.58493388  1  -1.213022  0  -0.427647  -0.71039  0  2.352711  0
O  O206  1  0.98452857  0.46600796  0.30407351  1  -1.200422  0  -0.428901  -0.704761  0  2.335275  0
O  O207  1  0.79593473  0.51645744  0.33815365  1  -1.200887  0  -0.401302  -0.661781  0  2.309994  0
O  O208  1  0.73090529  0.13350163  0.75200869  1  -1.227998  0  -0.601219  -0.788272  0  2.142876  0
O  O209  1  0.86734872  0.90850595  0.69899986  1  -1.287036  0  -0.635974  -0.867756  0  2.039464  0
O  O210  1  0.67306014  0.88707239  0.86777787  1  -1.162475  0  -0.293816  -0.539928  0  2.171937  0
O  O211  1  0.71119289  0.00398190  0.84033151  1  -1.20793  0  -0.43244  -0.701907  0  2.390414  0
O  O212  1  0.56743300  0.16681941  0.89249401  1  -1.196392  0  -0.379485  -0.650271  0  2.287347  0
O  O213  1  0.46853788  0.08493405  0.82341797  1  -1.213066  0  -0.427665  -0.710367  0  2.352564  0
O  O214  1  0.51547334  0.80407277  0.96600856  1  -1.200393  0  -0.428911  -0.704804  0  2.335323  0
O  O215  1  0.70406684  0.83815387  0.01645876  1  -1.200943  0  -0.40124  -0.661734  0  2.310095  0
O  O216  1  0.73090439  0.36649860  0.74799029  1  -1.227388  0  -0.601218  -0.788281  0  2.142793  0
O  O217  1  0.86734867  0.59149455  0.80100040  1  -1.287036  0  -0.635979  -0.867725  0  2.039467  0
O  O218  1  0.67305997  0.61292807  0.63222125  1  -1.16249  0  -0.293823  -0.539955  0  2.171938  0
O  O219  1  0.71119200  0.49601833  0.65966855  1  -1.207869  0  -0.432436  -0.701937  0  2.390303  0
O  O220  1  0.56743197  0.33318079  0.60750547  1  -1.196385  0  -0.37945  -0.650184  0  2.287343  0
O  O221  1  0.46853695  0.41506558  0.67658040  1  -1.213017  0  -0.427663  -0.710393  0  2.352604  0
O  O222  1  0.51547120  0.69592820  0.53399323  1  -1.200486  0  -0.428881  -0.704783  0  2.335161  0
O  O223  1  0.70406310  0.66184752  0.48354267  1  -1.200803  0  -0.401286  -0.661761  0  2.309934  0
O  O224  1  0.73090338  0.75200938  0.36649814  1  -1.228492  0  -0.601238  -0.788277  0  2.142823  0
O  O225  1  0.86734862  0.69899932  0.59149400  1  -1.287041  0  -0.636009  -0.867794  0  2.039473  0
O  O226  1  0.67305810  0.86777845  0.61292794  1  -1.162496  0  -0.29382  -0.539935  0  2.171961  0
O  O227  1  0.71119204  0.84033088  0.49601811  1  -1.207881  0  -0.432443  -0.701946  0  2.390314  0
O  O228  1  0.56743106  0.89249406  0.33317851  1  -1.19647  0  -0.379455  -0.650229  0  2.287332  0
O  O229  1  0.46853891  0.82341824  0.41506422  1  -1.213061  0  -0.427654  -0.71035  0  2.352687  0
O  O230  1  0.51547135  0.96600663  0.69592833  1  -1.200487  0  -0.4289  -0.704777  0  2.335132  0
O  O231  1  0.70406395  0.01645744  0.66184761  1  -1.200839  0  -0.40124  -0.661739  0  2.310012  0
O  O232  1  0.73090426  0.74799039  0.13350113  1  -1.227451  0  -0.601221  -0.788298  0  2.142798  0
O  O233  1  0.86734877  0.80099955  0.90850571  1  -1.287053  0  -0.635971  -0.867737  0  2.039457  0
O  O234  1  0.67306007  0.63222147  0.88707227  1  -1.162495  0  -0.293819  -0.539937  0  2.171964  0
O  O235  1  0.71119276  0.65966781  0.00398278  1  -1.207919  0  -0.432442  -0.701909  0  2.390271  0
O  O236  1  0.56743285  0.60750623  0.16682072  1  -1.196441  0  -0.379453  -0.650205  0  2.287368  0
O  O237  1  0.46853970  0.67658203  0.08493390  1  -1.213076  0  -0.427656  -0.710286  0  2.352586  0
O  O238  1  0.51547126  0.53399218  0.80407130  1  -1.200533  0  -0.42888  -0.704796  0  2.335126  0
O  O239  1  0.70406512  0.48354279  0.83815299  1  -1.200867  0  -0.4013  -0.661814  0  2.309945  0
O  O240  1  0.23090365  0.13350212  0.74799048  1  -1.227487  0  -0.601244  -0.788254  0  2.14289  0
O  O241  1  0.36734713  0.90850549  0.80100073  1  -1.287047  0  -0.636006  -0.86784  0  2.039349  0
O  O242  1  0.17305745  0.88707368  0.63222207  1  -1.16245  0  -0.293791  -0.539927  0  2.171952  0
O  O243  1  0.21118925  0.00398271  0.65966896  1  -1.207872  0  -0.432416  -0.701951  0  2.390148  0
O  O244  1  0.06743126  0.16682226  0.60750574  1  -1.196468  0  -0.379474  -0.65026  0  2.287245  0
O  O245  1  0.96853946  0.08493338  0.67658005  1  -1.213063  0  -0.427646  -0.71028  0  2.352707  0
O  O246  1  0.01547251  0.80407490  0.53399276  1  -1.200399  0  -0.428929  -0.704799  0  2.335239  0
O  O247  1  0.20406442  0.83815440  0.48354174  1  -1.20092  0  -0.401349  -0.661812  0  2.309819  0
O  O248  1  0.23090373  0.36649747  0.75200892  1  -1.228561  0  -0.601222  -0.788248  0  2.142852  0
O  O249  1  0.36734699  0.59149438  0.69900048  1  -1.287055  0  -0.635987  -0.867819  0  2.03939  0
O  O250  1  0.17305746  0.61292561  0.86777747  1  -1.162421  0  -0.29382  -0.539983  0  2.171849  0
O  O251  1  0.21118947  0.49601634  0.84033151  1  -1.207939  0  -0.432429  -0.701986  0  2.390196  0
O  O252  1  0.06743529  0.33317731  0.89249524  1  -1.196541  0  -0.379469  -0.650248  0  2.287263  0
O  O253  1  0.96854155  0.41506527  0.82341899  1  -1.213037  0  -0.427629  -0.710346  0  2.352687  0
O  O254  1  0.01547265  0.69592598  0.96600782  1  -1.200399  0  -0.428883  -0.704791  0  2.335334  0
O  O255  1  0.20406612  0.66184635  0.01645794  1  -1.200873  0  -0.401321  -0.66178  0  2.309927  0
O  O256  1  0.23090456  0.75200958  0.13350161  1  -1.227894  0  -0.601229  -0.788279  0  2.142872  0
O  O257  1  0.36734711  0.69900021  0.90850498  1  -1.287055  0  -0.635983  -0.867783  0  2.039415  0
O  O258  1  0.17306045  0.86777821  0.88707304  1  -1.162461  0  -0.293828  -0.539939  0  2.171939  0
O  O259  1  0.21119214  0.84033184  0.00398348  1  -1.207393  0  -0.432452  -0.701956  0  2.390322  0
O  O260  1  0.06743130  0.89249434  0.16682210  1  -1.196463  0  -0.379428  -0.650221  0  2.28729  0
O  O261  1  0.96853944  0.82341896  0.08493523  1  -1.213036  0  -0.427625  -0.710341  0  2.352644  0
O  O262  1  0.01547460  0.96600726  0.80407503  1  -1.200386  0  -0.428903  -0.704717  0  2.33534  0
O  O263  1  0.20406722  0.01645761  0.83815451  1  -1.200893  0  -0.401294  -0.661768  0  2.310031  0
O  O264  1  0.23090369  0.74799064  0.36649754  1  -1.228058  0  -0.601222  -0.788257  0  2.142889  0
O  O265  1  0.36734701  0.80100128  0.59149461  1  -1.287049  0  -0.635989  -0.867786  0  2.039442  0
O  O266  1  0.17305833  0.63222162  0.61292813  1  -1.162496  0  -0.293802  -0.539951  0  2.17202  0
O  O267  1  0.21119035  0.65967054  0.49601891  1  -1.207303  0  -0.432471  -0.70197  0  2.390223  0
O  O268  1  0.06743128  0.60750530  0.33317863  1  -1.196468  0  -0.379422  -0.650223  0  2.287386  0
O  O269  1  0.96853856  0.67658140  0.41506464  1  -1.21307  0  -0.42764  -0.710372  0  2.352651  0
O  O270  1  0.01547346  0.53399308  0.69592502  1  -1.200405  0  -0.428911  -0.704721  0  2.335278  0
O  O271  1  0.20406632  0.48354144  0.66184705  1  -1.200873  0  -0.401279  -0.661763  0  2.310019  0
O  O272  1  0.26909674  0.86649779  0.24798984  1  -1.22739  0  -0.601247  -0.78829  0  2.142828  0
O  O273  1  0.13265234  0.09149509  0.30100084  1  -1.287052  0  -0.636002  -0.867794  0  2.039437  0
O  O274  1  0.32694092  0.11292756  0.13222119  1  -1.162475  0  -0.293806  -0.539919  0  2.171958  0
O  O275  1  0.28880816  0.99601752  0.15966810  1  -1.20789  0  -0.432442  -0.701923  0  2.390325  0
O  O276  1  0.43256805  0.83317784  0.10750506  1  -1.196465  0  -0.379447  -0.650207  0  2.287342  0
O  O277  1  0.53146027  0.91506536  0.17658001  1  -1.213005  0  -0.427601  -0.710299  0  2.352667  0
O  O278  1  0.48452675  0.19592447  0.03399267  1  -1.200386  0  -0.428914  -0.704708  0  2.335328  0
O  O279  1  0.29593325  0.16184554  0.98354193  1  -1.20095  0  -0.401236  -0.661692  0  2.310085  0
O  O280  1  0.26909473  0.63350190  0.25200932  1  -1.228444  0  -0.601215  -0.788281  0  2.14286  0
O  O281  1  0.13265239  0.40850595  0.19899975  1  -1.287043  0  -0.635986  -0.867801  0  2.039432  0
O  O282  1  0.32694109  0.38707297  0.36777836  1  -1.162453  0  -0.293811  -0.539932  0  2.171943  0
O  O283  1  0.28880712  0.50398271  0.34033160  1  -1.207383  0  -0.432434  -0.701909  0  2.390315  0
O  O284  1  0.43256715  0.66682187  0.39249523  1  -1.196466  0  -0.379425  -0.650228  0  2.287383  0
O  O285  1  0.53146120  0.58493492  0.32341921  1  -1.213054  0  -0.427637  -0.710352  0  2.352634  0
O  O286  1  0.48452695  0.30407555  0.46600800  1  -1.200361  0  -0.428929  -0.704766  0  2.335303  0
O  O287  1  0.29593312  0.33815352  0.51645857  1  -1.200952  0  -0.401231  -0.661735  0  2.310093  0
O  O288  1  0.26909574  0.24799058  0.63350201  1  -1.227992  0  -0.60123  -0.788297  0  2.142887  0
O  O289  1  0.13265341  0.30099955  0.40850561  1  -1.287061  0  -0.635987  -0.867813  0  2.039389  0
O  O290  1  0.32694199  0.13222150  0.38707438  1  -1.162505  0  -0.293843  -0.539977  0  2.171877  0
O  O291  1  0.28881096  0.15966800  0.50398312  1  -1.207925  0  -0.432404  -0.701962  0  2.390215  0
O  O292  1  0.43256516  0.10750536  0.66682273  1  -1.196499  0  -0.37949  -0.650272  0  2.287368  0
O  O293  1  0.53146118  0.17658064  0.58493376  1  -1.213053  0  -0.427625  -0.710302  0  2.352718  0
O  O294  1  0.48452777  0.03399170  0.30407399  1  -1.200393  0  -0.428877  -0.704738  0  2.335251  0
O  O295  1  0.29593421  0.98354252  0.33815416  1  -1.200875  0  -0.401304  -0.661787  0  2.310049  0
O  O296  1  0.26909680  0.25200956  0.86649794  1  -1.227892  0  -0.601233  -0.78824  0  2.142808  0
O  O297  1  0.13265229  0.19899932  0.09149444  1  -1.287052  0  -0.635977  -0.867755  0  2.039471  0
O  O298  1  0.32694389  0.36777795  0.11292626  1  -1.162528  0  -0.293793  -0.539916  0  2.171958  0
O  O299  1  0.28881411  0.34032944  0.99601737  1  -1.207865  0  -0.432437  -0.701944  0  2.390162  0
O  O300  1  0.43256628  0.39249481  0.83317726  1  -1.196492  0  -0.379485  -0.650267  0  2.287367  0
O  O301  1  0.53146136  0.32341901  0.91506571  1  -1.213059  0  -0.427634  -0.7103  0  2.35271  0
O  O302  1  0.48452689  0.46600778  0.19592560  1  -1.200386  0  -0.428891  -0.704792  0  2.335309  0
O  O303  1  0.29593497  0.51645879  0.16184662  1  -1.200944  0  -0.401251  -0.661704  0  2.309985  0
