# generated using pymatgen
data_HgH10C11S2(BrN)2
_symmetry_space_group_name_H-M   'P 1'
_cell_length_a   7.57438559
_cell_length_b   8.21453386
_cell_length_c   23.87543090
_cell_angle_alpha   90.00005136
_cell_angle_beta   90.00011323
_cell_angle_gamma   94.04986500
_symmetry_Int_Tables_number   1
_chemical_formula_structural   HgH10C11S2(BrN)2
_chemical_formula_sum   'Hg4 H40 C44 S8 Br8 N8'
_cell_volume   1481.82100512
_cell_formula_units_Z   4
loop_
 _symmetry_equiv_pos_site_id
 _symmetry_equiv_pos_as_xyz
  1  'x, y, z'
loop_
 _atom_site_type_symbol
 _atom_site_label
 _atom_site_symmetry_multiplicity
 _atom_site_fract_x
 _atom_site_fract_y
 _atom_site_fract_z
 _atom_site_occupancy
 _atom_site_hle17_bader_spin_density
 _atom_site_hle17_ddec_charge
 _atom_site_hle17_ddec_spin_density
 _atom_site_hle17_ddec_sum_bond_order
 _atom_site_hle17_magmom
 _atom_site_hse06_10hf_bader_spin_density
 _atom_site_hse06_10hf_ddec_charge
 _atom_site_hse06_10hf_ddec_spin_density
 _atom_site_hse06_10hf_ddec_sum_bond_order
 _atom_site_hse06_10hf_magmom
 _atom_site_hse06_bader_spin_density
 _atom_site_hse06_ddec_charge
 _atom_site_hse06_ddec_spin_density
 _atom_site_hse06_ddec_sum_bond_order
 _atom_site_hse06_magmom
 _atom_site_pbe_bader_spin_density
 _atom_site_pbe_cm5_charge
 _atom_site_pbe_ddec_charge
 _atom_site_pbe_ddec_spin_density
 _atom_site_pbe_ddec_sum_bond_order
 _atom_site_pbe_magmom
Hg  Hg0  1  0.04937374  0.51968708  0.79468021  1  0  0.634576  0  2.146965  0  0  0.488604  0  2.661582  0  0  0.536213  0  2.63032  0  0  0.440494  0.456423  0  2.682253  0
Hg  Hg1  1  0.54936941  0.51967460  0.70531653  1  0  0.634569  0  2.147132  0  0  0.488582  0  2.661754  0  0  0.536189  0  2.630491  0  0  0.440497  0.456401  0  2.682427  0
Hg  Hg2  1  0.95063101  0.48032194  0.20531897  1  0  0.634533  0  2.147011  0  0  0.48855  0  2.661623  0  0  0.53616  0  2.63036  0  0  0.440477  0.456368  0  2.682294  0
Hg  Hg3  1  0.45062909  0.48032221  0.29468223  1  0  0.634496  0  2.14706  0  0  0.488512  0  2.661659  0  0  0.536119  0  2.630396  0  0  0.44046  0.45633  0  2.682329  0
H  H4  1  0.13015566  0.93236011  0.90481611  1  0  0.11857  0  0.968098  0  0  0.128996  0  1.034886  0  0  0.131302  0  1.033018  0  0  0.090002  0.127321  0  1.036341  0
H  H5  1  0.63016054  0.93235584  0.59518374  1  0  0.118527  0  0.968178  0  0  0.128983  0  1.034945  0  0  0.131287  0  1.033079  0  0  0.09001  0.127308  0  1.036398  0
H  H6  1  0.86984211  0.06764404  0.09518391  1  0  0.118498  0  0.968161  0  0  0.128958  0  1.034913  0  0  0.131264  0  1.033043  0  0  0.089985  0.127281  0  1.036369  0
H  H7  1  0.36984335  0.06764219  0.40481753  1  0  0.118534  0  0.968204  0  0  0.128987  0  1.034938  0  0  0.131292  0  1.033069  0  0  0.090019  0.127311  0  1.036391  0
H  H8  1  0.35508886  0.02357579  0.89690791  1  0  0.12406  0  0.957106  0  0  0.13131  0  1.02702  0  0  0.133393  0  1.025949  0  0  0.10652  0.12983  0  1.027821  0
H  H9  1  0.85509550  0.02357642  0.60309138  1  0  0.124082  0  0.957134  0  0  0.131337  0  1.027032  0  0  0.13342  0  1.025962  0  0  0.106515  0.129857  0  1.027832  0
H  H10  1  0.64490710  0.97642226  0.10309253  1  0  0.124084  0  0.957023  0  0  0.131336  0  1.026936  0  0  0.133418  0  1.025865  0  0  0.106504  0.129856  0  1.027737  0
H  H11  1  0.14490961  0.97642039  0.39690906  1  0  0.124108  0  0.957064  0  0  0.131337  0  1.026987  0  0  0.133419  0  1.025918  0  0  0.106528  0.129858  0  1.027788  0
H  H12  1  0.25005791  0.91297399  0.81175898  1  0  0.10699  0  0.991241  0  0  0.115221  0  1.057638  0  0  0.118577  0  1.056865  0  0  0.091645  0.112801  0  1.058385  0
H  H13  1  0.75005273  0.91296880  0.68824094  1  0  0.106958  0  0.991306  0  0  0.115218  0  1.057686  0  0  0.118575  0  1.056897  0  0  0.091618  0.112798  0  1.058433  0
H  H14  1  0.74995164  0.08702890  0.18824230  1  0  0.106986  0  0.991275  0  0  0.115241  0  1.05765  0  0  0.118598  0  1.05687  0  0  0.091651  0.11282  0  1.058398  0
H  H15  1  0.24994690  0.08702558  0.31175865  1  0  0.106976  0  0.991305  0  0  0.115206  0  1.057711  0  0  0.118562  0  1.056935  0  0  0.091649  0.112785  0  1.058458  0
H  H16  1  0.26507694  0.85784718  0.70995222  1  0  0.083723  0  0.983742  0  0  0.088582  0  1.057792  0  0  0.091447  0  1.054937  0  0  0.085542  0.086438  0  1.059891  0
H  H17  1  0.76507525  0.85784472  0.79004727  1  0  0.083731  0  0.983753  0  0  0.088596  0  1.057805  0  0  0.091461  0  1.054949  0  0  0.085567  0.086454  0  1.059903  0
H  H18  1  0.73492826  0.14215084  0.29004821  1  0  0.083732  0  0.983759  0  0  0.088593  0  1.057807  0  0  0.091459  0  1.054953  0  0  0.085551  0.086451  0  1.059908  0
H  H19  1  0.23492741  0.14215453  0.20995317  1  0  0.083748  0  0.983695  0  0  0.088628  0  1.057753  0  0  0.091495  0  1.054898  0  0  0.085576  0.086483  0  1.059849  0
H  H20  1  0.16477351  0.06816066  0.64162618  1  0  0.116124  0  0.958874  0  0  0.123347  0  1.02275  0  0  0.127645  0  1.020097  0  0  0.107557  0.120265  0  1.024825  0
H  H21  1  0.66477490  0.06815840  0.85837300  1  0  0.116185  0  0.958808  0  0  0.123397  0  1.02269  0  0  0.127696  0  1.020034  0  0  0.107577  0.120315  0  1.024767  0
H  H22  1  0.83522651  0.93183859  0.35837426  1  0  0.116132  0  0.958851  0  0  0.12337  0  1.022704  0  0  0.127669  0  1.02005  0  0  0.107572  0.120287  0  1.024781  0
H  H23  1  0.33522551  0.93184574  0.14162576  1  0  0.116149  0  0.958799  0  0  0.123396  0  1.022641  0  0  0.127695  0  1.019986  0  0  0.107596  0.120312  0  1.024718  0
H  H24  1  0.06630078  0.33011335  0.67995346  1  0  0.081461  0  0.964971  0  0  0.085911  0  1.038737  0  0  0.08898  0  1.035452  0  0  0.102113  0.083619  0  1.041167  0
H  H25  1  0.56629806  0.33011220  0.82004574  1  0  0.081484  0  0.964786  0  0  0.0859  0  1.038595  0  0  0.088987  0  1.035293  0  0  0.10209  0.083609  0  1.041023  0
H  H26  1  0.93370707  0.66988467  0.32004656  1  0  0.081465  0  0.964901  0  0  0.085897  0  1.038689  0  0  0.088984  0  1.035388  0  0  0.1021  0.083608  0  1.041114  0
H  H27  1  0.43370177  0.66988462  0.17995344  1  0  0.081478  0  0.964883  0  0  0.08597  0  1.038614  0  0  0.08902  0  1.035347  0  0  0.102118  0.083677  0  1.041044  0
H  H28  1  0.38044243  0.28363402  0.07218441  1  0  0.106446  0  0.986139  0  0  0.115942  0  1.050005  0  0  0.119812  0  1.04793  0  0  0.084287  0.113024  0  1.05186  0
H  H29  1  0.88044426  0.28363195  0.42781585  1  0  0.106509  0  0.986208  0  0  0.11599  0  1.050084  0  0  0.119852  0  1.048021  0  0  0.084309  0.11307  0  1.051944  0
H  H30  1  0.61955798  0.71637012  0.92781602  1  0  0.106435  0  0.986144  0  0  0.115911  0  1.050037  0  0  0.119788  0  1.047957  0  0  0.084272  0.112997  0  1.051889  0
H  H31  1  0.11954954  0.71637220  0.57218668  1  0  0.106522  0  0.986104  0  0  0.115983  0  1.05001  0  0  0.119872  0  1.047918  0  0  0.084271  0.11309  0  1.051839  0
H  H32  1  0.67565751  0.43623934  0.08112468  1  0  0.081736  0  0.973544  0  0  0.088374  0  1.045587  0  0  0.090901  0  1.043599  0  0  0.085324  0.086487  0  1.047105  0
H  H33  1  0.17565630  0.43623876  0.41887508  1  0  0.081685  0  0.973623  0  0  0.088322  0  1.045668  0  0  0.090855  0  1.043665  0  0  0.085311  0.086433  0  1.04719  0
H  H34  1  0.32434808  0.56376357  0.91887450  1  0  0.081722  0  0.973617  0  0  0.088334  0  1.045676  0  0  0.090867  0  1.043672  0  0  0.085325  0.086449  0  1.04719  0
H  H35  1  0.82433854  0.56376173  0.58112536  1  0  0.081707  0  0.973604  0  0  0.08837  0  1.04563  0  0  0.090896  0  1.043645  0  0  0.085316  0.086477  0  1.047151  0
H  H36  1  0.88528896  0.43957016  0.99899886  1  0  0.091896  0  0.984347  0  0  0.101009  0  1.050258  0  0  0.104489  0  1.048093  0  0  0.092307  0.098497  0  1.052042  0
H  H37  1  0.38529120  0.43957933  0.50100099  1  0  0.091873  0  0.984378  0  0  0.100989  0  1.050281  0  0  0.104471  0  1.04811  0  0  0.092288  0.098473  0  1.052071  0
H  H38  1  0.11471190  0.56042299  0.00099906  1  0  0.091866  0  0.984386  0  0  0.100977  0  1.0503  0  0  0.104454  0  1.048146  0  0  0.092321  0.098465  0  1.052079  0
H  H39  1  0.61470872  0.56041870  0.49899819  1  0  0.091851  0  0.984391  0  0  0.100954  0  1.050313  0  0  0.104437  0  1.048143  0  0  0.092261  0.098443  0  1.052096  0
H  H40  1  0.78863584  0.29174778  0.91208184  1  0  0.044089  0  0.992392  0  0  0.046242  0  1.073496  0  0  0.048302  0  1.071915  0  0  0.088314  0.04472  0  1.074696  0
H  H41  1  0.28863939  0.29174988  0.58791832  1  0  0.044171  0  0.992481  0  0  0.046325  0  1.073568  0  0  0.048384  0  1.071989  0  0  0.088318  0.044803  0  1.074767  0
H  H42  1  0.21135748  0.70825027  0.08791692  1  0  0.044132  0  0.992476  0  0  0.04628  0  1.073582  0  0  0.04834  0  1.072001  0  0  0.088325  0.044756  0  1.074783  0
H  H43  1  0.71136318  0.70824815  0.41208170  1  0  0.044187  0  0.992482  0  0  0.046344  0  1.073558  0  0  0.048403  0  1.071979  0  0  0.088347  0.04482  0  1.074759  0
C  C44  1  0.21903234  0.04288431  0.90977004  1  0  -0.183766  0  3.62632  0  0  -0.213024  0  3.885059  0  0  -0.21059  0  3.891276  0  0  -0.138842  -0.214734  0  3.880751  0
C  C45  1  0.71903748  0.04288369  0.59022958  1  0  -0.183771  0  3.626383  0  0  -0.213084  0  3.885157  0  0  -0.210647  0  3.891371  0  0  -0.138831  -0.214794  0  3.880848  0
C  C46  1  0.78096513  0.95711617  0.09023039  1  0  -0.183734  0  3.626263  0  0  -0.213035  0  3.885021  0  0  -0.210595  0  3.891228  0  0  -0.138817  -0.214747  0  3.880714  0
C  C47  1  0.28096640  0.95711434  0.40977169  1  0  -0.18385  0  3.626571  0  0  -0.213084  0  3.885256  0  0  -0.210649  0  3.891471  0  0  -0.138856  -0.214796  0  3.880949  0
C  C48  1  0.15379242  0.15324732  0.80025327  1  0  0.193022  0  3.781407  0  0  0.189459  0  4.041951  0  0  0.201906  0  4.061804  0  0  0.112196  0.181113  0  4.028433  0
C  C49  1  0.65379250  0.15324092  0.69974467  1  0  0.192854  0  3.781652  0  0  0.189307  0  4.042188  0  0  0.201754  0  4.062049  0  0  0.112112  0.18096  0  4.028667  0
C  C50  1  0.84621053  0.84675560  0.19974591  1  0  0.192805  0  3.781698  0  0  0.189294  0  4.042171  0  0  0.201741  0  4.062028  0  0  0.112101  0.180946  0  4.028655  0
C  C51  1  0.34620733  0.84675589  0.30025619  1  0  0.192915  0  3.781544  0  0  0.189327  0  4.042126  0  0  0.201773  0  4.061981  0  0  0.11202  0.18098  0  4.028608  0
C  C52  1  0.21094777  0.00367088  0.78189506  1  0  -0.158631  0  3.71182  0  0  -0.172527  0  3.954042  0  0  -0.182561  0  3.976115  0  0  -0.094616  -0.166118  0  3.93942  0
C  C53  1  0.71094430  0.00366820  0.71810328  1  0  -0.158625  0  3.711876  0  0  -0.172501  0  3.953983  0  0  -0.182528  0  3.976064  0  0  -0.094581  -0.166088  0  3.939364  0
C  C54  1  0.78905499  0.99632960  0.21810453  1  0  -0.158561  0  3.711864  0  0  -0.17249  0  3.954066  0  0  -0.182522  0  3.976138  0  0  -0.094617  -0.166072  0  3.939435  0
C  C55  1  0.28905421  0.99632861  0.28189673  1  0  -0.158625  0  3.712005  0  0  -0.172495  0  3.954204  0  0  -0.182529  0  3.976279  0  0  -0.094582  -0.166088  0  3.939585  0
C  C56  1  0.21840909  0.97273556  0.72477374  1  0  0.024355  0  3.712511  0  0  0.007388  0  3.958464  0  0  0.013678  0  3.97522  0  0  -0.070154  0.003482  0  3.947067  0
C  C57  1  0.71840457  0.97273184  0.77522576  1  0  0.024413  0  3.71257  0  0  0.007426  0  3.958521  0  0  0.013715  0  3.975278  0  0  -0.070155  0.003518  0  3.947125  0
C  C58  1  0.78159376  0.02726613  0.27522628  1  0  0.024365  0  3.712541  0  0  0.007395  0  3.958487  0  0  0.013683  0  3.975244  0  0  -0.070112  0.003485  0  3.947096  0
C  C59  1  0.28159423  0.02726864  0.22477635  1  0  0.0243  0  3.712624  0  0  0.007301  0  3.958535  0  0  0.013589  0  3.975295  0  0  -0.070203  0.003397  0  3.947132  0
C  C60  1  0.16543421  0.08889856  0.68664652  1  0  -0.129678  0  3.714327  0  0  -0.145804  0  3.970516  0  0  -0.153086  0  3.989233  0  0  -0.093463  -0.141241  0  3.958103  0
C  C61  1  0.66543634  0.08889250  0.81335141  1  0  -0.129822  0  3.714396  0  0  -0.145941  0  3.970613  0  0  -0.153226  0  3.989334  0  0  -0.093522  -0.141373  0  3.958199  0
C  C62  1  0.83456297  0.91109826  0.31335224  1  0  -0.129686  0  3.714416  0  0  -0.145821  0  3.970645  0  0  -0.153104  0  3.989365  0  0  -0.09348  -0.141256  0  3.958231  0
C  C63  1  0.33456226  0.91110554  0.18664903  1  0  -0.129605  0  3.714401  0  0  -0.145744  0  3.970651  0  0  -0.153026  0  3.989364  0  0  -0.093476  -0.141185  0  3.958235  0
C  C64  1  0.11001132  0.23458624  0.70738165  1  0  0.128029  0  3.698195  0  0  0.095016  0  3.953362  0  0  0.10366  0  3.971526  0  0  0.035781  0.089417  0  3.941122  0
C  C65  1  0.61000833  0.23458378  0.79261545  1  0  0.128066  0  3.697947  0  0  0.09506  0  3.953121  0  0  0.103692  0  3.971279  0  0  0.035833  0.089459  0  3.940879  0
C  C66  1  0.88999143  0.76541424  0.29261669  1  0  0.128078  0  3.698295  0  0  0.095064  0  3.953487  0  0  0.103694  0  3.971644  0  0  0.035828  0.089464  0  3.941246  0
C  C67  1  0.38998783  0.76541670  0.20738331  1  0  0.127923  0  3.69817  0  0  0.094844  0  3.953352  0  0  0.103504  0  3.971524  0  0  0.035745  0.089244  0  3.941108  0
C  C68  1  0.43271239  0.20775548  0.98678110  1  0  0.189598  0  3.812807  0  0  0.194392  0  4.07854  0  0  0.203835  0  4.097399  0  0  0.114497  0.187835  0  4.06579  0
C  C69  1  0.93271533  0.20774975  0.51321829  1  0  0.189544  0  3.812707  0  0  0.194358  0  4.078405  0  0  0.203785  0  4.097287  0  0  0.114457  0.187803  0  4.065658  0
C  C70  1  0.56728518  0.79224622  0.01321850  1  0  0.189683  0  3.812753  0  0  0.194499  0  4.078448  0  0  0.203936  0  4.09732  0  0  0.114517  0.187942  0  4.065697  0
C  C71  1  0.06728460  0.79224828  0.48678424  1  0  0.189666  0  3.812636  0  0  0.194458  0  4.078361  0  0  0.203893  0  4.09724  0  0  0.114541  0.187898  0  4.065613  0
C  C72  1  0.47519135  0.28629674  0.03774444  1  0  -0.163791  0  3.718224  0  0  -0.176334  0  3.955492  0  0  -0.184584  0  3.976741  0  0  -0.099907  -0.170786  0  3.941301  0
C  C73  1  0.97519247  0.28629966  0.46225421  1  0  -0.163761  0  3.718147  0  0  -0.176313  0  3.955432  0  0  -0.184551  0  3.97669  0  0  -0.099892  -0.170766  0  3.941243  0
C  C74  1  0.52480613  0.71370374  0.96225474  1  0  -0.163773  0  3.718265  0  0  -0.176327  0  3.955566  0  0  -0.184576  0  3.976802  0  0  -0.099887  -0.170782  0  3.941379  0
C  C75  1  0.02480265  0.71370449  0.53774623  1  0  -0.163938  0  3.718286  0  0  -0.176485  0  3.95562  0  0  -0.184743  0  3.97684  0  0  -0.099934  -0.170957  0  3.941421  0
C  C76  1  0.63954681  0.37157869  0.04244808  1  0  0.006293  0  3.738619  0  0  -0.008481  0  3.982283  0  0  -0.005217  0  4.002271  0  0  -0.078434  -0.010349  0  3.968544  0
C  C77  1  0.13954736  0.37158066  0.45755164  1  0  0.006337  0  3.738596  0  0  -0.008442  0  3.982261  0  0  -0.005177  0  4.002254  0  0  -0.078434  -0.010308  0  3.968516  0
C  C78  1  0.36045585  0.62842056  0.95755110  1  0  0.006323  0  3.738696  0  0  -0.008431  0  3.982351  0  0  -0.005166  0  4.002346  0  0  -0.078419  -0.010303  0  3.968617  0
C  C79  1  0.86045022  0.62842104  0.54245048  1  0  0.006369  0  3.738652  0  0  -0.008415  0  3.982258  0  0  -0.005152  0  4.002255  0  0  -0.078433  -0.01028  0  3.968526  0
C  C80  1  0.75553671  0.37441472  0.99696031  1  0  -0.139903  0  3.774146  0  0  -0.15834  0  4.030202  0  0  -0.164942  0  4.051604  0  0  -0.102432  -0.154105  0  4.015922  0
C  C81  1  0.25553878  0.37442145  0.50304028  1  0  -0.13981  0  3.774094  0  0  -0.158223  0  4.030128  0  0  -0.164829  0  4.051539  0  0  -0.102373  -0.153989  0  4.015844  0
C  C82  1  0.24446321  0.62558332  0.00303803  1  0  -0.139759  0  3.774151  0  0  -0.158168  0  4.030166  0  0  -0.164774  0  4.051567  0  0  -0.102378  -0.153933  0  4.015881  0
C  C83  1  0.74445860  0.62557781  0.49696100  1  0  -0.139773  0  3.773981  0  0  -0.158179  0  4.030003  0  0  -0.164785  0  4.051409  0  0  -0.102305  -0.153939  0  4.015721  0
C  C84  1  0.70091434  0.29225621  0.94839320  1  0  0.120776  0  3.781564  0  0  0.096244  0  4.043663  0  0  0.102494  0  4.061398  0  0  0.030882  0.09219  0  4.031556  0
C  C85  1  0.20091878  0.29225576  0.55160607  1  0  0.12063  0  3.78173  0  0  0.096084  0  4.043835  0  0  0.102332  0  4.061574  0  0  0.030869  0.092031  0  4.031725  0
C  C86  1  0.29907898  0.70774184  0.05160514  1  0  0.120615  0  3.78177  0  0  0.096076  0  4.043862  0  0  0.102325  0  4.061597  0  0  0.030779  0.092022  0  4.031751  0
C  C87  1  0.79907709  0.70774107  0.44839353  1  0  0.120586  0  3.781564  0  0  0.096049  0  4.043656  0  0  0.102296  0  4.061395  0  0  0.030786  0.091993  0  4.03155  0
S  S88  1  0.13821246  0.21232022  0.87022982  1  0  -0.011031  0  2.481914  0  0  -0.004247  0  2.835069  0  0  -0.012897  0  2.836293  0  0  0.019639  0.002015  0  2.834075  0
S  S89  1  0.63821653  0.21231972  0.62977023  1  0  -0.010983  0  2.481991  0  0  -0.00421  0  2.83517  0  0  -0.012865  0  2.836396  0  0  0.01962  0.002052  0  2.834174  0
S  S90  1  0.86178907  0.78768147  0.12977062  1  0  -0.010969  0  2.482024  0  0  -0.004195  0  2.835165  0  0  -0.012848  0  2.836388  0  0  0.019645  0.002074  0  2.834165  0
S  S91  1  0.36178896  0.78768197  0.37022979  1  0  -0.010966  0  2.48198  0  0  -0.004189  0  2.835135  0  0  -0.01284  0  2.836361  0  0  0.019663  0.002077  0  2.834139  0
S  S92  1  0.22207091  0.09878888  0.98221608  1  0  0.030574  0  2.357616  0  0  0.029038  0  2.687298  0  0  0.023497  0  2.689726  0  0  0.022621  0.033323  0  2.685719  0
S  S93  1  0.72207671  0.09878560  0.51778399  1  0  0.030623  0  2.357675  0  0  0.029081  0  2.687381  0  0  0.023541  0  2.689818  0  0  0.022627  0.033373  0  2.685785  0
S  S94  1  0.77792675  0.90121405  0.01778352  1  0  0.030577  0  2.357603  0  0  0.029038  0  2.687288  0  0  0.023497  0  2.689717  0  0  0.022615  0.033322  0  2.685703  0
S  S95  1  0.27792595  0.90121365  0.48221729  1  0  0.030631  0  2.357731  0  0  0.02909  0  2.687409  0  0  0.023549  0  2.689842  0  0  0.022629  0.033371  0  2.685829  0
Br  Br96  1  0.91447483  0.62372432  0.69649253  1  0  -0.406029  0  1.151617  0  0  -0.344379  0  1.491764  0  0  -0.366547  0  1.471294  0  0  -0.192613  -0.328734  0  1.505514  0
Br  Br97  1  0.41447580  0.62372706  0.80350573  1  0  -0.406013  0  1.151615  0  0  -0.344336  0  1.49173  0  0  -0.366501  0  1.471254  0  0  -0.192588  -0.328694  0  1.50548  0
Br  Br98  1  0.08552773  0.37627371  0.30350749  1  0  -0.405994  0  1.151607  0  0  -0.344328  0  1.491726  0  0  -0.366486  0  1.471238  0  0  -0.192595  -0.328684  0  1.505474  0
Br  Br99  1  0.58552328  0.37627708  0.19649303  1  0  -0.406017  0  1.151569  0  0  -0.344374  0  1.491721  0  0  -0.366529  0  1.471232  0  0  -0.19261  -0.328731  0  1.505471  0
Br  Br100  1  0.92071414  0.66462854  0.87677913  1  0  -0.392076  0  1.069701  0  0  -0.335895  0  1.376508  0  0  -0.354335  0  1.359362  0  0  -0.193858  -0.323369  0  1.388327  0
Br  Br101  1  0.42071499  0.66462709  0.62322082  1  0  -0.392068  0  1.069796  0  0  -0.335891  0  1.376633  0  0  -0.35432  0  1.359463  0  0  -0.193853  -0.323369  0  1.388457  0
Br  Br102  1  0.07928485  0.33537438  0.12322047  1  0  -0.392062  0  1.069709  0  0  -0.335879  0  1.37652  0  0  -0.354321  0  1.35938  0  0  -0.19385  -0.323351  0  1.388337  0
Br  Br103  1  0.57928645  0.33537339  0.37677961  1  0  -0.392054  0  1.069731  0  0  -0.335882  0  1.376547  0  0  -0.354314  0  1.359385  0  0  -0.193843  -0.323354  0  1.388365  0
N  N104  1  0.10629949  0.26611724  0.76277751  1  0  -0.326056  0  3.31392  0  0  -0.235757  0  3.566762  0  0  -0.260608  0  3.590637  0  0  -0.31699  -0.219142  0  3.550215  0
N  N105  1  0.60630567  0.26611827  0.73722169  1  0  -0.325909  0  3.314106  0  0  -0.235576  0  3.56689  0  0  -0.260416  0  3.590735  0  0  -0.316872  -0.218963  0  3.550346  0
N  N106  1  0.89369666  0.73388325  0.23722250  1  0  -0.325983  0  3.314136  0  0  -0.235674  0  3.566921  0  0  -0.260522  0  3.59079  0  0  -0.316941  -0.219056  0  3.550366  0
N  N107  1  0.39370133  0.73388586  0.26277916  1  0  -0.325918  0  3.313884  0  0  -0.23556  0  3.56667  0  0  -0.260413  0  3.59055  0  0  -0.316851  -0.218949  0  3.550126  0
N  N108  1  0.54194592  0.21012074  0.94285523  1  0  -0.371378  0  3.146542  0  0  -0.330313  0  3.409482  0  0  -0.344804  0  3.426563  0  0  -0.328437  -0.320248  0  3.397697  0
N  N109  1  0.04194991  0.21011421  0.55714392  1  0  -0.371459  0  3.146511  0  0  -0.330403  0  3.409464  0  0  -0.344889  0  3.426549  0  0  -0.328479  -0.320338  0  3.397678  0
N  N110  1  0.45804789  0.78988341  0.05714395  1  0  -0.371496  0  3.146594  0  0  -0.330453  0  3.409564  0  0  -0.344942  0  3.426644  0  0  -0.328463  -0.320385  0  3.397774  0
N  N111  1  0.95805520  0.78988260  0.44285610  1  0  -0.371412  0  3.146331  0  0  -0.330368  0  3.409302  0  0  -0.344857  0  3.426383  0  0  -0.328458  -0.320302  0  3.397514  0
