# generated using pymatgen
data_CdH15C20N3O5
_symmetry_space_group_name_H-M   'P 1'
_cell_length_a   10.08920240
_cell_length_b   10.45704291
_cell_length_c   10.50697359
_cell_angle_alpha   64.94363264
_cell_angle_beta   63.64811310
_cell_angle_gamma   71.36386604
_symmetry_Int_Tables_number   1
_chemical_formula_structural   CdH15C20N3O5
_chemical_formula_sum   'Cd2 H30 C40 N6 O10'
_cell_volume   887.94915003
_cell_formula_units_Z   2
loop_
 _symmetry_equiv_pos_site_id
 _symmetry_equiv_pos_as_xyz
  1  'x, y, z'
loop_
 _atom_site_type_symbol
 _atom_site_label
 _atom_site_symmetry_multiplicity
 _atom_site_fract_x
 _atom_site_fract_y
 _atom_site_fract_z
 _atom_site_occupancy
 _atom_site_hle17_bader_spin_density
 _atom_site_hle17_ddec_charge
 _atom_site_hle17_ddec_spin_density
 _atom_site_hle17_ddec_sum_bond_order
 _atom_site_hle17_magmom
 _atom_site_hse06_10hf_bader_spin_density
 _atom_site_hse06_10hf_ddec_charge
 _atom_site_hse06_10hf_ddec_spin_density
 _atom_site_hse06_10hf_ddec_sum_bond_order
 _atom_site_hse06_10hf_magmom
 _atom_site_hse06_bader_spin_density
 _atom_site_hse06_ddec_charge
 _atom_site_hse06_ddec_spin_density
 _atom_site_hse06_ddec_sum_bond_order
 _atom_site_hse06_magmom
 _atom_site_pbe_bader_spin_density
 _atom_site_pbe_cm5_charge
 _atom_site_pbe_ddec_charge
 _atom_site_pbe_ddec_spin_density
 _atom_site_pbe_ddec_sum_bond_order
 _atom_site_pbe_magmom
Cd  Cd0  1  0.26255342  0.39941524  0.06011905  1  0  1.073547  0  1.666574  0  0  0.873483  0  2.10582  0  0  0.933807  0  2.055242  0  0  0.770061  0.831055  0  2.139667  0
Cd  Cd1  1  0.73744652  0.60058470  0.93987995  1  0  1.073535  0  1.666558  0  0  0.873472  0  2.105796  0  0  0.933792  0  2.055224  0  0  0.77006  0.831042  0  2.139642  0
H  H2  1  0.85525904  0.84882585  0.09460014  1  0  0.31288  0  0.911927  0  0  0.291257  0  0.980921  0  0  0.300601  0  0.973084  0  0  0.304365  0.284649  0  0.986426  0
H  H3  1  0.14474052  0.15117624  0.90540001  1  0  0.312919  0  0.911885  0  0  0.291302  0  0.98087  0  0  0.300647  0  0.973033  0  0  0.304392  0.284695  0  0.986375  0
H  H4  1  0.00912586  0.65283392  0.11801873  1  0  0.102719  0  0.951456  0  0  0.108607  0  1.017826  0  0  0.112038  0  1.014403  0  0  0.121701  0.105962  0  1.020474  0
H  H5  1  0.99087537  0.34716497  0.88198302  1  0  0.102729  0  0.951428  0  0  0.108573  0  1.017855  0  0  0.112005  0  1.014433  0  0  0.121713  0.105933  0  1.020496  0
H  H6  1  0.45694916  0.24583239  0.73464130  1  0  0.093771  0  0.951642  0  0  0.105797  0  1.010116  0  0  0.108789  0  1.008797  0  0  0.099519  0.103163  0  1.01192  0
H  H7  1  0.54305189  0.75416757  0.26535817  1  0  0.093771  0  0.951635  0  0  0.105789  0  1.010113  0  0  0.108775  0  1.008803  0  0  0.099518  0.103155  0  1.011917  0
H  H8  1  0.40049468  0.23261236  0.32141199  1  0  0.085841  0  0.960706  0  0  0.093343  0  1.027916  0  0  0.095918  0  1.025032  0  0  0.116808  0.091521  0  1.029985  0
H  H9  1  0.59950324  0.76738651  0.67859023  1  0  0.085841  0  0.960672  0  0  0.093347  0  1.027876  0  0  0.095924  0  1.024988  0  0  0.116799  0.091526  0  1.029944  0
H  H10  1  0.56309100  0.24214506  0.87906357  1  0  0.079217  0  0.96807  0  0  0.087032  0  1.036084  0  0  0.088938  0  1.034639  0  0  0.114565  0.085622  0  1.037395  0
H  H11  1  0.43690895  0.75785489  0.12093923  1  0  0.07923  0  0.968061  0  0  0.087038  0  1.036092  0  0  0.088958  0  1.034614  0  0  0.114566  0.085629  0  1.037399  0
H  H12  1  0.48780138  0.41311257  0.47428328  1  0  0.092805  0  0.97005  0  0  0.10403  0  1.031922  0  0  0.106868  0  1.030313  0  0  0.101754  0.102101  0  1.032829  0
H  H13  1  0.51219985  0.58688632  0.52571751  1  0  0.092797  0  0.970017  0  0  0.104027  0  1.031885  0  0  0.106861  0  1.030276  0  0  0.101748  0.102091  0  1.0328  0
H  H14  1  0.75771199  0.02838010  0.92706228  1  0  0.119795  0  0.96842  0  0  0.128242  0  1.030845  0  0  0.131609  0  1.030248  0  0  0.108013  0.126056  0  1.030952  0
H  H15  1  0.24228777  0.97162092  0.07293825  1  0  0.119782  0  0.968456  0  0  0.128228  0  1.030883  0  0  0.131597  0  1.030287  0  0  0.108008  0.126043  0  1.030991  0
H  H16  1  0.88932184  0.13251948  0.17765045  1  0  0.110107  0  0.943034  0  0  0.121278  0  1.00836  0  0  0.123689  0  1.007621  0  0  0.0984  0.119678  0  1.008925  0
H  H17  1  0.11067921  0.86748047  0.82234902  1  0  0.110089  0  0.943052  0  0  0.121275  0  1.008374  0  0  0.12368  0  1.007633  0  0  0.098403  0.119674  0  1.00894  0
H  H18  1  0.98044486  0.01507414  0.30565154  1  0  0.100455  0  0.939675  0  0  0.115631  0  1.003434  0  0  0.117333  0  1.00332  0  0  0.098566  0.114478  0  1.003603  0
H  H19  1  0.01955416  0.98492474  0.69434926  1  0  0.100465  0  0.93965  0  0  0.115649  0  1.003416  0  0  0.117345  0  1.003298  0  0  0.098576  0.114495  0  1.003587  0
H  H20  1  0.21985572  0.58199659  0.49006055  1  0  0.108122  0  0.954434  0  0  0.117762  0  1.011869  0  0  0.120011  0  1.013271  0  0  0.108918  0.1165  0  1.010499  0
H  H21  1  0.78014404  0.41800443  0.50993903  1  0  0.108128  0  0.954452  0  0  0.117766  0  1.011894  0  0  0.120013  0  1.013296  0  0  0.108919  0.116502  0  1.010526  0
H  H22  1  0.34995525  0.46577336  0.29116604  1  0  0.087357  0  0.962551  0  0  0.092491  0  1.032509  0  0  0.095735  0  1.028906  0  0  0.115909  0.089956  0  1.035432  0
H  H23  1  0.65004378  0.53422551  0.70883476  1  0  0.087321  0  0.962592  0  0  0.092441  0  1.032575  0  0  0.09569  0  1.028958  0  0  0.115881  0.089906  0  1.035498  0
H  H24  1  0.97263833  0.74013340  0.50180471  1  0  0.117759  0  0.955209  0  0  0.12128  0  1.027071  0  0  0.125749  0  1.022312  0  0  0.110475  0.117763  0  1.030988  0
H  H25  1  0.02736124  0.25986869  0.49819450  1  0  0.117763  0  0.955235  0  0  0.121282  0  1.027092  0  0  0.125752  0  1.022327  0  0  0.110477  0.117766  0  1.031009  0
H  H26  1  0.59298535  0.02858558  0.38322599  1  0  0.136207  0  0.97357  0  0  0.143847  0  1.031079  0  0  0.14776  0  1.030019  0  0  0.115697  0.141064  0  1.032273  0
H  H27  1  0.40701330  0.97141544  0.61677596  1  0  0.13624  0  0.973557  0  0  0.143863  0  1.031082  0  0  0.147774  0  1.030029  0  0  0.115718  0.14108  0  1.032277  0
H  H28  1  0.65002859  0.02502726  0.77371521  1  0  0.080672  0  0.964263  0  0  0.09313  0  1.023667  0  0  0.095088  0  1.023987  0  0  0.096845  0.091735  0  1.023518  0
H  H29  1  0.34997135  0.97497269  0.22628474  1  0  0.080654  0  0.964264  0  0  0.093125  0  1.023655  0  0  0.095083  0  1.023976  0  0  0.096854  0.09173  0  1.023507  0
H  H30  1  0.86170822  0.97477182  0.55514500  1  0  0.097254  0  0.966393  0  0  0.106464  0  1.032481  0  0  0.109428  0  1.03152  0  0  0.098503  0.104417  0  1.033294  0
H  H31  1  0.13829080  0.02522706  0.44485579  1  0  0.097264  0  0.966387  0  0  0.10648  0  1.032468  0  0  0.109445  0  1.031507  0  0  0.098509  0.104434  0  1.033282  0
C  C32  1  0.05076006  0.64160829  0.20279592  1  0  0.113679  0  3.655966  0  0  0.072808  0  3.903661  0  0  0.082017  0  3.920671  0  0  0.051739  0.066701  0  3.892579  0
C  C33  1  0.94924411  0.35839275  0.79720081  1  0  0.113606  0  3.656199  0  0  0.072763  0  3.903904  0  0  0.081969  0  3.92092  0  0  0.051632  0.066641  0  3.892846  0
C  C34  1  0.55389548  0.22356912  0.63988822  1  0  -0.082083  0  3.786039  0  0  -0.09879  0  4.043822  0  0  -0.102004  0  4.064478  0  0  -0.098269  -0.096438  0  4.03019  0
C  C35  1  0.44610556  0.77643083  0.36011031  1  0  -0.082112  0  3.78598  0  0  -0.098812  0  4.043769  0  0  -0.102026  0  4.064427  0  0  -0.098273  -0.096462  0  4.030133  0
C  C36  1  0.48368087  0.18820704  0.23434588  1  0  0.153008  0  3.710579  0  0  0.118727  0  3.967425  0  0  0.128217  0  3.985374  0  0  0.049675  0.112733  0  3.955151  0
C  C37  1  0.51631797  0.81179291  0.76565740  1  0  0.15299  0  3.710606  0  0  0.118722  0  3.967428  0  0  0.128215  0  3.985375  0  0  0.049685  0.112729  0  3.955153  0
C  C38  1  0.57249333  0.19028509  0.98973589  1  0  0.133582  0  3.744449  0  0  0.101107  0  3.997483  0  0  0.110001  0  4.017137  0  0  0.037753  0.095345  0  3.983724  0
C  C39  1  0.42750421  0.80971592  0.01026654  1  0  0.13353  0  3.744328  0  0  0.101056  0  3.997363  0  0  0.10995  0  4.017024  0  0  0.037735  0.095293  0  3.983603  0
C  C40  1  0.69433191  0.29366765  0.36967104  1  0  -0.119072  0  3.72094  0  0  -0.098192  0  3.95025  0  0  -0.107775  0  3.972932  0  0  -0.019102  -0.091936  0  3.934452  0
C  C41  1  0.30566804  0.70633230  0.63032892  1  0  -0.119087  0  3.72092  0  0  -0.098216  0  3.950223  0  0  -0.1078  0  3.972907  0  0  -0.019118  -0.091962  0  3.934423  0
C  C42  1  0.97335268  0.71396281  0.30735250  1  0  -0.119918  0  3.769194  0  0  -0.09556  0  4.008816  0  0  -0.107764  0  4.03323  0  0  -0.012714  -0.087736  0  3.99194  0
C  C43  1  0.02664855  0.28603607  0.69264640  1  0  -0.119845  0  3.769291  0  0  -0.095508  0  4.008898  0  0  -0.107718  0  4.033314  0  0  -0.012668  -0.087683  0  3.992021  0
C  C44  1  0.57041158  0.31751349  0.49459958  1  0  -0.069906  0  3.754251  0  0  -0.094571  0  4.005037  0  0  -0.093271  0  4.024193  0  0  -0.08866  -0.095131  0  3.991372  0
C  C45  1  0.42958855  0.68248539  0.50540074  1  0  -0.069879  0  3.754139  0  0  -0.094549  0  4.004932  0  0  -0.09324  0  4.024079  0  0  -0.088649  -0.095102  0  3.991267  0
C  C46  1  0.68139531  0.07272281  0.01617780  1  0  -0.223817  0  3.691569  0  0  -0.240721  0  3.942898  0  0  -0.251339  0  3.96332  0  0  -0.094372  -0.23311  0  3.928067  0
C  C47  1  0.31860315  0.92727927  0.98382283  1  0  -0.223754  0  3.691536  0  0  -0.240665  0  3.942857  0  0  -0.251289  0  3.963286  0  0  -0.094348  -0.233056  0  3.928027  0
C  C48  1  0.92960365  0.12698438  0.26143401  1  0  -0.308059  0  3.710453  0  0  -0.351163  0  3.954301  0  0  -0.356876  0  3.960692  0  0  -0.164357  -0.347823  0  3.950479  0
C  C49  1  0.07039648  0.87301450  0.73856631  1  0  -0.30803  0  3.710367  0  0  -0.351173  0  3.954303  0  0  -0.356852  0  3.960652  0  0  -0.164377  -0.347834  0  3.950481  0
C  C50  1  0.16906217  0.59965492  0.41054239  1  0  -0.108261  0  3.720434  0  0  -0.117931  0  3.972185  0  0  -0.126582  0  3.995452  0  0  -0.07915  -0.112898  0  3.956871  0
C  C51  1  0.83093887  0.40034503  0.58945614  1  0  -0.108267  0  3.720488  0  0  -0.117946  0  3.972249  0  0  -0.126597  0  3.995515  0  0  -0.079149  -0.112913  0  3.956936  0
C  C52  1  0.24044352  0.53308592  0.30146835  1  0  0.143864  0  3.676334  0  0  0.109607  0  3.931703  0  0  0.118416  0  3.948018  0  0  0.057372  0.103628  0  3.921298  0
C  C53  1  0.75955771  0.46691297  0.69853245  1  0  0.143907  0  3.676434  0  0  0.109655  0  3.931788  0  0  0.118467  0  3.948106  0  0  0.057414  0.103677  0  3.921379  0
C  C54  1  0.03282866  0.68935797  0.41534834  1  0  -0.009826  0  3.676806  0  0  -0.04159  0  3.928721  0  0  -0.036027  0  3.945478  0  0  -0.05546  -0.044654  0  3.917454  0
C  C55  1  0.96717128  0.31064198  0.58465066  1  0  -0.009825  0  3.676772  0  0  -0.041582  0  3.928692  0  0  -0.036019  0  3.945454  0  0  -0.055455  -0.044644  0  3.917423  0
C  C56  1  0.82912899  0.81642032  0.31542119  1  0  0.552772  0  3.808257  0  0  0.50545  0  4.092465  0  0  0.534945  0  4.092483  0  0  0.2512  0.485745  0  4.091653  0
C  C57  1  0.17087077  0.18358070  0.68457839  1  0  0.552731  0  3.808339  0  0  0.505451  0  4.092497  0  0  0.534951  0  4.092509  0  0  0.251192  0.485748  0  4.091684  0
C  C58  1  0.80179244  0.16823802  0.39024475  1  0  0.133639  0  3.689072  0  0  0.143785  0  3.923833  0  0  0.147784  0  3.946144  0  0  0.003027  0.141413  0  3.908624  0
C  C59  1  0.19820750  0.83176193  0.60975520  1  0  0.133619  0  3.689097  0  0  0.143813  0  3.923816  0  0  0.147801  0  3.946129  0  0  0.003045  0.141442  0  3.908605  0
C  C60  1  0.59052150  0.07177815  0.27056543  1  0  -0.208179  0  3.673558  0  0  -0.226287  0  3.92584  0  0  -0.237026  0  3.946014  0  0  -0.086924  -0.21984  0  3.913033  0
C  C61  1  0.40947734  0.92822179  0.72943595  1  0  -0.208153  0  3.673577  0  0  -0.226258  0  3.925844  0  0  -0.237  0  3.946018  0  0  -0.086923  -0.219813  0  3.913038  0
C  C62  1  0.66172305  0.10157436  0.66104035  1  0  -0.059178  0  3.785218  0  0  -0.072271  0  4.034343  0  0  -0.072227  0  4.056403  0  0  -0.092458  -0.072128  0  4.019428  0
C  C63  1  0.33827708  0.89842452  0.33895997  1  0  -0.059139  0  3.78521  0  0  -0.07224  0  4.034337  0  0  -0.072197  0  4.056398  0  0  -0.092486  -0.072099  0  4.019422  0
C  C64  1  0.05595345  0.21498978  0.17846878  1  0  0.716178  0  3.858459  0  0  0.667621  0  4.158643  0  0  0.702493  0  4.150206  0  0  0.200327  0.644004  0  4.163788  0
C  C65  1  0.94404668  0.78500910  0.82153154  1  0  0.716203  0  3.858225  0  0  0.667568  0  4.158532  0  0  0.702433  0  4.150093  0  0  0.200311  0.643952  0  4.163674  0
C  C66  1  0.69070881  0.00836298  0.16069359  1  0  0.311969  0  3.763519  0  0  0.301057  0  4.010693  0  0  0.315316  0  4.02843  0  0  0.122236  0.291633  0  3.99831  0
C  C67  1  0.30929186  0.99163912  0.83930610  1  0  0.311932  0  3.763453  0  0  0.301047  0  4.01059  0  0  0.315304  0  4.02833  0  0  0.12223  0.291625  0  3.998209  0
C  C68  1  0.78259335  0.07411245  0.53730470  1  0  -0.12529  0  3.717106  0  0  -0.145008  0  3.967191  0  0  -0.149528  0  3.98822  0  0  -0.093268  -0.14203  0  3.953022  0
C  C69  1  0.21740660  0.92588750  0.46269525  1  0  -0.125297  0  3.717117  0  0  -0.145034  0  3.967201  0  0  -0.149557  0  3.988234  0  0  -0.093259  -0.142059  0  3.953034  0
C  C70  1  0.70611351  0.40520431  0.21921615  1  0  0.622815  0  3.934983  0  0  0.575172  0  4.21835  0  0  0.61003  0  4.213502  0  0  0.187905  0.55166  0  4.220649  0
C  C71  1  0.29388662  0.59479457  0.78078322  1  0  0.622804  0  3.934999  0  0  0.575158  0  4.21837  0  0  0.610016  0  4.213524  0  0  0.187908  0.551648  0  4.220667  0
N  N72  1  0.80018112  0.88885078  0.18357072  1  0  -0.45485  0  3.302433  0  0  -0.396  0  3.538595  0  0  -0.420238  0  3.545277  0  0  -0.388322  -0.379096  0  3.533069  0
N  N73  1  0.19981734  0.11115130  0.81642896  1  0  -0.454859  0  3.302323  0  0  -0.396043  0  3.538473  0  0  -0.420275  0  3.545139  0  0  -0.388344  -0.379135  0  3.532945  0
N  N74  1  0.18077258  0.55161791  0.20179009  1  0  -0.330184  0  3.246776  0  0  -0.250697  0  3.51522  0  0  -0.271808  0  3.533278  0  0  -0.329943  -0.236371  0  3.502649  0
N  N75  1  0.81923124  0.44837884  0.79820956  1  0  -0.330191  0  3.246941  0  0  -0.250683  0  3.515332  0  0  -0.271794  0  3.533393  0  0  -0.329926  -0.236355  0  3.502758  0
N  N76  1  0.47207761  0.24686120  0.09749741  1  0  -0.367877  0  3.281637  0  0  -0.286438  0  3.554912  0  0  -0.309683  0  3.573089  0  0  -0.347951  -0.27038  0  3.541653  0
N  N77  1  0.52792123  0.75313875  0.90250587  1  0  -0.367878  0  3.281625  0  0  -0.286455  0  3.554906  0  0  -0.3097  0  3.573082  0  0  -0.347964  -0.270397  0  3.541647  0
O  O78  1  0.59236495  0.50126228  0.20483119  1  0  -0.65284  0  1.952682  0  0  -0.592231  0  2.195017  0  0  -0.621065  0  2.185778  0  0  -0.336179  -0.571929  0  2.200366  0
O  O79  1  0.40763499  0.49873767  0.79516876  1  0  -0.652815  0  1.952707  0  0  -0.592201  0  2.195041  0  0  -0.621034  0  2.185797  0  0  -0.33617  -0.5719  0  2.200386  0
O  O80  1  0.74699339  0.83883207  0.43538631  1  0  -0.513118  0  1.964869  0  0  -0.465503  0  2.184579  0  0  -0.486099  0  2.181153  0  0  -0.265563  -0.451261  0  2.187036  0
O  O81  1  0.25300545  0.16116788  0.56461412  1  0  -0.513128  0  1.964908  0  0  -0.465508  0  2.184602  0  0  -0.486104  0  2.181178  0  0  -0.265556  -0.451267  0  2.187059  0
O  O82  1  0.13978263  0.22163115  0.04319175  1  0  -0.674425  0  1.931517  0  0  -0.615235  0  2.168459  0  0  -0.641556  0  2.156245  0  0  -0.338425  -0.597048  0  2.176607  0
O  O83  1  0.86021731  0.77836879  0.95680725  1  0  -0.674424  0  1.931508  0  0  -0.615205  0  2.168489  0  0  -0.641526  0  2.156277  0  0  -0.338409  -0.597017  0  2.17663  0
O  O84  1  0.83045887  0.40344169  0.10863408  1  0  -0.611861  0  2.001942  0  0  -0.539502  0  2.236885  0  0  -0.569657  0  2.22915  0  0  -0.315727  -0.518508  0  2.241376  0
O  O85  1  0.16954126  0.59655720  0.89136719  1  0  -0.611871  0  2.001961  0  0  -0.539513  0  2.236901  0  0  -0.56967  0  2.229171  0  0  -0.31573  -0.518521  0  2.241392  0
O  O86  1  0.07883883  0.27255520  0.25100102  1  0  -0.641287  0  1.960398  0  0  -0.571328  0  2.2033  0  0  -0.60207  0  2.194893  0  0  -0.334499  -0.55027  0  2.208734  0
O  O87  1  0.92115817  0.72744259  0.74900110  1  0  -0.641282  0  1.960263  0  0  -0.571289  0  2.203201  0  0  -0.602034  0  2.194801  0  0  -0.334482  -0.550229  0  2.208632  0
