# generated using pymatgen
data_CaH24C34(NO2)4
_symmetry_space_group_name_H-M   'P 1'
_cell_length_a   7.96609351
_cell_length_b   10.63802884
_cell_length_c   17.99550000
_cell_angle_alpha   73.50297391
_cell_angle_beta   79.93968005
_cell_angle_gamma   85.07388734
_symmetry_Int_Tables_number   1
_chemical_formula_structural   CaH24C34(NO2)4
_chemical_formula_sum   'Ca2 H48 C68 N8 O16'
_cell_volume   1438.67946040
_cell_formula_units_Z   2
loop_
 _symmetry_equiv_pos_site_id
 _symmetry_equiv_pos_as_xyz
  1  'x, y, z'
loop_
 _atom_site_type_symbol
 _atom_site_label
 _atom_site_symmetry_multiplicity
 _atom_site_fract_x
 _atom_site_fract_y
 _atom_site_fract_z
 _atom_site_occupancy
 _atom_site_hle17_bader_spin_density
 _atom_site_hle17_ddec_charge
 _atom_site_hle17_ddec_spin_density
 _atom_site_hle17_ddec_sum_bond_order
 _atom_site_hle17_magmom
 _atom_site_hse06_10hf_bader_spin_density
 _atom_site_hse06_10hf_ddec_charge
 _atom_site_hse06_10hf_ddec_spin_density
 _atom_site_hse06_10hf_ddec_sum_bond_order
 _atom_site_hse06_10hf_magmom
 _atom_site_hse06_bader_spin_density
 _atom_site_hse06_ddec_charge
 _atom_site_hse06_ddec_spin_density
 _atom_site_hse06_ddec_sum_bond_order
 _atom_site_hse06_magmom
 _atom_site_pbe_bader_charge
 _atom_site_pbe_bader_spin_density
 _atom_site_pbe_cm5_charge
 _atom_site_pbe_ddec_charge
 _atom_site_pbe_ddec_spin_density
 _atom_site_pbe_ddec_sum_bond_order
 _atom_site_pbe_magmom
Ca  Ca0  1  0.23024756  0.42193929  0.48585086  1  0  1.4596  0  1.22279  0  0  1.308105  0  1.59579  0  0  1.35445  0  1.551049  0  1.61856  0  0.910303  1.273452  0  1.627424  0
Ca  Ca1  1  0.76975510  0.57806168  0.51414933  1  0  1.459635  0  1.222725  0  0  1.308088  0  1.595793  0  0  1.354433  0  1.551057  0  1.618574  0  0.910321  1.273431  0  1.627432  0
H  H2  1  0.61263204  0.28740417  0.54324792  1  0  0.081776  0  0.949188  0  0  0.088749  0  1.014968  0  0  0.091796  0  1.01192  0  0.136097  0  0.129279  0.08654  0  1.017145  0
H  H3  1  0.38737072  0.71259484  0.45675370  1  0  0.081727  0  0.94919  0  0  0.088712  0  1.014959  0  0  0.091758  0  1.011915  0  0.136114  0  0.129255  0.086504  0  1.017136  0
H  H4  1  0.84955185  0.12683246  0.51982780  1  0  0.10887  0  0.934601  0  0  0.122606  0  0.986258  0  0  0.125549  0  0.986217  0  0.086588  0  0.112641  0.120472  0  0.986497  0
H  H5  1  0.15045218  0.87316655  0.48017316  1  0  0.108863  0  0.9347  0  0  0.122612  0  0.986332  0  0  0.125554  0  0.986292  0  0.086636  0  0.112652  0.120482  0  0.986568  0
H  H6  1  0.82553916  0.99138392  0.42702174  1  0  0.111656  0  0.938087  0  0  0.123125  0  0.997878  0  0  0.126498  0  0.995346  0  0.120494  0  0.112155  0.120652  0  0.999725  0
H  H7  1  0.17445977  0.00861509  0.57297906  1  0  0.111717  0  0.938005  0  0  0.12315  0  0.997832  0  0  0.126534  0  0.995288  0  0.120484  0  0.112167  0.120677  0  0.999679  0
H  H8  1  0.66189678  0.93921067  0.33601367  1  0  0.112761  0  0.94776  0  0  0.122868  0  1.00839  0  0  0.126315  0  1.006549  0  0.122185  0  0.108805  0.120305  0  1.00985  0
H  H9  1  0.33810082  0.06078932  0.66398707  1  0  0.112755  0  0.947779  0  0  0.12284  0  1.00843  0  0  0.126287  0  1.006591  0  0.121785  0  0.108787  0.120277  0  1.00989  0
H  H10  1  0.40344638  0.97946838  0.26892003  1  0  0.107219  0  0.955094  0  0  0.118201  0  1.014531  0  0  0.121249  0  1.013349  0  0.075827  0  0.105806  0.115986  0  1.015499  0
H  H11  1  0.59654995  0.02053160  0.73108304  1  0  0.107241  0  0.95522  0  0  0.118223  0  1.014641  0  0  0.121271  0  1.01346  0  0.075772  0  0.105809  0.116008  0  1.015608  0
H  H12  1  0.12978062  0.10009831  0.24643842  1  0  0.105597  0  0.964257  0  0  0.115564  0  1.025235  0  0  0.118858  0  1.022713  0  0.146614  0  0.10792  0.113146  0  1.027135  0
H  H13  1  0.87022208  0.89990168  0.75356304  1  0  0.105613  0  0.96425  0  0  0.115608  0  1.025179  0  0  0.118903  0  1.022655  0  0.146579  0  0.107924  0.113189  0  1.027082  0
H  H14  1  0.90957114  0.27098242  0.27539540  1  0  0.112705  0  0.957085  0  0  0.120782  0  1.01838  0  0  0.124679  0  1.016579  0  0.128803  0  0.106917  0.117961  0  1.019863  0
H  H15  1  0.09043024  0.72901855  0.72460489  1  0  0.112695  0  0.957084  0  0  0.120785  0  1.018369  0  0  0.124683  0  1.016568  0  0.128751  0  0.106913  0.117964  0  1.019852  0
H  H16  1  0.95178769  0.38684906  0.37427842  1  0  0.08471  0  0.957797  0  0  0.088994  0  1.028465  0  0  0.092492  0  1.025404  0  0.106714  0  0.124944  0.086433  0  1.03064  0
H  H17  1  0.04821237  0.61315289  0.62572180  1  0  0.084723  0  0.957848  0  0  0.089018  0  1.028491  0  0  0.092512  0  1.025442  0  0.106713  0  0.124955  0.086457  0  1.030667  0
H  H18  1  0.89679924  0.37569094  0.71684330  1  0  0.111139  0  0.916535  0  0  0.126377  0  0.976115  0  0  0.12878  0  0.974626  0  0.054745  0  0.108156  0.124633  0  0.977294  0
H  H19  1  0.10320352  0.62430807  0.28315721  1  0  0.111136  0  0.916536  0  0  0.126369  0  0.97613  0  0  0.12878  0  0.974635  0  0.054731  0  0.108155  0.124624  0  0.977309  0
H  H20  1  0.77355681  0.25363647  0.70796303  1  0  0.119912  0  0.912147  0  0  0.135377  0  0.968473  0  0  0.138309  0  0.966533  0  0.078684  0  0.108459  0.133247  0  0.969998  0
H  H21  1  0.22644462  0.74636352  0.29203797  1  0  0.119954  0  0.912072  0  0  0.135402  0  0.968437  0  0  0.138343  0  0.966486  0  0.078667  0  0.108452  0.13327  0  0.969963  0
H  H22  1  0.00965818  0.08364614  0.74698447  1  0  0.065216  0  0.936161  0  0  0.078321  0  1.006836  0  0  0.079309  0  1.00523  0  0.067049  0  0.108595  0.077534  0  1.008023  0
H  H23  1  0.99034330  0.91635286  0.25301503  1  0  0.065128  0  0.936191  0  0  0.078254  0  1.00682  0  0  0.079242  0  1.005215  0  0.067092  0  0.108543  0.077464  0  1.008009  0
H  H24  1  0.13199294  0.20853209  0.75610312  1  0  0.070993  0  0.930497  0  0  0.08569  0  0.997816  0  0  0.086299  0  0.997221  0  0.052828  0  0.112283  0.085114  0  0.998414  0
H  H25  1  0.86800737  0.79146496  0.24389680  1  0  0.07101  0  0.93047  0  0  0.085671  0  0.99781  0  0  0.086285  0  0.997207  0  0.052814  0  0.112274  0.085092  0  0.998415  0
H  H26  1  0.97770392  0.23546442  0.05464207  1  0  0.111729  0  0.942228  0  0  0.120778  0  1.003535  0  0  0.12436  0  1.001449  0  0.112799  0  0.110279  0.11821  0  1.0051  0
H  H27  1  0.02230128  0.76453655  0.94535570  1  0  0.111729  0  0.942263  0  0  0.120769  0  1.00358  0  0  0.124352  0  1.001496  0  0.112926  0  0.110271  0.118202  0  1.005145  0
H  H28  1  0.79612922  0.09821360  0.17068126  1  0  0.098891  0  0.939683  0  0  0.110638  0  0.996918  0  0  0.113721  0  0.995854  0  0.097269  0  0.105863  0.108398  0  0.997863  0
H  H29  1  0.20387986  0.90178639  0.82931748  1  0  0.098886  0  0.93973  0  0  0.110634  0  0.996955  0  0  0.113715  0  0.995895  0  0.097182  0  0.105872  0.108395  0  0.9979  0
H  H30  1  0.61468542  0.93001673  0.15643215  1  0  0.097626  0  0.938974  0  0  0.109394  0  0.996044  0  0  0.112611  0  0.994394  0  0.078551  0  0.106491  0.107039  0  0.997397  0
H  H31  1  0.38532239  0.06998326  0.84356781  1  0  0.097678  0  0.939056  0  0  0.10943  0  0.996128  0  0  0.112648  0  0.994479  0  0.078551  0  0.106508  0.107081  0  0.997473  0
H  H32  1  0.60682497  0.89983595  0.02492535  1  0  0.103222  0  0.964189  0  0  0.111125  0  1.030173  0  0  0.113747  0  1.029617  0  0.125012  0  0.106419  0.109089  0  1.030922  0
H  H33  1  0.39317509  0.10016600  0.97507488  1  0  0.103199  0  0.964202  0  0  0.111152  0  1.030117  0  0  0.113767  0  1.02956  0  0.125131  0  0.106451  0.109116  0  1.030866  0
H  H34  1  0.63625032  0.66057072  0.24986789  1  0  0.107276  0  0.92246  0  0  0.123422  0  0.981081  0  0  0.12568  0  0.979613  0  0.054553  0  0.104065  0.121828  0  0.982217  0
H  H35  1  0.36374606  0.33942829  0.75013145  1  0  0.107243  0  0.922341  0  0  0.123371  0  0.981006  0  0  0.125634  0  0.979536  0  0.054558  0  0.104029  0.121775  0  0.982142  0
H  H36  1  0.79032098  0.53033481  0.26744190  1  0  0.104492  0  0.933974  0  0  0.117777  0  0.996419  0  0  0.120054  0  0.995248  0  0.034511  0  0.098707  0.116151  0  0.997315  0
H  H37  1  0.20967672  0.46966322  0.73255583  1  0  0.1045  0  0.933975  0  0  0.117788  0  0.996426  0  0  0.120068  0  0.995255  0  0.034448  0  0.098701  0.116161  0  0.997322  0
H  H38  1  0.57590919  0.37251706  0.26607529  1  0  0.069268  0  0.924084  0  0  0.08404  0  0.988513  0  0  0.084852  0  0.98821  0  0.067315  0  0.108779  0.083384  0  0.988832  0
H  H39  1  0.42408331  0.62748293  0.73392418  1  0  0.069294  0  0.924052  0  0  0.084049  0  0.988506  0  0  0.084858  0  0.988206  0  0.067333  0  0.108792  0.083393  0  0.988826  0
H  H40  1  0.41344873  0.50008927  0.26006425  1  0  0.080438  0  0.923074  0  0  0.09238  0  0.991183  0  0  0.094047  0  0.989421  0  0.079871  0  0.115627  0.091078  0  0.992572  0
H  H41  1  0.58654755  0.49991169  0.73993476  1  0  0.080502  0  0.923115  0  0  0.092438  0  0.991204  0  0  0.094106  0  0.98944  0  0.079933  0  0.115651  0.091138  0  0.992592  0
H  H42  1  0.46179377  0.78243290  0.95519148  1  0  0.093999  0  0.987722  0  0  0.102272  0  1.054766  0  0  0.103975  0  1.055784  0  0.104466  0  0.101879  0.101007  0  1.054174  0
H  H43  1  0.53820251  0.21756807  0.04480698  1  0  0.094023  0  0.987714  0  0  0.102292  0  1.054749  0  0  0.103995  0  1.055767  0  0.104516  0  0.101888  0.101027  0  1.054156  0
H  H44  1  0.63018884  0.74388230  0.83290111  1  0  0.091381  0  0.962386  0  0  0.102709  0  1.021568  0  0  0.105216  0  1.021311  0  0.085497  0  0.101488  0.100958  0  1.021789  0
H  H45  1  0.36980131  0.25611376  0.16709753  1  0  0.09144  0  0.962338  0  0  0.102769  0  1.02151  0  0  0.105279  0  1.021254  0  0.085346  0  0.101499  0.101023  0  1.021726  0
H  H46  1  0.85631000  0.56702915  0.83943962  1  0  0.095169  0  0.946436  0  0  0.10404  0  1.007743  0  0  0.107009  0  1.006961  0  0.086822  0  0.102701  0.101923  0  1.008375  0
H  H47  1  0.14368143  0.43296692  0.16056003  1  0  0.095108  0  0.9465  0  0  0.104003  0  1.007787  0  0  0.106953  0  1.007027  0  0.086381  0  0.102689  0.101887  0  1.008419  0
H  H48  1  0.91718140  0.42410557  0.96743898  1  0  0.099393  0  0.978654  0  0  0.106128  0  1.04765  0  0  0.108906  0  1.046578  0  0.088582  0  0.104192  0.103957  0  1.048739  0
H  H49  1  0.08281610  0.57589638  0.03256255  1  0  0.099378  0  0.978618  0  0  0.10609  0  1.047649  0  0  0.108889  0  1.046556  0  0.088548  0  0.104167  0.103937  0  1.04872  0
C  C50  1  0.60601549  0.22803549  0.50332906  1  0  0.158302  0  3.69265  0  0  0.127622  0  3.955798  0  0  0.13653  0  3.970492  0  0.524901  0  0.07167  0.121964  0  3.945638  0
C  C51  1  0.39398727  0.77196352  0.49667256  1  0  0.15827  0  3.692575  0  0  0.127576  0  3.955748  0  0  0.136483  0  3.970441  0  0.524969  0  0.071637  0.121918  0  3.945589  0
C  C52  1  0.73937561  0.13744802  0.48982244  1  0  -0.119919  0  3.736786  0  0  -0.136181  0  3.997726  0  0  -0.143214  0  4.019046  0  -0.023218  0  -0.081038  -0.131716  0  3.983275  0
C  C53  1  0.26062587  0.86255098  0.51017872  1  0  -0.119837  0  3.736832  0  0  -0.136097  0  3.997748  0  0  -0.143131  0  4.019073  0  -0.023102  0  -0.081008  -0.131637  0  3.983296  0
C  C54  1  0.72719108  0.06445865  0.43868545  1  0  -0.046976  0  3.685413  0  0  -0.073531  0  3.93859  0  0  -0.071289  0  3.956976  0  -0.074193  0  -0.062384  -0.074514  0  3.925868  0
C  C55  1  0.27281025  0.93554329  0.56131468  1  0  -0.047086  0  3.685404  0  0  -0.073639  0  3.938575  0  0  -0.071407  0  3.956957  0  -0.074307  0  -0.062419  -0.074622  0  3.925855  0
C  C56  1  0.58240697  0.08390613  0.40041186  1  0  0.021128  0  3.789929  0  0  0.035873  0  4.023144  0  0  0.032704  0  4.048601  0  -0.016391  0  -0.003113  0.037697  0  4.005987  0
C  C57  1  0.41759200  0.91609189  0.59959022  1  0  0.021186  0  3.78987  0  0  0.035995  0  4.022967  0  0  0.032826  0  4.048425  0  -0.016381  0  -0.003062  0.037818  0  4.005811  0
C  C58  1  0.45385417  0.17746243  0.41788125  1  0  0.125339  0  3.763315  0  0  0.122133  0  4.002771  0  0  0.126214  0  4.024828  0  0.459752  0  0.121458  0.119366  0  3.987927  0
C  C59  1  0.54614731  0.82253658  0.58212047  1  0  0.125288  0  3.763321  0  0  0.122091  0  4.002736  0  0  0.126173  0  4.024791  0  0.459755  0  0.121432  0.119324  0  3.987893  0
C  C60  1  0.56213952  0.01226775  0.34625337  1  0  -0.098836  0  3.741648  0  0  -0.119974  0  3.994721  0  0  -0.122439  0  4.017485  0  -0.083545  0  -0.082879  -0.117942  0  3.979109  0
C  C61  1  0.43785819  0.98773028  0.65374880  1  0  -0.09892  0  3.74169  0  0  -0.120058  0  3.994739  0  0  -0.122525  0  4.017504  0  -0.083439  0  -0.082914  -0.118025  0  3.979128  0
C  C62  1  0.42052333  0.03309859  0.31033997  1  0  -0.116924  0  3.754111  0  0  -0.139125  0  4.007867  0  0  -0.143653  0  4.031752  0  -0.009595  0  -0.089328  -0.136006  0  3.991606  0
C  C63  1  0.57947314  0.96689846  0.68966358  1  0  -0.116858  0  3.754123  0  0  -0.139034  0  4.007859  0  0  -0.14356  0  4.031743  0  -0.009177  0  -0.089265  -0.135915  0  3.991598  0
C  C64  1  0.30410818  0.19974040  0.37964902  1  0  0.128705  0  3.753164  0  0  0.122984  0  3.994037  0  0  0.127023  0  4.015635  0  0.491639  0  0.121  0.120224  0  3.97947  0
C  C65  1  0.69589198  0.80025959  0.62035320  1  0  0.128741  0  3.753239  0  0  0.122992  0  3.994163  0  0  0.127031  0  4.015761  0  0.491631  0  0.121007  0.120232  0  3.979596  0
C  C66  1  0.28879314  0.12694136  0.32605870  1  0  0.022635  0  3.79533  0  0  0.038742  0  4.027046  0  0  0.036433  0  4.052087  0  -0.026203  0  -0.003779  0.040102  0  4.010206  0
C  C67  1  0.71120324  0.87305764  0.67394452  1  0  0.022554  0  3.795269  0  0  0.038619  0  4.027068  0  0  0.03631  0  4.052107  0  -0.026481  0  -0.003849  0.03998  0  4.010227  0
C  C68  1  0.14199976  0.15292203  0.28891875  1  0  -0.052901  0  3.686355  0  0  -0.074457  0  3.929602  0  0  -0.072893  0  3.947744  0  -0.087559  0  -0.064465  -0.075166  0  3.917182  0
C  C69  1  0.85799784  0.84707796  0.71108311  1  0  -0.052922  0  3.68628  0  0  -0.074475  0  3.929519  0  0  -0.07291  0  3.947661  0  -0.08731  0  -0.064464  -0.075183  0  3.917098  0
C  C70  1  0.02122547  0.24678050  0.30496461  1  0  -0.12331  0  3.746914  0  0  -0.135388  0  3.999451  0  0  -0.142256  0  4.020776  0  -0.038324  0  -0.085774  -0.131027  0  3.985045  0
C  C71  1  0.97877469  0.75321949  0.69503594  1  0  -0.123297  0  3.74682  0  0  -0.135383  0  3.999356  0  0  -0.142251  0  4.020681  0  -0.038425  0  -0.085761  -0.131021  0  3.984948  0
C  C72  1  0.04650673  0.31342604  0.35921787  1  0  0.134211  0  3.714379  0  0  0.104739  0  3.974494  0  0  0.112128  0  3.990685  0  0.507449  0  0.061882  0.100012  0  3.9633  0
C  C73  1  0.95349465  0.68657493  0.64078241  1  0  0.134182  0  3.714365  0  0  0.1047  0  3.974479  0  0  0.112088  0  3.99067  0  0.50744  0  0.061875  0.099973  0  3.963285  0
C  C74  1  0.99451537  0.29972097  0.61915250  1  0  0.708494  0  3.876067  0  0  0.667227  0  4.167159  0  0  0.700394  0  4.160301  0  1.575129  0  0.211557  0.644614  0  4.170941  0
C  C75  1  0.00548611  0.70027804  0.38084755  1  0  0.708434  0  3.876035  0  0  0.667182  0  4.167131  0  0  0.700345  0  4.160283  0  1.575385  0  0.211526  0.644569  0  4.170912  0
C  C76  1  0.90601360  0.28035885  0.70362445  1  0  -0.278018  0  3.640067  0  0  -0.316961  0  3.892287  0  0  -0.322689  0  3.8978  0  -0.039982  0  -0.155329  -0.313039  0  3.888598  0
C  C77  1  0.09398788  0.71964016  0.29637560  1  0  -0.278049  0  3.640012  0  0  -0.317027  0  3.892253  0  0  -0.322767  0  3.897768  0  -0.039837  0  -0.155329  -0.313098  0  3.88855  0
C  C78  1  0.00151262  0.17792355  0.76113293  1  0  0.063276  0  3.662584  0  0  -0.008007  0  3.936676  0  0  -6.8e-05  0  3.945359  0  0.343324  0  -0.05471  -0.013278  0  3.930737  0
C  C79  1  0.99848763  0.82207448  0.23886627  1  0  0.063323  0  3.662592  0  0  -0.007873  0  3.936557  0  0  5.8e-05  0  3.945258  0  0.343217  0  -0.054629  -0.01314  0  3.930612  0
C  C80  1  0.97692449  0.21492890  0.89505323  1  0  0.517926  0  3.802636  0  0  0.469476  0  4.092369  0  0  0.498648  0  4.091974  0  1.335373  0  0.252776  0.449792  0  4.092096  0
C  C81  1  0.02308057  0.78507501  0.10494350  1  0  0.51767  0  3.802672  0  0  0.469245  0  4.092386  0  0  0.498413  0  4.091999  0  1.335413  0  0.25272  0.44957  0  4.092105  0
C  C82  1  0.88559496  0.14883670  0.97436104  1  0  -0.086104  0  3.81352  0  0  -0.073941  0  4.050027  0  0  -0.07989  0  4.073357  0  -0.024124  0  -0.012016  -0.070116  0  4.034434  0
C  C83  1  0.11440769  0.85116427  0.02563693  1  0  -0.085916  0  3.813494  0  0  -0.073763  0  4.050005  0  0  -0.079711  0  4.073337  0  -0.02393  0  -0.011978  -0.069948  0  4.034427  0
C  C84  1  0.89550533  0.16460111  0.04736082  1  0  -0.049474  0  3.696805  0  0  -0.075738  0  3.952209  0  0  -0.075492  0  3.969862  0  -0.015219  0  -0.072704  -0.075672  0  3.940192  0
C  C85  1  0.10449855  0.83540084  0.95263578  1  0  -0.049539  0  3.69703  0  0  -0.075793  0  3.952441  0  0  -0.075548  0  3.970097  0  -0.015313  0  -0.072693  -0.075726  0  3.940429  0
C  C86  1  0.79453304  0.08519727  0.11290300  1  0  -0.056503  0  3.706758  0  0  -0.076101  0  3.96938  0  0  -0.077322  0  3.988165  0  -0.035523  0  -0.080869  -0.075219  0  3.956569  0
C  C87  1  0.20547345  0.91480370  0.88709578  1  0  -0.056457  0  3.706937  0  0  -0.076046  0  3.969532  0  0  -0.077268  0  3.988317  0  -0.035481  0  -0.080871  -0.075165  0  3.956724  0
C  C88  1  0.69171229  0.99114354  0.10489086  1  0  -0.049711  0  3.705393  0  0  -0.070102  0  3.96921  0  0  -0.070733  0  3.987009  0  -0.016636  0  -0.077835  -0.069526  0  3.957049  0
C  C89  1  0.30829292  0.00885742  0.89510857  1  0  -0.049792  0  3.705615  0  0  -0.070175  0  3.969444  0  0  -0.070806  0  3.98724  0  -0.016585  0  -0.077843  -0.069604  0  3.957285  0
C  C90  1  0.68500901  0.97419200  0.03095770  1  0  -0.047478  0  3.692695  0  0  -0.072953  0  3.946442  0  0  -0.072995  0  3.964904  0  -0.08252  0  -0.072323  -0.072851  0  3.934137  0
C  C91  1  0.31499365  0.02580897  0.96904193  1  0  -0.047547  0  3.692699  0  0  -0.073048  0  3.946473  0  0  -0.073079  0  3.964925  0  -0.082782  0  -0.072339  -0.072946  0  3.93417  0
C  C92  1  0.78168171  0.05533928  0.96628631  1  0  -0.080794  0  3.813063  0  0  -0.068836  0  4.048494  0  0  -0.074121  0  4.070631  0  -0.02954  0  -0.010722  -0.065437  0  4.033753  0
C  C93  1  0.21831972  0.94466071  0.03371247  1  0  -0.08067  0  3.812807  0  0  -0.068726  0  4.048301  0  0  -0.074012  0  4.070433  0  -0.029716  0  -0.01073  -0.065323  0  4.033556  0
C  C94  1  0.80526364  0.06004172  0.88170012  1  0  0.526592  0  3.8037  0  0  0.477472  0  4.093617  0  0  0.507025  0  4.092125  0  1.33445  0  0.255179  0.457457  0  4.09418  0
C  C95  1  0.19473671  0.93995435  0.11829829  1  0  0.526501  0  3.803556  0  0  0.477339  0  4.093565  0  0  0.5069  0  4.092061  0  1.335021  0  0.255078  0.457327  0  4.094128  0
C  C96  1  0.59514186  0.53602326  0.36672665  1  0  0.739886  0  3.861271  0  0  0.69586  0  4.156311  0  0  0.729819  0  4.14796  0  1.605464  0  0.227691  0.672737  0  4.161147  0
C  C97  1  0.40486079  0.46397771  0.63327353  1  0  0.739776  0  3.861166  0  0  0.69572  0  4.156281  0  0  0.729681  0  4.147935  0  1.605135  0  0.227623  0.672595  0  4.161114  0
C  C98  1  0.65382818  0.55543836  0.27921449  1  0  -0.288428  0  3.656749  0  0  -0.329595  0  3.910634  0  0  -0.335486  0  3.91664  0  -0.024428  0  -0.164615  -0.325531  0  3.906465  0
C  C99  1  0.34616947  0.44456065  0.72078419  1  0  -0.288255  0  3.656599  0  0  -0.329431  0  3.910515  0  0  -0.335331  0  3.916528  0  -0.024208  0  -0.16452  -0.325358  0  3.906337  0
C  C100  1  0.55009844  0.47860796  0.24438510  1  0  0.063807  0  3.647393  0  0  -0.002563  0  3.916389  0  0  0.00489  0  3.924344  0  0.359299  0  -0.051214  -0.007478  0  3.910892  0
C  C101  1  0.44989784  0.52139301  0.75561503  1  0  0.063525  0  3.647512  0  0  -0.0028  0  3.916483  0  0  0.004654  0  3.924436  0  0.359279  0  -0.051323  -0.007718  0  3.910988  0
C  C102  1  0.51584140  0.62167772  0.11055778  1  0  0.513559  0  3.817107  0  0  0.467236  0  4.105022  0  0  0.496304  0  4.104541  0  1.3663  0  0.251423  0.447586  0  4.104884  0
C  C103  1  0.48415488  0.37832325  0.88944179  1  0  0.51347  0  3.817102  0  0  0.467204  0  4.10496  0  0  0.496269  0  4.104481  0  1.366347  0  0.251427  0.447555  0  4.104821  0
C  C104  1  0.59545079  0.62370665  0.02929747  1  0  -0.087919  0  3.819091  0  0  -0.076338  0  4.054518  0  0  -0.082389  0  4.077544  0  -0.055939  0  -0.014103  -0.072506  0  4.039252  0
C  C105  1  0.40454412  0.37629628  0.97070188  1  0  -0.087996  0  3.81937  0  0  -0.076429  0  4.054813  0  0  -0.082479  0  4.077839  0  -0.055893  0  -0.014181  -0.072596  0  4.039544  0
C  C106  1  0.56034170  0.70461452  0.95812840  1  0  -0.047504  0  3.709572  0  0  -0.072493  0  3.962236  0  0  -0.07208  0  3.981009  0  -0.085175  0  -0.074886  -0.072431  0  3.94937  0
C  C107  1  0.43965458  0.29538644  0.04187117  1  0  -0.047531  0  3.709556  0  0  -0.0725  0  3.962201  0  0  -0.072088  0  3.980973  0  -0.085366  0  -0.074873  -0.072438  0  3.949334  0
C  C108  1  0.65552450  0.68201083  0.88963016  1  0  -0.047702  0  3.709771  0  0  -0.067013  0  3.969021  0  0  -0.067958  0  3.987645  0  -0.003351  0  -0.08054  -0.066185  0  3.956084  0
C  C109  1  0.34447060  0.31798818  0.11036872  1  0  -0.047808  0  3.709763  0  0  -0.06711  0  3.969  0  0  -0.068059  0  3.987622  0  -0.003016  0  -0.080564  -0.066287  0  3.956061  0
C  C110  1  0.78227710  0.58209991  0.89333447  1  0  -0.045365  0  3.700094  0  0  -0.06343  0  3.960295  0  0  -0.064323  0  3.979011  0  -0.026471  0  -0.078884  -0.062654  0  3.947345  0
C  C111  1  0.21771678  0.41789811  0.10666467  1  0  -0.045223  0  3.700126  0  0  -0.063325  0  3.960325  0  0  -0.064203  0  3.97905  0  -0.02605  0  -0.078847  -0.062554  0  3.947383  0
C  C112  1  0.81738746  0.50078390  0.96567889  1  0  -0.050023  0  3.69591  0  0  -0.077398  0  3.950742  0  0  -0.078046  0  3.970733  0  0.035458  0  -0.0747  -0.076652  0  3.937174  0
C  C113  1  0.18260882  0.49921707  0.03432179  1  0  -0.049978  0  3.695843  0  0  -0.077321  0  3.95071  0  0  -0.077986  0  3.970682  0  0.035582  0  -0.07464  -0.076589  0  3.937131  0
C  C114  1  0.72132317  0.52247909  0.03332365  1  0  -0.082702  0  3.803216  0  0  -0.068696  0  4.038215  0  0  -0.074361  0  4.061171  0  -0.043009  0  -0.01174  -0.065127  0  4.022933  0
C  C115  1  0.27867939  0.47752384  0.96667566  1  0  -0.082678  0  3.803332  0  0  -0.068695  0  4.038361  0  0  -0.074359  0  4.061319  0  -0.043158  0  -0.011738  -0.065132  0  4.023077  0
C  C116  1  0.72122621  0.45219463  0.11772045  1  0  0.523131  0  3.793059  0  0  0.473188  0  4.084583  0  0  0.502751  0  4.08312  0  1.362553  0  0.255561  0.453124  0  4.085121  0
C  C117  1  0.27877115  0.54781026  0.88227837  1  0  0.523123  0  3.792988  0  0  0.47316  0  4.084574  0  0  0.502721  0  4.083108  0  1.362623  0  0.255613  0.453113  0  4.085088  0
N  N118  1  0.46701806  0.24748689  0.46906790  1  0  -0.386257  0  3.159676  0  0  -0.335102  0  3.422607  0  0  -0.351242  0  3.440055  0  -1.235529  0  -0.346518  -0.323969  0  3.410546  0
N  N119  1  0.53298465  0.75251309  0.53093412  1  0  -0.386159  0  3.15969  0  0  -0.335  0  3.422611  0  0  -0.35114  0  3.440058  0  -1.235559  0  -0.346446  -0.323867  0  3.410551  0
N  N120  1  0.18302549  0.29109509  0.39540106  1  0  -0.396477  0  3.174402  0  0  -0.34444  0  3.441584  0  0  -0.359648  0  3.457926  0  -1.25725  0  -0.359527  -0.333741  0  3.430175  0
N  N121  1  0.81697329  0.70890686  0.60459926  1  0  -0.396481  0  3.17442  0  0  -0.344426  0  3.441611  0  0  -0.359631  0  3.457951  0  -1.257203  0  -0.359564  -0.333726  0  3.430202  0
N  N122  1  0.92563854  0.15497156  0.84313905  1  0  -0.300663  0  3.407678  0  0  -0.21886  0  3.643556  0  0  -0.245432  0  3.66288  0  -1.160565  0  -0.257943  -0.200731  0  3.629855  0
N  N123  1  0.07436167  0.84502745  0.15686054  1  0  -0.300484  0  3.40764  0  0  -0.218689  0  3.643478  0  0  -0.245262  0  3.662806  0  -1.160656  0  -0.257899  -0.20057  0  3.629778  0
N  N124  1  0.59119513  0.51355593  0.15961833  1  0  -0.30065  0  3.422273  0  0  -0.219335  0  3.659149  0  0  -0.245479  0  3.67777  0  -1.218105  0  -0.259422  -0.201442  0  3.64584  0
N  N125  1  0.40880238  0.48644602  0.84038154  1  0  -0.300521  0  3.422175  0  0  -0.219229  0  3.659051  0  0  -0.24537  0  3.677668  0  -1.21813  0  -0.259419  -0.201342  0  3.645739  0
O  O126  1  0.11804860  0.22403356  0.60291354  1  0  -0.670267  0  1.887201  0  0  -0.623415  0  2.11716  0  0  -0.648173  0  2.108571  0  -1.206166  0  -0.339185  -0.605926  0  2.122467  0
O  O127  1  0.88195160  0.77596545  0.39708606  1  0  -0.670263  0  1.887183  0  0  -0.623425  0  2.117166  0  0  -0.64818  0  2.108577  0  -1.206382  0  -0.339203  -0.605936  0  2.122476  0
O  O128  1  0.94283519  0.39723602  0.56632980  1  0  -0.756454  0  1.986856  0  0  -0.687655  0  2.241326  0  0  -0.71754  0  2.230423  0  -1.252965  0  -0.416833  -0.666124  0  2.247902  0
O  O129  1  0.05716502  0.60276298  0.43366979  1  0  -0.756395  0  1.986812  0  0  -0.687591  0  2.241267  0  0  -0.717475  0  2.230369  0  -1.252988  0  -0.4168  -0.666061  0  2.247842  0
O  O130  1  0.07897612  0.30307145  0.87602799  1  0  -0.483663  0  1.923536  0  0  -0.441392  0  2.138824  0  0  -0.46099  0  2.135163  0  -1.113306  0  -0.263473  -0.427976  0  2.140986  0
O  O131  1  0.92102418  0.69692560  0.12397026  1  0  -0.483658  0  1.923366  0  0  -0.441386  0  2.138621  0  0  -0.460982  0  2.134959  0  -1.11323  0  -0.263487  -0.42797  0  2.14078  0
O  O132  1  0.73945955  0.99392302  0.84940147  1  0  -0.492393  0  1.937569  0  0  -0.447785  0  2.153536  0  0  -0.467735  0  2.149086  0  -1.11083  0  -0.261314  -0.434167  0  2.156399  0
O  O133  1  0.26054188  0.00607697  0.15059898  1  0  -0.492387  0  1.937448  0  0  -0.447755  0  2.153431  0  0  -0.467708  0  2.148979  0  -1.111329  0  -0.261248  -0.434136  0  2.156292  0
O  O134  1  0.43588196  0.54460499  0.39013279  1  0  -0.714337  0  1.962201  0  0  -0.658823  0  2.216188  0  0  -0.685872  0  2.204453  0  -1.217018  0  -0.376722  -0.63959  0  2.223543  0
O  O135  1  0.56412212  0.45539303  0.60986945  1  0  -0.714228  0  1.96206  0  0  -0.658666  0  2.216022  0  0  -0.685715  0  2.204289  0  -1.216936  0  -0.376626  -0.639433  0  2.223376  0
O  O136  1  0.70994233  0.51461062  0.41023324  1  0  -0.718331  0  1.971888  0  0  -0.655451  0  2.218817  0  0  -0.68369  0  2.208538  0  -1.24223  0  -0.386209  -0.635403  0  2.22522  0
O  O137  1  0.29006410  0.48539133  0.58976427  1  0  -0.718344  0  1.971827  0  0  -0.655495  0  2.218818  0  0  -0.683718  0  2.208508  0  -1.242151  0  -0.386226  -0.635445  0  2.225218  0
O  O138  1  0.40720029  0.69685986  0.13384735  1  0  -0.484454  0  1.930964  0  0  -0.444873  0  2.147378  0  0  -0.464476  0  2.143975  0  -1.12725  0  -0.265794  -0.431446  0  2.14941  0
O  O139  1  0.59279845  0.30314307  0.86615281  1  0  -0.484417  0  1.930972  0  0  -0.444851  0  2.14734  0  0  -0.464453  0  2.143936  0  -1.127227  0  -0.265809  -0.431427  0  2.149374  0
O  O140  1  0.81088581  0.35851864  0.14826494  1  0  -0.491507  0  1.933961  0  0  -0.446075  0  2.149878  0  0  -0.465676  0  2.145018  0  -1.129429  0  -0.26006  -0.432598  0  2.152973  0
O  O141  1  0.18911792  0.64148625  0.85173395  1  0  -0.491511  0  1.934024  0  0  -0.446065  0  2.149957  0  0  -0.465663  0  2.145089  0  -1.129553  0  -0.260095  -0.432598  0  2.15305  0
