# generated using pymatgen
data_HgH10C7S5(IO)2
_symmetry_space_group_name_H-M   'P 1'
_cell_length_a   4.37100865
_cell_length_b   13.80053393
_cell_length_c   14.73322096
_cell_angle_alpha   116.73888538
_cell_angle_beta   93.20076870
_cell_angle_gamma   93.52836641
_symmetry_Int_Tables_number   1
_chemical_formula_structural   HgH10C7S5(IO)2
_chemical_formula_sum   'Hg2 H20 C14 S10 I4 O4'
_cell_volume   788.71461346
_cell_formula_units_Z   2
loop_
 _symmetry_equiv_pos_site_id
 _symmetry_equiv_pos_as_xyz
  1  'x, y, z'
loop_
 _atom_site_type_symbol
 _atom_site_label
 _atom_site_symmetry_multiplicity
 _atom_site_fract_x
 _atom_site_fract_y
 _atom_site_fract_z
 _atom_site_occupancy
 _atom_site_hle17_bader_spin_density
 _atom_site_hle17_ddec_charge
 _atom_site_hle17_ddec_spin_density
 _atom_site_hle17_ddec_sum_bond_order
 _atom_site_hle17_magmom
 _atom_site_hse06_10hf_bader_spin_density
 _atom_site_hse06_10hf_ddec_charge
 _atom_site_hse06_10hf_ddec_spin_density
 _atom_site_hse06_10hf_ddec_sum_bond_order
 _atom_site_hse06_10hf_magmom
 _atom_site_hse06_bader_spin_density
 _atom_site_hse06_ddec_charge
 _atom_site_hse06_ddec_spin_density
 _atom_site_hse06_ddec_sum_bond_order
 _atom_site_hse06_magmom
 _atom_site_pbe_bader_spin_density
 _atom_site_pbe_cm5_charge
 _atom_site_pbe_ddec_charge
 _atom_site_pbe_ddec_spin_density
 _atom_site_pbe_ddec_sum_bond_order
 _atom_site_pbe_magmom
Hg  Hg0  1  0.06622736  0.34571929  0.17514301  1  0  0.459236  0  2.253902  0  0  0.358336  0  2.75384  0  0  0.398899  0  2.729882  0  0  0.305791  0.330943  0  2.770586  0
Hg  Hg1  1  0.93376740  0.65428057  0.82485459  1  0  0.459215  0  2.253899  0  0  0.358323  0  2.753828  0  0  0.398883  0  2.729877  0  0  0.305771  0.33093  0  2.770578  0
H  H2  1  0.91483623  0.64080825  0.30942138  1  0  0.370812  0  0.921929  0  0  0.343922  0  0.995659  0  0  0.354499  0  0.984035  0  0  0.288373  0.336492  0  1.003741  0
H  H3  1  0.08516542  0.35919161  0.69057838  1  0  0.370821  0  0.921907  0  0  0.343928  0  0.995642  0  0  0.354506  0  0.984017  0  0  0.288376  0.336498  0  1.003732  0
H  H4  1  0.57499516  0.33511706  0.67268207  1  0  0.367152  0  0.925053  0  0  0.344734  0  0.989237  0  0  0.354703  0  0.978847  0  0  0.290883  0.337703  0  0.996527  0
H  H5  1  0.42500399  0.66488200  0.32731935  1  0  0.367102  0  0.925125  0  0  0.344689  0  0.989296  0  0  0.354657  0  0.97891  0  0  0.290869  0.33766  0  0.996577  0
H  H6  1  0.05311693  0.75711604  0.12142809  1  0  0.08541  0  0.981031  0  0  0.097805  0  1.051846  0  0  0.098758  0  1.05202  0  0  0.076271  0.097007  0  1.051961  0
H  H7  1  0.94689183  0.24288463  0.87857211  1  0  0.085387  0  0.981  0  0  0.097793  0  1.051811  0  0  0.098745  0  1.051986  0  0  0.076278  0.096996  0  1.051924  0
H  H8  1  0.36381652  0.77163412  0.21250729  1  0  0.079198  0  1.000194  0  0  0.084968  0  1.080675  0  0  0.086555  0  1.080979  0  0  0.075104  0.083818  0  1.080518  0
H  H9  1  0.63618698  0.22836412  0.78749316  1  0  0.079211  0  1.000118  0  0  0.084982  0  1.080603  0  0  0.08657  0  1.080907  0  0  0.075098  0.083831  0  1.080448  0
H  H10  1  0.75663027  0.62103452  0.15673124  1  0  0.042385  0  0.95204  0  0  0.055253  0  1.022463  0  0  0.055688  0  1.022023  0  0  0.082532  0.054847  0  1.022859  0
H  H11  1  0.24336749  0.37896780  0.84327015  1  0  0.042379  0  0.952056  0  0  0.055247  0  1.022473  0  0  0.055681  0  1.022034  0  0  0.082529  0.054843  0  1.022869  0
H  H12  1  0.11865036  0.58022364  0.11288641  1  0  0.046273  0  0.944893  0  0  0.057683  0  1.020673  0  0  0.058074  0  1.019842  0  0  0.080731  0.057215  0  1.021591  0
H  H13  1  0.88134420  0.41977541  0.88711289  1  0  0.046293  0  0.944873  0  0  0.057706  0  1.020654  0  0  0.058098  0  1.019822  0  0  0.080741  0.057239  0  1.021571  0
H  H14  1  0.82167142  0.20125241  0.51789568  1  0  0.11714  0  0.92945  0  0  0.132557  0  0.990246  0  0  0.134321  0  0.989761  0  0  0.102275  0.131169  0  0.990824  0
H  H15  1  0.17833435  0.79874581  0.48210278  1  0  0.117183  0  0.929435  0  0  0.132596  0  0.990221  0  0  0.134359  0  0.989733  0  0  0.102295  0.131208  0  0.990796  0
H  H16  1  0.71781286  0.21015147  0.40414335  1  0  0.086087  0  0.989199  0  0  0.095235  0  1.066282  0  0  0.096029  0  1.06674  0  0  0.080391  0.094646  0  1.065981  0
H  H17  1  0.28218720  0.78985085  0.59585808  1  0  0.086096  0  0.989206  0  0  0.095215  0  1.066296  0  0  0.096007  0  1.066753  0  0  0.080379  0.094624  0  1.065992  0
H  H18  1  0.60791638  0.37883349  0.54480446  1  0  0.049028  0  0.949573  0  0  0.06209  0  1.020787  0  0  0.063052  0  1.019524  0  0  0.079854  0.061296  0  1.021916  0
H  H19  1  0.39209241  0.62116720  0.45519914  1  0  0.049021  0  0.94958  0  0  0.062124  0  1.020776  0  0  0.063085  0  1.019514  0  0  0.079871  0.06133  0  1.021901  0
H  H20  1  0.24488758  0.30611195  0.48794766  1  0  0.045877  0  0.955976  0  0  0.058731  0  1.028659  0  0  0.058633  0  1.028873  0  0  0.083491  0.058736  0  1.028582  0
H  H21  1  0.75511845  0.69388710  0.51205386  1  0  0.045821  0  0.955986  0  0  0.058739  0  1.028635  0  0  0.058641  0  1.028849  0  0  0.083495  0.058744  0  1.028554  0
C  C22  1  0.94872460  0.08170061  0.16492721  1  0  -0.022164  0  3.784279  0  0  -0.015674  0  4.091046  0  0  0.000264  0  4.104318  0  0  0.000242  -0.025843  0  4.081437  0
C  C23  1  0.05126331  0.91829926  0.83507165  1  0  -0.02217  0  3.78444  0  0  -0.015647  0  4.091153  0  0  0.000288  0  4.10442  0  0  0.000269  -0.025818  0  4.081539  0
C  C24  1  0.19111101  0.05599804  0.31822755  1  0  -0.07905  0  3.812217  0  0  -0.069284  0  4.101577  0  0  -0.065402  0  4.121382  0  0  -0.021929  -0.072366  0  4.088928  0
C  C25  1  0.80890002  0.94400262  0.68177133  1  0  -0.079007  0  3.812137  0  0  -0.069233  0  4.101541  0  0  -0.06536  0  4.121358  0  0  -0.021879  -0.072312  0  4.088884  0
C  C26  1  0.99234587  0.96405595  0.26163886  1  0  -0.127011  0  3.831784  0  0  -0.114407  0  4.121967  0  0  -0.115835  0  4.142605  0  0  -0.041478  -0.113476  0  4.107935  0
C  C27  1  0.00765761  0.03594228  0.73835956  1  0  -0.126989  0  3.831798  0  0  -0.114455  0  4.122089  0  0  -0.115878  0  4.14272  0  0  -0.041514  -0.113522  0  4.108052  0
C  C28  1  0.11356560  0.75279111  0.19284167  1  0  -0.201662  0  3.656908  0  0  -0.235046  0  3.914074  0  0  -0.236269  0  3.924431  0  0  -0.171622  -0.23414  0  3.906892  0
C  C29  1  0.88644087  0.24720957  0.80715917  1  0  -0.201659  0  3.656756  0  0  -0.235048  0  3.913929  0  0  -0.236271  0  3.924283  0  0  -0.171624  -0.234143  0  3.906751  0
C  C30  1  0.00663890  0.63924361  0.17768284  1  0  0.149938  0  3.665443  0  0  0.092538  0  3.936929  0  0  0.100424  0  3.942623  0  0  -0.09227  0.087244  0  3.932879  0
C  C31  1  0.99335818  0.36075626  0.82231752  1  0  0.149937  0  3.665355  0  0  0.092528  0  3.936868  0  0  0.100413  0  3.942558  0  0  -0.092278  0.087232  0  3.932821  0
C  C32  1  0.62526279  0.20548450  0.47016546  1  0  -0.201233  0  3.628522  0  0  -0.232904  0  3.885101  0  0  -0.233713  0  3.895392  0  0  -0.162017  -0.232226  0  3.87794  0
C  C33  1  0.37474803  0.79451535  0.52983444  1  0  -0.20128  0  3.628577  0  0  -0.232891  0  3.88517  0  0  -0.233689  0  3.895447  0  0  -0.162006  -0.232211  0  3.877998  0
C  C34  1  0.45743749  0.30535244  0.53101469  1  0  0.147423  0  3.656743  0  0  0.087825  0  3.927913  0  0  0.095219  0  3.93408  0  0  -0.092442  0.082867  0  3.923503  0
C  C35  1  0.54256647  0.69464743  0.46898646  1  0  0.147462  0  3.65679  0  0  0.087725  0  3.928083  0  0  0.095119  0  3.934246  0  0  -0.092497  0.082765  0  3.923665  0
S  S36  1  0.84962406  0.12864415  0.08200594  1  0  -0.219226  0  2.224655  0  0  -0.215405  0  2.588241  0  0  -0.233028  0  2.591613  0  0  -0.146743  -0.203394  0  2.585606  0
S  S37  1  0.15035562  0.87135900  0.91799620  1  0  -0.219225  0  2.224633  0  0  -0.215436  0  2.588237  0  0  -0.233055  0  2.59161  0  0  -0.146767  -0.203428  0  2.585602  0
S  S38  1  0.21063299  0.15147113  0.27110945  1  0  0.167714  0  2.720833  0  0  0.171863  0  3.077374  0  0  0.17064  0  3.081254  0  0  0.107544  0.172289  0  3.074877  0
S  S39  1  0.78936156  0.84852792  0.72888985  1  0  0.167685  0  2.720859  0  0  0.17184  0  3.077365  0  0  0.17061  0  3.081273  0  0  0.107515  0.172265  0  3.074862  0
S  S40  1  0.79412664  0.95908225  0.15337263  1  0  0.200372  0  2.6679  0  0  0.198107  0  3.013836  0  0  0.198227  0  3.018362  0  0  0.110336  0.197533  0  3.010695  0
S  S41  1  0.20587271  0.04091761  0.84662573  1  0  0.200405  0  2.667911  0  0  0.198142  0  3.013868  0  0  0.198266  0  3.018391  0  0  0.110363  0.197566  0  3.010726  0
S  S42  1  0.92414214  0.85850797  0.29421098  1  0  0.051686  0  2.483713  0  0  0.050292  0  2.84572  0  0  0.04879  0  2.845614  0  0  0.011164  0.051633  0  2.845751  0
S  S43  1  0.07586204  0.14149271  0.70578983  1  0  0.05166  0  2.483653  0  0  0.050288  0  2.845673  0  0  0.048788  0  2.845564  0  0  0.011159  0.051632  0  2.845689  0
S  S44  1  0.40282492  0.07479144  0.42939594  1  0  0.081951  0  2.500041  0  0  0.070676  0  2.867866  0  0  0.066744  0  2.870136  0  0  0.034064  0.073475  0  2.866493  0
S  S45  1  0.59717649  0.92520760  0.57060143  1  0  0.081914  0  2.500042  0  0  0.070632  0  2.867848  0  0  0.066699  0  2.870115  0  0  0.034012  0.073428  0  2.866469  0
I  I46  1  0.86679560  0.41990052  0.36189942  1  0  -0.300413  0  1.329538  0  0  -0.263181  0  1.710018  0  0  -0.281664  0  1.69188  0  0  -0.149871  -0.250853  0  1.723414  0
I  I47  1  0.13319022  0.58010015  0.63809703  1  0  -0.300424  0  1.329579  0  0  -0.2632  0  1.710071  0  0  -0.28168  0  1.691934  0  0  -0.149859  -0.250875  0  1.72347  0
I  I48  1  0.47898507  0.36772648  0.05128289  1  0  -0.265738  0  1.347066  0  0  -0.211335  0  1.726836  0  0  -0.231046  0  1.707107  0  0  -0.113969  -0.197781  0  1.741344  0
I  I49  1  0.52100236  0.63227175  0.94871392  1  0  -0.265714  0  1.347033  0  0  -0.211313  0  1.7268  0  0  -0.231021  0  1.707071  0  0  -0.113952  -0.197756  0  1.74131  0
O  O50  1  0.08711474  0.62060299  0.26360563  1  0  -0.562935  0  2.136883  0  0  -0.499156  0  2.361953  0  0  -0.518053  0  2.351699  0  0  -0.407806  -0.485676  0  2.368615  0
O  O51  1  0.91288440  0.37939607  0.73639442  1  0  -0.56297  0  2.136823  0  0  -0.499179  0  2.361878  0  0  -0.51808  0  2.351638  0  0  -0.407813  -0.4857  0  2.368551  0
O  O52  1  0.37921693  0.30982202  0.62551676  1  0  -0.56823  0  2.147439  0  0  -0.506196  0  2.37525  0  0  -0.524481  0  2.365322  0  0  -0.408885  -0.493122  0  2.381684  0
O  O53  1  0.62078407  0.69017541  0.37448467  1  0  -0.568175  0  2.147461  0  0  -0.506123  0  2.375317  0  0  -0.524408  0  2.365388  0  0  -0.408846  -0.493062  0  2.381762  0
