# generated using pymatgen
data_NiH24Ru4C20(NO4)4
_symmetry_space_group_name_H-M   'P 1'
_cell_length_a   8.97834021
_cell_length_b   9.92576809
_cell_length_c   11.21098659
_cell_angle_alpha   104.85191000
_cell_angle_beta   112.00602216
_cell_angle_gamma   101.02788247
_symmetry_Int_Tables_number   1
_chemical_formula_structural   NiH24Ru4C20(NO4)4
_chemical_formula_sum   'Ni1 H24 Ru4 C20 N4 O16'
_cell_volume   848.08523623
_cell_formula_units_Z   1
loop_
 _symmetry_equiv_pos_site_id
 _symmetry_equiv_pos_as_xyz
  1  'x, y, z'
loop_
 _atom_site_type_symbol
 _atom_site_label
 _atom_site_symmetry_multiplicity
 _atom_site_fract_x
 _atom_site_fract_y
 _atom_site_fract_z
 _atom_site_occupancy
 _atom_site_hle17_ddec_charge
 _atom_site_hle17_ddec_spin_density
 _atom_site_hle17_ddec_sum_bond_order
 _atom_site_hle17_magmom
 _atom_site_hse06_10hf_ddec_charge
 _atom_site_hse06_10hf_ddec_spin_density
 _atom_site_hse06_10hf_ddec_sum_bond_order
 _atom_site_hse06_10hf_magmom
 _atom_site_hse06_ddec_charge
 _atom_site_hse06_ddec_spin_density
 _atom_site_hse06_ddec_sum_bond_order
 _atom_site_hse06_magmom
 _atom_site_pbe_cm5_charge
 _atom_site_pbe_ddec_charge
 _atom_site_pbe_ddec_spin_density
 _atom_site_pbe_ddec_sum_bond_order
 _atom_site_pbe_magmom
Ni  Ni0  1  0.00000752  0.00001051  0.50000425  1  0.128456  -0.018646  3.394146  -0.011  0.145463  -0.023214  3.849967  -0.014  0.151979  -0.013332  3.801181  -0.007  0.423812  0.148418  -0.033539  3.880083  -0.022
H  H1  1  0.42584683  0.49693456  0.86260260  1  0.159946  0.000511  0.928742  0.0  0.176682  0.000434  0.987694  0.0  0.179441  0.000496  0.986376  0.0  0.108065  0.174239  0.000376  0.989744  0.0
H  H2  1  0.57414974  0.50304263  0.13740273  1  0.15997  0.000511  0.928678  0.0  0.176687  0.000433  0.987689  0.0  0.179471  0.000496  0.986342  0.0  0.108049  0.174249  0.000377  0.989741  0.0
H  H3  1  0.27596116  0.51631669  0.92867985  1  0.148592  0.001074  0.91086  0.001  0.170054  0.001052  0.962802  0.001  0.172302  0.001292  0.962213  0.001  0.110127  0.168243  0.000844  0.9638  0.001
H  H4  1  0.72403872  0.48367261  0.07132920  1  0.148604  0.001073  0.910922  0.001  0.170098  0.001051  0.962847  0.001  0.172343  0.001291  0.962262  0.001  0.110143  0.16829  0.000842  0.963846  0.001
H  H5  1  0.22098088  0.49737986  0.75332522  1  0.152665  0.000525  0.939574  0.001  0.170289  0.000472  0.998561  0.0  0.172325  0.000535  0.998444  0.001  0.105639  0.168776  0.000387  0.9985  0.0
H  H6  1  0.77901855  0.50260503  0.24667913  1  0.152598  0.000525  0.939615  0.001  0.170307  0.000472  0.998542  0.0  0.172343  0.000535  0.99843  0.001  0.105614  0.168801  0.000387  0.998485  0.0
H  H7  1  0.56214583  0.94930391  0.59838170  1  0.15871  0.000811  0.941267  0.001  0.174999  0.000738  1.002539  0.001  0.17737  0.000896  1.002458  0.001  0.107669  0.173076  0.000628  1.002966  0.001
H  H8  1  0.43784491  0.05069311  0.40162012  1  0.158716  0.00081  0.9414  0.001  0.174998  0.000737  1.002668  0.001  0.17737  0.000895  1.002578  0.001  0.10766  0.173079  0.000625  1.003085  0.001
H  H9  1  0.65089036  0.14106186  0.69126340  1  0.159133  0.000986  0.917645  0.001  0.176685  0.000929  0.97505  0.001  0.179504  0.001145  0.973703  0.001  0.108874  0.174736  0.000766  0.975969  0.001
H  H10  1  0.34910442  0.85893956  0.30874420  1  0.159077  0.000985  0.917597  0.001  0.176663  0.000929  0.974977  0.001  0.17948  0.001144  0.973632  0.001  0.108872  0.17472  0.000768  0.975902  0.001
H  H11  1  0.77915426  0.02341847  0.72596266  1  0.154922  0.000249  0.942226  0.0  0.171254  0.00015  1.001667  0.0  0.172999  0.000157  1.001779  0.0  0.103718  0.169799  0.00013  1.001742  0.0
H  H12  1  0.22084244  0.97657523  0.27403662  1  0.154892  0.000249  0.942265  0.0  0.171199  0.00015  1.001751  0.0  0.172943  0.000157  1.001858  0.0  0.103677  0.169748  0.000129  1.001823  0.0
H  H13  1  0.02377362  0.18544908  0.10248815  1  0.163088  0.000456  0.936131  0.0  0.176732  0.000394  0.998515  0.0  0.179744  0.000433  0.996514  0.0  0.105927  0.174667  0.000355  0.9998  0.0
H  H14  1  0.97623372  0.81457321  0.89751455  1  0.163109  0.000456  0.936139  0.0  0.176739  0.000394  0.99854  0.0  0.179754  0.000432  0.996537  0.0  0.105927  0.174672  0.000355  0.999821  0.0
H  H15  1  0.08313617  0.33987146  0.05445815  1  0.139271  0.000653  0.918522  0.001  0.159028  0.000616  0.971719  0.001  0.160867  0.000716  0.971268  0.001  0.102995  0.157656  0.000525  0.972144  0.0
H  H16  1  0.91686795  0.66014865  0.94554398  1  0.139298  0.000653  0.91869  0.001  0.159076  0.000616  0.971839  0.001  0.160915  0.000716  0.971391  0.001  0.103015  0.157704  0.000524  0.972264  0.0
H  H17  1  0.17478571  0.19787628  0.03513709  1  0.16274  0.001108  0.950093  0.001  0.173431  0.001024  1.020646  0.001  0.176579  0.001319  1.018883  0.001  0.10658  0.171342  0.000755  1.02165  0.001
H  H18  1  0.82521394  0.80213502  0.96486171  1  0.162809  0.001109  0.949989  0.001  0.17349  0.001025  1.020558  0.001  0.176637  0.001319  1.018799  0.001  0.106613  0.171402  0.000755  1.021573  0.001
H  H19  1  0.05125851  0.64766611  0.53835312  1  0.160131  0.000236  0.927697  0.0  0.178041  0.000127  0.983092  0.0  0.180948  0.000137  0.981919  0.0  0.106953  0.176065  0.000112  0.983793  0.0
H  H20  1  0.94874822  0.35233524  0.46163306  1  0.160111  0.000236  0.927678  0.0  0.17805  0.000127  0.983058  0.0  0.180948  0.000137  0.981891  0.0  0.106958  0.176075  0.000111  0.983755  0.0
H  H21  1  0.20773259  0.81950108  0.58868791  1  0.15876  0.000921  0.959056  0.001  0.170285  0.000807  1.030684  0.001  0.173593  0.001049  1.028578  0.001  0.106555  0.167788  0.000599  1.032504  0.001
H  H22  1  0.79226382  0.18050802  0.41130407  1  0.158856  0.00092  0.959053  0.001  0.170339  0.000807  1.030733  0.001  0.173644  0.001049  1.028629  0.001  0.106572  0.167837  0.000598  1.032568  0.001
H  H23  1  0.07913620  0.71508029  0.41141211  1  0.145774  0.000777  0.924775  0.001  0.164007  0.000713  0.983897  0.001  0.166325  0.000876  0.982363  0.001  0.107131  0.16213  0.000567  0.985439  0.001
H  H24  1  0.92086216  0.28492439  0.58857678  1  0.1458  0.000777  0.924801  0.001  0.164068  0.000712  0.983891  0.001  0.166372  0.000875  0.982371  0.001  0.107177  0.162189  0.000567  0.985429  0.001
Ru  Ru25  1  0.63253788  0.99969501  0.06793387  1  0.942836  -1.46239  3.293255  -1.36  0.873766  -1.427503  3.893101  -1.331  0.932442  -1.45666  3.842438  -1.367  0.795573  0.834258  -1.403373  3.92698  -1.302
Ru  Ru26  1  0.36746150  0.00028657  0.93206258  1  0.942759  -1.462218  3.293199  -1.36  0.873781  -1.427411  3.893082  -1.331  0.932343  -1.456264  3.842427  -1.366  0.795622  0.834316  -1.403351  3.926817  -1.302
Ru  Ru27  1  0.55559480  0.58492262  0.46184424  1  0.942836  -1.459094  3.31463  -1.358  0.871241  -1.423643  3.922838  -1.328  0.930984  -1.454168  3.868426  -1.365  0.796025  0.832641  -1.397735  3.956182  -1.297
Ru  Ru28  1  0.44439101  0.41505791  0.53816308  1  0.943174  -1.459162  3.315352  -1.358  0.871738  -1.423756  3.923567  -1.328  0.931173  -1.453939  3.869302  -1.365  0.796234  0.832945  -1.398003  3.956951  -1.297
C  C29  1  0.93868373  0.99298856  0.32291553  1  0.088932  -0.017821  3.459713  -0.018  0.061142  -0.016745  3.798795  -0.016  0.072489  -0.015935  3.798514  -0.016  0.031857  0.05132  -0.017939  3.799056  -0.017
C  C30  1  0.06133276  0.00702601  0.67709351  1  0.088778  -0.017797  3.460059  -0.018  0.060983  -0.016731  3.79917  -0.016  0.072325  -0.015932  3.798865  -0.016  0.031768  0.051159  -0.017923  3.799423  -0.017
C  C31  1  0.80205181  0.85303730  0.43920944  1  0.099536  -0.02471  3.448121  -0.024  0.072197  -0.021742  3.784614  -0.021  0.083309  -0.021231  3.785645  -0.02  0.03309  0.062268  -0.022875  3.78437  -0.021
C  C32  1  0.19794430  0.14698063  0.56079515  1  0.099713  -0.024751  3.448482  -0.024  0.072371  -0.021776  3.784997  -0.021  0.083498  -0.021284  3.785979  -0.02  0.03314  0.062427  -0.022915  3.784734  -0.021
C  C33  1  0.38959938  0.70802052  0.90308197  1  0.725142  0.026199  3.743142  0.016  0.684018  0.018347  4.04733  0.01  0.72166  0.024891  4.038983  0.014  0.226305  0.658451  0.013042  4.051715  0.007
C  C34  1  0.61038634  0.29195339  0.09691313  1  0.72501  0.026185  3.743732  0.016  0.684031  0.018336  4.047756  0.01  0.721669  0.024877  4.039413  0.014  0.226358  0.658466  0.013035  4.05214  0.007
C  C35  1  0.32427313  0.54419305  0.85822579  1  -0.445582  0.00169  3.633999  0.0  -0.521702  0.002005  3.867094  0.001  -0.52905  0.001921  3.868553  0.0  -0.233372  -0.516562  0.002004  3.866841  0.001
C  C36  1  0.67572949  0.45579073  0.14177749  1  -0.445568  0.001689  3.633867  0.0  -0.521835  0.002006  3.866958  0.001  -0.529208  0.001922  3.868403  0.0  -0.233397  -0.516688  0.002008  3.866714  0.001
C  C37  1  0.59650360  0.01470701  0.80557940  1  0.722584  0.026304  3.73963  0.016  0.682971  0.018365  4.039044  0.01  0.720945  0.024908  4.030441  0.014  0.22808  0.657394  0.013021  4.043459  0.007
C  C38  1  0.40349676  0.98529328  0.19442158  1  0.722474  0.026291  3.739659  0.016  0.682851  0.018358  4.039104  0.01  0.720821  0.024898  4.030507  0.014  0.228018  0.657276  0.013014  4.043523  0.007
C  C39  1  0.65243528  0.03311318  0.69931296  1  -0.452866  0.001584  3.622925  0.0  -0.525915  0.001861  3.850371  0.001  -0.533674  0.001776  3.852193  0.0  -0.23693  -0.520323  0.001843  3.84903  0.001
C  C40  1  0.34756278  0.96689704  0.30069403  1  -0.452774  0.001588  3.62288  0.0  -0.525842  0.001861  3.850361  0.001  -0.533588  0.001777  3.852177  0.0  -0.236864  -0.520254  0.001842  3.849015  0.001
C  C41  1  0.26842156  0.34290418  0.24254931  1  0.720295  0.02652  3.740734  0.016  0.681162  0.018449  4.041002  0.01  0.718781  0.025121  4.032965  0.014  0.224238  0.65566  0.013039  4.045686  0.007
C  C42  1  0.73157643  0.65709942  0.75745260  1  0.720553  0.026526  3.740269  0.016  0.681333  0.018452  4.040645  0.01  0.718954  0.025122  4.032607  0.014  0.224313  0.65583  0.013042  4.045326  0.007
C  C43  1  0.12768202  0.26123277  0.10025866  1  -0.446256  0.001722  3.624807  0.0  -0.517125  0.002063  3.855071  0.001  -0.524038  0.001961  3.855037  0.001  -0.237368  -0.51219  0.002046  3.854532  0.001
C  C44  1  0.87232158  0.73877302  0.89973918  1  -0.446417  0.001722  3.624861  0.0  -0.517256  0.002064  3.855134  0.001  -0.524172  0.001964  3.855098  0.001  -0.237381  -0.512322  0.002046  3.854598  0.001
C  C45  1  0.27461781  0.63421036  0.51265817  1  0.722147  0.026002  3.746632  0.016  0.681147  0.018362  4.04613  0.01  0.718643  0.024853  4.038275  0.014  0.223649  0.655774  0.013084  4.050534  0.007
C  C46  1  0.72538541  0.36579763  0.48734095  1  0.722182  0.025992  3.746902  0.016  0.681329  0.018356  4.046171  0.01  0.718826  0.024842  4.03831  0.014  0.223721  0.655958  0.01308  4.050575  0.007
C  C47  1  0.14371282  0.70674314  0.51269428  1  -0.458462  0.001412  3.639271  0.0  -0.535773  0.001548  3.879651  0.0  -0.542776  0.001547  3.87895  0.0  -0.238745  -0.530885  0.001514  3.880214  0.0
C  C48  1  0.85629035  0.29326153  0.48729605  1  -0.458576  0.001414  3.639303  0.0  -0.535999  0.001549  3.87971  0.0  -0.542982  0.001549  3.879028  0.0  -0.238864  -0.531097  0.001514  3.880247  0.0
N  N49  1  0.88417828  0.99371166  0.21005256  1  -0.403298  0.007142  2.955418  0.011  -0.362502  0.000923  3.245538  0.008  -0.378973  0.003822  3.251804  0.01  -0.374665  -0.351269  -0.001431  3.240952  0.006
N  N50  1  0.11582092  0.00629524  0.78994333  1  -0.403186  0.007123  2.955613  0.011  -0.362391  0.000918  3.245756  0.008  -0.378845  0.003815  3.251974  0.01  -0.374649  -0.351174  -0.001434  3.241143  0.006
N  N51  1  0.67899999  0.75553612  0.40338573  1  -0.397847  0.015039  2.982113  0.018  -0.357303  0.005967  3.277122  0.013  -0.374251  0.010309  3.283656  0.015  -0.377495  -0.346011  0.002698  3.272453  0.011
N  N52  1  0.32099397  0.24446638  0.59660759  1  -0.398004  0.015059  2.982612  0.018  -0.35748  0.005973  3.277692  0.013  -0.374398  0.010329  3.284152  0.015  -0.377664  -0.3462  0.002681  3.273007  0.011
O  O53  1  0.54623140  0.77566122  0.98931046  1  -0.533461  -0.02106  2.123728  -0.027  -0.48856  -0.024201  2.385758  -0.028  -0.520993  -0.021946  2.38119  -0.028  -0.294196  -0.466464  -0.025697  2.388614  -0.028
O  O54  1  0.45377725  0.22432584  0.01069804  1  -0.533276  -0.021039  2.124365  -0.027  -0.488467  -0.024183  2.386382  -0.028  -0.520907  -0.021927  2.381832  -0.028  -0.294187  -0.466382  -0.025677  2.389208  -0.028
O  O55  1  0.28585831  0.77602139  0.85631590  1  -0.53555  -0.021005  2.111895  -0.026  -0.489744  -0.024468  2.373234  -0.028  -0.521941  -0.022177  2.368409  -0.028  -0.296732  -0.467435  -0.026231  2.375264  -0.029
O  O56  1  0.71413666  0.22395799  0.14367963  1  -0.535544  -0.021004  2.112088  -0.026  -0.489743  -0.024467  2.373334  -0.028  -0.521939  -0.022174  2.368503  -0.028  -0.296715  -0.467422  -0.026231  2.375393  -0.029
O  O57  1  0.70350501  0.00910594  0.91765354  1  -0.530369  -0.021872  2.132271  -0.027  -0.484075  -0.025139  2.397838  -0.029  -0.516356  -0.022941  2.392903  -0.028  -0.291716  -0.462027  -0.026926  2.399917  -0.029
O  O58  1  0.29648728  0.99088557  0.08234572  1  -0.530397  -0.021863  2.1322  -0.027  -0.484085  -0.025132  2.397737  -0.029  -0.516371  -0.022936  2.392812  -0.028  -0.29175  -0.462047  -0.026918  2.399793  -0.029
O  O59  1  0.44316334  0.00662962  0.78257368  1  -0.541675  -0.02113  2.160059  -0.027  -0.495057  -0.023961  2.424588  -0.028  -0.529668  -0.021523  2.422818  -0.028  -0.292586  -0.471543  -0.025716  2.424711  -0.029
O  O60  1  0.55683091  0.99335748  0.21742784  1  -0.541596  -0.021115  2.159996  -0.027  -0.494948  -0.023946  2.424454  -0.028  -0.529551  -0.021507  2.422675  -0.028  -0.292526  -0.471425  -0.025704  2.424606  -0.029
O  O61  1  0.38084003  0.46065068  0.26441354  1  -0.544871  -0.023332  2.11542  -0.029  -0.503216  -0.026932  2.381292  -0.031  -0.535174  -0.024333  2.374239  -0.03  -0.302513  -0.481679  -0.028841  2.384739  -0.031
O  O62  1  0.61914266  0.53934743  0.73556293  1  -0.545026  -0.023347  2.115579  -0.029  -0.503378  -0.026944  2.381571  -0.031  -0.535328  -0.024343  2.374523  -0.03  -0.302614  -0.481836  -0.028857  2.384996  -0.031
O  O63  1  0.27248098  0.29390973  0.33872213  1  -0.523836  -0.020899  2.130971  -0.027  -0.478215  -0.023501  2.392732  -0.028  -0.512268  -0.021414  2.390796  -0.028  -0.288178  -0.455426  -0.025319  2.393065  -0.028
O  O64  1  0.72753276  0.70611036  0.66128823  1  -0.523922  -0.020899  2.130457  -0.027  -0.478258  -0.023504  2.392214  -0.028  -0.512318  -0.021418  2.390263  -0.028  -0.288209  -0.455468  -0.025321  2.392553  -0.028
O  O65  1  0.38450747  0.68805860  0.47541479  1  -0.543411  -0.020516  2.146687  -0.025  -0.49592  -0.024032  2.411992  -0.027  -0.528383  -0.021856  2.406782  -0.027  -0.297363  -0.473892  -0.025783  2.414328  -0.028
O  O66  1  0.61549461  0.31195600  0.52458370  1  -0.543578  -0.020513  2.147008  -0.025  -0.496081  -0.024026  2.412237  -0.027  -0.528538  -0.021848  2.407037  -0.027  -0.297426  -0.474049  -0.02578  2.414552  -0.028
O  O67  1  0.27451156  0.52206912  0.54966414  1  -0.534853  -0.01882  2.140501  -0.024  -0.486948  -0.021863  2.406356  -0.025  -0.519705  -0.01961  2.402164  -0.024  -0.289123  -0.464904  -0.023563  2.40806  -0.026
O  O68  1  0.72551404  0.47793770  0.45033605  1  -0.534779  -0.01881  2.140509  -0.024  -0.486906  -0.021856  2.406208  -0.025  -0.519666  -0.019604  2.402  -0.024  -0.289088  -0.464868  -0.023555  2.407927  -0.026
