# generated using pymatgen
data_ZnH12C25NO10
_symmetry_space_group_name_H-M   'P 1'
_cell_length_a   14.12482118
_cell_length_b   20.45529143
_cell_length_c   22.46652297
_cell_angle_alpha   89.79031763
_cell_angle_beta   93.24457993
_cell_angle_gamma   87.81812584
_symmetry_Int_Tables_number   1
_chemical_formula_structural   ZnH12C25NO10
_chemical_formula_sum   'Zn4 H48 C100 N4 O40'
_cell_volume   6475.97890075
_cell_formula_units_Z   4
loop_
 _symmetry_equiv_pos_site_id
 _symmetry_equiv_pos_as_xyz
  1  'x, y, z'
loop_
 _atom_site_type_symbol
 _atom_site_label
 _atom_site_symmetry_multiplicity
 _atom_site_fract_x
 _atom_site_fract_y
 _atom_site_fract_z
 _atom_site_occupancy
 _atom_site_pbe_bader_charge
 _atom_site_pbe_bader_spin_density
 _atom_site_pbe_cm5_charge
 _atom_site_pbe_ddec_charge
 _atom_site_pbe_ddec_spin_density
 _atom_site_pbe_ddec_sum_bond_order
 _atom_site_pbe_magmom
Zn  Zn0  1  0.39693842  0.99883792  0.49653179  1  1.302645  0  0.683278  0.858596  0  2.334344  0
Zn  Zn1  1  0.60900647  0.99761617  0.50264687  1  1.300652  0  0.683437  0.858325  0  2.337865  0
Zn  Zn2  1  0.39126121  0.49988274  0.99671583  1  1.301476  0  0.690948  0.860226  0  2.368458  0
Zn  Zn3  1  0.60536320  0.49724203  0.00185699  1  1.298939  0  0.691474  0.860187  0  2.364956  0
H  H4  1  0.72789892  0.83158743  0.76151905  1  0.062202  0  0.108995  0.118323  0  1.011279  0
H  H5  1  0.28439537  0.15209566  0.23094943  1  0.077692  0  0.109065  0.117835  0  1.011782  0
H  H6  1  0.73406385  0.17922488  0.74496789  1  0.080379  0  0.101662  0.122893  0  1.019163  0
H  H7  1  0.27219549  0.82433602  0.25020191  1  0.070893  0  0.101574  0.123118  0  1.019582  0
H  H8  1  0.71528083  0.33472409  0.26002255  1  0.049806  0  0.108478  0.117313  0  1.012108  0
H  H9  1  0.29110600  0.65573721  0.73246489  1  0.036309  0  0.108822  0.117263  0  1.012453  0
H  H10  1  0.73382614  0.65643018  0.25414299  1  0.076542  0  0.10159  0.122717  0  1.018391  0
H  H11  1  0.26775459  0.34032854  0.74256546  1  0.07428  0  0.101698  0.123157  0  1.017735  0
H  H12  1  0.08426789  0.16146994  0.52897800  1  0.098645  0  0.110139  0.119066  0  0.990655  0
H  H13  1  0.92170554  0.83520068  0.46978491  1  0.127135  0  0.109792  0.118653  0  0.990925  0
H  H14  1  0.09764387  0.83268559  0.48221594  1  0.091416  0  0.107194  0.114062  0  0.994643  0
H  H15  1  0.90832844  0.16397628  0.51697930  1  0.089746  0  0.10736  0.114719  0  0.993239  0
H  H16  1  0.07121286  0.64602753  0.92793983  1  0.078432  0  0.107072  0.114499  0  0.99755  0
H  H17  1  0.92496500  0.34892167  0.06636897  1  0.091067  0  0.106914  0.114833  0  0.998564  0
H  H18  1  0.10095768  0.34867924  0.06557554  1  0.076711  0  0.102629  0.107765  0  1.007033  0
H  H19  1  0.89537442  0.64619528  0.92856352  1  0.085912  0  0.102073  0.106707  0  1.009519  0
H  H20  1  0.31126273  0.09434756  0.29066813  1  0.631693  0  0.330808  0.355213  0  0.90218  0
H  H21  1  0.69863920  0.89345931  0.70526557  1  0.597829  0  0.330635  0.354341  0  0.902644  0
H  H22  1  0.34932462  0.91555914  0.36866952  1  0.637127  0  0.305344  0.356243  0  0.96741  0
H  H23  1  0.65704891  0.08443867  0.62849399  1  0.641269  0  0.30461  0.355518  0  0.968388  0
H  H24  1  0.30978713  0.60330737  0.79680297  1  0.614934  0  0.334987  0.361839  0  0.893333  0
H  H25  1  0.69270077  0.38986211  0.19723231  1  0.594119  0  0.335279  0.362436  0  0.892953  0
H  H26  1  0.34183879  0.42956498  0.86334165  1  0.640951  0  0.304013  0.355652  0  0.966177  0
H  H27  1  0.65523791  0.56424703  0.13589563  1  0.634809  0  0.30346  0.355316  0  0.968108  0
H  H28  1  0.62230845  0.17717346  0.40146988  1  0.038384  0  0.101828  0.089747  0  1.046631  0
H  H29  1  0.38357358  0.81716348  0.59466961  1  0.026236  0  0.101922  0.091043  0  1.046426  0
H  H30  1  0.65002029  0.83421410  0.38072618  1  0.105208  0  0.104735  0.113819  0  1.029237  0
H  H31  1  0.35509169  0.16302151  0.61668273  1  0.096782  0  0.104773  0.113667  0  1.029633  0
H  H32  1  0.62192896  0.68589944  0.90816220  1  0.060417  0  0.107874  0.100746  0  1.03867  0
H  H33  1  0.37943927  0.30668317  0.08794144  1  0.023564  0  0.106971  0.098708  0  1.036951  0
H  H34  1  0.64508326  0.35693349  0.87244196  1  0.111227  0  0.107896  0.123547  0  1.001959  0
H  H35  1  0.35626834  0.64515873  0.12337397  1  0.118163  0  0.107887  0.123207  0  1.003363  0
H  H36  1  0.71581577  0.23394587  0.38379110  1  0.622778  0  0.330686  0.361748  0  0.89982  0
H  H37  1  0.29454461  0.75551968  0.60831662  1  0.609774  0  0.330272  0.360872  0  0.901575  0
H  H38  1  0.79981106  0.71749481  0.32999940  1  0.599994  0  0.339855  0.367506  0  0.869165  0
H  H39  1  0.20340337  0.27882952  0.66647735  1  0.607489  0  0.340018  0.367753  0  0.869444  0
H  H40  1  0.73006847  0.72496145  0.88121002  1  0.608269  0  0.329441  0.362423  0  0.902628  0
H  H41  1  0.28041802  0.25632691  0.10952021  1  0.62095  0  0.330336  0.362563  0  0.899326  0
H  H42  1  0.79834334  0.24042131  0.82120116  1  0.612706  0  0.340212  0.367468  0  0.869557  0
H  H43  1  0.20676100  0.76440545  0.17349396  1  0.59516  0  0.340073  0.367614  0  0.867615  0
H  H44  1  0.32447517  0.89060232  0.52047272  1  0.630407  0  0.30991  0.362958  0  0.963381  0
H  H45  1  0.68127761  0.10574882  0.47872899  1  0.673409  0  0.310321  0.363712  0  0.962996  0
H  H46  1  0.31577585  0.09714507  0.54480879  1  0.665497  0  0.311566  0.364743  0  0.963546  0
H  H47  1  0.69040908  0.89932332  0.45407494  1  0.668822  0  0.311974  0.365956  0  0.962524  0
H  H48  1  0.32413142  0.40214417  0.04890941  1  0.679476  0  0.303715  0.358895  0  0.99849  0
H  H49  1  0.67137492  0.59492097  0.95016215  1  0.678247  0  0.302333  0.356952  0  1.001943  0
H  H50  1  0.30145912  0.59489963  0.94156644  1  0.676791  0  0.31156  0.373275  0  0.972058  0
H  H51  1  0.69496349  0.39981230  0.05330018  1  0.646893  0  0.310834  0.371798  0  0.974693  0
C  C52  1  0.50349681  0.08383611  0.58917563  1  1.488604  0  0.222878  0.624636  0  4.110163  0
C  C53  1  0.50265946  0.91375385  0.40904565  1  1.477724  0  0.22296  0.625005  0  4.112253  0
C  C54  1  0.51338934  0.90169801  0.57487867  1  1.542187  0  0.226642  0.632986  0  4.106941  0
C  C55  1  0.49266008  0.09333729  0.42306678  1  1.54748  0  0.227122  0.634668  0  4.105368  0
C  C56  1  0.50129426  0.56716509  0.09521399  1  1.482042  0  0.218959  0.616985  0  4.135649  0
C  C57  1  0.49638712  0.43073740  0.90251010  1  1.520607  0  0.219216  0.617963  0  4.137402  0
C  C58  1  0.50860421  0.39228703  0.06792523  1  1.57427  0  0.240488  0.652297  0  4.082164  0
C  C59  1  0.48924340  0.60344742  0.92958927  1  1.53181  0  0.240369  0.650967  0  4.084203  0
C  C60  1  0.41947497  0.13696598  0.32445112  1  0.491872  0  0.098128  0.261493  0  3.99795  0
C  C61  1  0.58925846  0.85290953  0.67085251  1  0.499973  0  0.098099  0.259255  0  3.997325  0
C  C62  1  0.41857571  0.85230872  0.32650857  1  0.549441  0  0.093051  0.264533  0  4.014369  0
C  C63  1  0.58743836  0.14822621  0.66979071  1  0.530361  0  0.09401  0.264651  0  4.012848  0
C  C64  1  0.42114897  0.64401544  0.82917698  1  0.522946  0  0.097014  0.259491  0  4.000879  0
C  C65  1  0.58166137  0.34794918  0.16553360  1  0.482512  0  0.095548  0.257154  0  4.006648  0
C  C66  1  0.41368043  0.37030488  0.81844966  1  0.532957  0  0.091005  0.260412  0  4.02162  0
C  C67  1  0.58661440  0.62733384  0.17864767  1  0.539757  0  0.09091  0.260452  0  4.020279  0
C  C68  1  0.49206792  0.13770262  0.37028207  1  0.063465  0  -0.026822  -0.137646  0  3.965628  0
C  C69  1  0.51525818  0.85466414  0.62580758  1  0.022196  0  -0.026939  -0.136289  0  3.96456  0
C  C70  1  0.50255797  0.86332674  0.36225760  1  0.006022  0  -0.044924  -0.19909  0  4.044509  0
C  C71  1  0.50329440  0.13559836  0.63475796  1  0.021776  0  -0.045583  -0.200662  0  4.045032  0
C  C72  1  0.49210063  0.64546519  0.87592290  1  0.036586  0  -0.030456  -0.153693  0  3.990841  0
C  C73  1  0.50914218  0.34730259  0.11984744  1  0.033765  0  -0.029961  -0.15058  0  3.994237  0
C  C74  1  0.49746566  0.38247018  0.85375337  1  -0.00963  0  -0.043453  -0.192714  0  4.03844  0
C  C75  1  0.50254942  0.61648355  0.14309201  1  0.01955  0  -0.042661  -0.191927  0  4.035664  0
C  C76  1  0.56747240  0.17942124  0.36522128  1  -0.015193  0  -0.09224  -0.134508  0  4.022976  0
C  C77  1  0.43963693  0.81296197  0.63008628  1  0.008441  0  -0.092759  -0.138235  0  4.0239  0
C  C78  1  0.58564790  0.82551448  0.35355915  1  -0.006135  0  -0.091963  -0.114934  0  3.976876  0
C  C79  1  0.41960784  0.17278468  0.64330245  1  -0.044655  0  -0.092386  -0.114267  0  3.975567  0
C  C80  1  0.56961283  0.68541648  0.87061231  1  -0.042292  0  -0.091276  -0.138345  0  4.016796  0
C  C81  1  0.43342031  0.30573646  0.12466960  1  -0.038966  0  -0.091999  -0.140829  0  4.019525  0
C  C82  1  0.58192953  0.34663987  0.84461328  1  -0.038804  0  -0.087422  -0.107977  0  3.966521  0
C  C83  1  0.41961370  0.65444424  0.15137088  1  -0.038543  0  -0.087272  -0.106799  0  3.966122  0
C  C84  1  0.57299304  0.22144330  0.31653665  1  0.017554  0  -0.025857  -0.059688  0  4.077262  0
C  C85  1  0.43472451  0.76915583  0.67750835  1  -0.001462  0  -0.024899  -0.05607  0  4.073865  0
C  C86  1  0.58695114  0.77605198  0.31105579  1  0.001661  0  -0.023735  -0.034706  0  4.039129  0
C  C87  1  0.41762891  0.22283043  0.68519722  1  0.024922  0  -0.023019  -0.03349  0  4.038703  0
C  C88  1  0.57851764  0.72455841  0.82043531  1  -0.022274  0  -0.024001  -0.053886  0  4.073361  0
C  C89  1  0.42778352  0.26413889  0.17361636  1  0.061242  0  -0.024166  -0.053763  0  4.072741  0
C  C90  1  0.58472216  0.29746908  0.80178710  1  0.063833  0  -0.023779  -0.037486  0  4.038055  0
C  C91  1  0.41844382  0.70402215  0.19378286  1  0.033947  0  -0.023492  -0.036889  0  4.038057  0
C  C92  1  0.49895017  0.22174487  0.27031526  1  0.016583  0  0.001652  0.031729  0  3.939861  0
C  C93  1  0.50913677  0.76738342  0.72351727  1  0.031492  0  0.001612  0.029748  0  3.941705  0
C  C94  1  0.50292942  0.76498026  0.27438566  1  -0.025078  0  -0.000214  0.016778  0  3.955286  0
C  C95  1  0.50163811  0.23527995  0.72139396  1  -0.005171  0  -7.5e-05  0.01499  0  3.958192  0
C  C96  1  0.50491510  0.72543662  0.77393607  1  0.056575  0  0.003075  0.032717  0  3.938439  0
C  C97  1  0.50190890  0.26372415  0.21980509  1  0.0332  0  0.002638  0.030855  0  3.936299  0
C  C98  1  0.50089439  0.28533391  0.76529640  1  0.01781  0  -0.00044  0.01514  0  3.956585  0
C  C99  1  0.50250595  0.71493296  0.23047742  1  0.014882  0  1.8e-05  0.015345  0  3.956698  0
C  C100  1  0.42140656  0.17952085  0.27444801  1  0.015745  0  -0.019801  -0.032953  0  4.071698  0
C  C101  1  0.58770776  0.80870503  0.71968745  1  0.036995  0  -0.020553  -0.031466  0  4.070222  0
C  C102  1  0.41867793  0.80386453  0.28156387  1  0.039071  0  -0.019799  -0.003105  0  4.032912  0
C  C103  1  0.58679894  0.19741926  0.71406359  1  -0.003631  0  -0.01941  -0.001543  0  4.03091  0
C  C104  1  0.42579379  0.68464368  0.77815002  1  0.025935  0  -0.020036  -0.0308  0  4.072434  0
C  C105  1  0.57970006  0.30579109  0.21567229  1  0.025664  0  -0.019563  -0.028678  0  4.074371  0
C  C106  1  0.41529084  0.32262047  0.77300431  1  0.054973  0  -0.019642  -0.00312  0  4.03566  0
C  C107  1  0.58683241  0.67605670  0.22330289  1  -0.00772  0  -0.019934  -0.003893  0  4.034266  0
C  C108  1  0.65062286  0.26413045  0.31042587  1  0.465369  0  0.085847  0.290645  0  4.087791  0
C  C109  1  0.35703261  0.72632228  0.68281337  1  0.473522  0  0.086265  0.289408  0  4.088719  0
C  C110  1  0.67021778  0.73514976  0.30259875  1  0.37677  0  0.077412  0.269365  0  4.114526  0
C  C111  1  0.33341475  0.26273840  0.69367654  1  0.387523  0  0.076893  0.269046  0  4.115011  0
C  C112  1  0.65957100  0.76386154  0.81312066  1  0.464754  0  0.085586  0.28869  0  4.086948  0
C  C113  1  0.34947885  0.22209349  0.18015557  1  0.430106  0  0.086028  0.288978  0  4.087309  0
C  C114  1  0.66880400  0.25742201  0.79333551  1  0.371492  0  0.078545  0.27202  0  4.113096  0
C  C115  1  0.33554846  0.74540553  0.20182359  1  0.417414  0  0.077639  0.269918  0  4.1157  0
C  C116  1  0.66312029  0.80462654  0.76479153  1  0.008033  0  -0.119964  -0.285606  0  4.016983  0
C  C117  1  0.34724734  0.18128281  0.22855533  1  -0.014068  0  -0.120263  -0.284405  0  4.017837  0
C  C118  1  0.66996087  0.20937603  0.75097995  1  0.066489  0  -0.128651  -0.306498  0  4.039815  0
C  C119  1  0.33548114  0.79335939  0.24422576  1  0.027057  0  -0.128677  -0.306284  0  4.043041  0
C  C120  1  0.65324933  0.30467669  0.26185352  1  0.022427  0  -0.120587  -0.286392  0  4.019835  0
C  C121  1  0.35328818  0.68575421  0.73129584  1  0.021755  0  -0.120772  -0.285343  0  4.017738  0
C  C122  1  0.67027520  0.68708984  0.26031752  1  0.062431  0  -0.12843  -0.304812  0  4.042808  0
C  C123  1  0.33213106  0.31063590  0.73606573  1  0.03012  0  -0.128606  -0.305216  0  4.04281  0
C  C124  1  0.20588574  0.93940220  0.50471489  1  1.021862  0  0.213336  0.436621  0  4.043233  0
C  C125  1  0.79995916  0.05712562  0.49445963  1  1.059724  0  0.213655  0.43532  0  4.043302  0
C  C126  1  0.20122159  0.05315462  0.51891771  1  1.048724  0  0.219201  0.445632  0  4.041511  0
C  C127  1  0.80474088  0.94337328  0.48018697  1  1.083011  0  0.218994  0.445672  0  4.039621  0
C  C128  1  0.20243686  0.44666870  0.02126777  1  1.114276  0  0.21301  0.444746  0  4.05137  0
C  C129  1  0.79378135  0.54897108  0.97447140  1  1.046735  0  0.212492  0.445553  0  4.049755  0
C  C130  1  0.19202096  0.54867018  0.97168377  1  1.05916  0  0.215863  0.446457  0  4.053527  0
C  C131  1  0.80441147  0.44690384  0.02393936  1  1.089394  0  0.216464  0.445407  0  4.059935  0
C  C132  1  0.10079818  0.05698739  0.51376647  1  0.060368  0  -0.022461  -0.093193  0  4.028278  0
C  C133  1  0.90516362  0.93963238  0.48524156  1  0.065646  0  -0.022854  -0.09338  0  4.02887  0
C  C134  1  0.10597618  0.93727165  0.49768968  1  0.098521  0  -0.024565  -0.09522  0  4.032852  0
C  C135  1  0.89987758  0.05933251  0.50145250  1  0.060501  0  -0.024375  -0.093477  0  4.032433  0
C  C136  1  0.09208848  0.55127257  0.97169887  1  0.111993  0  -0.02652  -0.098812  0  4.052299  0
C  C137  1  0.90427278  0.44394200  0.02310234  1  0.061832  0  -0.026807  -0.095959  0  4.050402  0
C  C138  1  0.10305706  0.44370453  0.02192794  1  0.046992  0  -0.027261  -0.096628  0  4.05167  0
C  C139  1  0.89308354  0.55143664  0.97273541  1  0.102017  0  -0.026875  -0.096754  0  4.050239  0
C  C140  1  0.05365923  0.99780887  0.50223641  1  -0.015553  0  0.012811  0.055743  0  3.945549  0
C  C141  1  0.95223947  0.99882511  0.49684424  1  -0.000954  0  0.012601  0.053346  0  3.947914  0
C  C142  1  0.04837226  0.49752156  0.99700152  1  -0.052216  0  0.010771  0.054876  0  3.983504  0
C  C143  1  0.94786033  0.49759593  0.99757498  1  -0.025743  0  0.010568  0.056151  0  3.982063  0
C  C144  1  0.04646614  0.11694490  0.51952260  1  -0.021292  0  -0.089962  -0.106996  0  4.006169  0
C  C145  1  0.95947825  0.87970040  0.47939247  1  -0.028684  0  -0.089517  -0.106577  0  4.006583  0
C  C146  1  0.05650096  0.87839400  0.48622322  1  -0.070228  0  -0.092393  -0.110718  0  4.015401  0
C  C147  1  0.94941130  0.11823530  0.51284574  1  -0.031196  0  -0.092733  -0.112125  0  4.014037  0
C  C148  1  0.03554325  0.60525326  0.94686314  1  0.014185  0  -0.093996  -0.109515  0  4.018947  0
C  C149  1  0.96070792  0.38970898  0.04753391  1  0.017575  0  -0.094271  -0.112472  0  4.021796  0
C  C150  1  0.05739046  0.38962991  0.04699545  1  -0.087597  0  -0.095716  -0.111901  0  4.026749  0
C  C151  1  0.93884002  0.60527375  0.94731528  1  -0.062217  0  -0.095748  -0.112735  0  4.027165  0
N  N152  1  0.25158353  0.99620039  0.51154570  1  -1.25709  0  -0.352399  -0.47345  0  3.465083  0
N  N153  1  0.75434630  0.00027705  0.48765454  1  -1.275087  0  -0.352777  -0.472533  0  3.464304  0
N  N154  1  0.24577072  0.49767938  0.99637274  1  -1.278419  0  -0.353922  -0.470189  0  3.445026  0
N  N155  1  0.75065717  0.49832112  0.00012915  1  -1.270497  0  -0.354256  -0.470942  0  3.449945  0
O  O156  1  0.42460879  0.06608246  0.56446136  1  -1.197036  0  -0.311644  -0.563741  0  2.386698  0
O  O157  1  0.58165803  0.93078755  0.43408726  1  -1.190506  0  -0.311542  -0.564812  0  2.38497  0
O  O158  1  0.42207055  0.93935142  0.42283788  1  -1.161975  0  -0.305933  -0.548181  0  2.348838  0
O  O159  1  0.58411094  0.05773417  0.57603541  1  -1.166536  0  -0.305534  -0.547245  0  2.346863  0
O  O160  1  0.59107974  0.92293196  0.55938350  1  -1.139835  0  -0.298825  -0.504665  0  2.365707  0
O  O161  1  0.41458446  0.07328398  0.43908407  1  -1.141836  0  -0.299809  -0.50591  0  2.357592  0
O  O162  1  0.57448974  0.07767787  0.44900027  1  -1.191187  0  -0.324166  -0.592096  0  2.377967  0
O  O163  1  0.43120736  0.91830872  0.54994396  1  -1.187982  0  -0.322931  -0.589818  0  2.376181  0
O  O164  1  0.42222598  0.55284225  0.06993224  1  -1.164753  0  -0.313316  -0.533776  0  2.348321  0
O  O165  1  0.57482686  0.44931405  0.92572296  1  -1.172756  0  -0.315012  -0.53731  0  2.34664  0
O  O166  1  0.41426206  0.45110619  0.91940901  1  -1.169585  0  -0.315218  -0.56166  0  2.370948  0
O  O167  1  0.58226787  0.54139346  0.08107264  1  -1.163469  0  -0.316466  -0.563321  0  2.369778  0
O  O168  1  0.58586601  0.40964719  0.04766138  1  -1.168317  0  -0.294826  -0.532183  0  2.430638  0
O  O169  1  0.41077209  0.58378840  0.94616202  1  -1.168996  0  -0.296377  -0.533499  0  2.445611  0
O  O170  1  0.56760594  0.58718951  0.95850274  1  -1.187999  0  -0.309682  -0.560169  0  2.404931  0
O  O171  1  0.42832063  0.41316509  0.04446387  1  -1.190317  0  -0.306359  -0.557565  0  2.418095  0
O  O172  1  0.34950206  0.09365741  0.32818157  1  -1.132663  0  -0.335868  -0.403229  0  2.307022  0
O  O173  1  0.66011805  0.89564727  0.66785898  1  -1.097011  0  -0.335743  -0.401446  0  2.306125  0
O  O174  1  0.33670281  0.88713855  0.33303844  1  -1.148466  0  -0.356549  -0.442496  0  2.280818  0
O  O175  1  0.66989579  0.11410676  0.66325783  1  -1.152712  0  -0.355949  -0.441094  0  2.278072  0
O  O176  1  0.34950023  0.60208682  0.83371606  1  -1.123406  0  -0.333873  -0.410335  0  2.32797  0
O  O177  1  0.65144960  0.39139392  0.16096823  1  -1.109756  0  -0.334318  -0.412636  0  2.328251  0
O  O178  1  0.33040937  0.40316123  0.82632412  1  -1.156062  0  -0.359157  -0.445059  0  2.27437  0
O  O179  1  0.66827634  0.59221323  0.17179628  1  -1.149437  0  -0.358148  -0.443871  0  2.275107  0
O  O180  1  0.72443376  0.26554438  0.35219960  1  -1.151522  0  -0.353206  -0.433487  0  2.242078  0
O  O181  1  0.28404870  0.72500707  0.64045328  1  -1.130434  0  -0.352814  -0.432449  0  2.243802  0
O  O182  1  0.74800998  0.74770636  0.33957164  1  -1.118439  0  -0.354677  -0.446163  0  2.265949  0
O  O183  1  0.25590696  0.24926892  0.65679398  1  -1.129269  0  -0.354881  -0.446684  0  2.266764  0
O  O184  1  0.73531895  0.76142131  0.85366125  1  -1.134139  0  -0.353856  -0.435476  0  2.241997  0
O  O185  1  0.27473180  0.22177532  0.13892574  1  -1.121613  0  -0.353671  -0.435044  0  2.240755  0
O  O186  1  0.74611332  0.27040471  0.83050819  1  -1.134908  0  -0.353784  -0.44539  0  2.263746  0
O  O187  1  0.25806929  0.73353901  0.16442876  1  -1.114029  0  -0.352946  -0.444343  0  2.262043  0
O  O188  1  0.25829524  0.88310117  0.50460429  1  -1.143795  0  -0.3427  -0.461254  0  2.272248  0
O  O189  1  0.74740648  0.11336967  0.49452115  1  -1.178056  0  -0.342583  -0.461302  0  2.272623  0
O  O190  1  0.24780676  0.10747336  0.53135518  1  -1.176205  0  -0.330963  -0.445735  0  2.290092  0
O  O191  1  0.75822496  0.88900726  0.46777579  1  -1.179819  0  -0.331268  -0.446902  0  2.288326  0
O  O192  1  0.25310793  0.39647548  0.04648928  1  -1.21469  0  -0.350704  -0.484925  0  2.320664  0
O  O193  1  0.74274585  0.59924930  0.94967512  1  -1.215143  0  -0.350779  -0.487783  0  2.327404  0
O  O194  1  0.23109499  0.59903517  0.94617926  1  -1.194232  0  -0.338873  -0.465363  0  2.317221  0
O  O195  1  0.76565320  0.39651324  0.04952216  1  -1.167176  0  -0.338859  -0.464798  0  2.32505  0
