# generated using pymatgen
data_Cd3H52C56S6(N5O9)2
_symmetry_space_group_name_H-M   'P 1'
_cell_length_a   8.44211519
_cell_length_b   11.64681301
_cell_length_c   15.70950000
_cell_angle_alpha   95.48926290
_cell_angle_beta   104.69322352
_cell_angle_gamma   99.14258554
_symmetry_Int_Tables_number   1
_chemical_formula_structural   Cd3H52C56S6(N5O9)2
_chemical_formula_sum   'Cd3 H52 C56 S6 N10 O18'
_cell_volume   1460.09764384
_cell_formula_units_Z   1
loop_
 _symmetry_equiv_pos_site_id
 _symmetry_equiv_pos_as_xyz
  1  'x, y, z'
loop_
 _atom_site_type_symbol
 _atom_site_label
 _atom_site_symmetry_multiplicity
 _atom_site_fract_x
 _atom_site_fract_y
 _atom_site_fract_z
 _atom_site_occupancy
 _atom_site_hle17_bader_spin_density
 _atom_site_hle17_ddec_charge
 _atom_site_hle17_ddec_spin_density
 _atom_site_hle17_ddec_sum_bond_order
 _atom_site_hle17_magmom
 _atom_site_hse06_10hf_bader_spin_density
 _atom_site_hse06_10hf_ddec_charge
 _atom_site_hse06_10hf_ddec_spin_density
 _atom_site_hse06_10hf_ddec_sum_bond_order
 _atom_site_hse06_10hf_magmom
 _atom_site_hse06_bader_spin_density
 _atom_site_hse06_ddec_charge
 _atom_site_hse06_ddec_spin_density
 _atom_site_hse06_ddec_sum_bond_order
 _atom_site_hse06_magmom
 _atom_site_pbe_bader_charge
 _atom_site_pbe_bader_spin_density
 _atom_site_pbe_cm5_charge
 _atom_site_pbe_ddec_charge
 _atom_site_pbe_ddec_spin_density
 _atom_site_pbe_ddec_sum_bond_order
 _atom_site_pbe_magmom
Cd  Cd0  1  0.49999958  0.49999979  0.99999971  1  0  1.217961  0  1.682747  0  0  1.028251  0  2.144539  0  0  1.078875  0  2.091722  0  1.330723  0  0.824108  0.992024  0  2.181037  0
Cd  Cd1  1  0.47760818  0.45021999  0.32442458  1  0  1.20868  0  1.642234  0  0  1.019865  0  2.09562  0  0  1.070785  0  2.044032  0  1.326591  0  0.815909  0.983437  0  2.131227  0
Cd  Cd2  1  0.52239343  0.54977959  0.67557643  1  0  1.208695  0  1.642204  0  0  1.019886  0  2.095577  0  0  1.070807  0  2.043992  0  1.326505  0  0.815934  0.983461  0  2.131181  0
H  H3  1  0.03025019  0.56780849  0.42336701  1  0  0.140945  0  0.925361  0  0  0.150814  0  0.984999  0  0  0.15431  0  0.98327  0  0.13459  0  0.111946  0.148285  0  0.986429  0
H  H4  1  0.96974945  0.43219284  0.57663259  1  0  0.140938  0  0.925381  0  0  0.150825  0  0.984996  0  0  0.15432  0  0.983268  0  0.134614  0  0.111952  0.148296  0  0.986425  0
H  H5  1  0.93188699  0.41826437  0.40990975  1  0  0.130017  0  0.922092  0  0  0.142302  0  0.98074  0  0  0.145393  0  0.979298  0  0.089484  0  0.109959  0.140073  0  0.98198  0
H  H6  1  0.06811364  0.58173608  0.59008992  1  0  0.13001  0  0.922089  0  0  0.142291  0  0.980747  0  0  0.145381  0  0.979306  0  0.089478  0  0.109959  0.140062  0  0.981987  0
H  H7  1  0.14613705  0.59501878  0.19162334  1  0  0.127216  0  0.931897  0  0  0.138228  0  0.9906  0  0  0.140912  0  0.990737  0  0.093561  0  0.107732  0.136306  0  0.990655  0
H  H8  1  0.85386334  0.40498080  0.80837688  1  0  0.12722  0  0.931895  0  0  0.138232  0  0.990589  0  0  0.140916  0  0.990729  0  0.093563  0  0.107735  0.136311  0  0.990645  0
H  H9  1  0.98080025  0.55191898  0.09110236  1  0  0.138935  0  0.939274  0  0  0.145571  0  1.006458  0  0  0.149234  0  1.004245  0  0.123243  0  0.110376  0.14292  0  1.008133  0
H  H10  1  0.01920038  0.44808147  0.90889795  1  0  0.138915  0  0.939282  0  0  0.145556  0  1.006463  0  0  0.149217  0  1.004254  0  0.123245  0  0.110371  0.142905  0  1.008139  0
H  H11  1  0.02824183  0.43478296  0.26230539  1  0  0.139661  0  0.944532  0  0  0.150591  0  1.004555  0  0  0.153924  0  1.002945  0  0.152726  0  0.108582  0.148188  0  1.0058  0
H  H12  1  0.97175733  0.56521662  0.73769466  1  0  0.139669  0  0.944551  0  0  0.150591  0  1.004562  0  0  0.153926  0  1.002955  0  0.15273  0  0.108581  0.14819  0  1.005808  0
H  H13  1  0.88053606  0.36843713  0.15907230  1  0  0.117969  0  0.942625  0  0  0.128125  0  1.006222  0  0  0.131088  0  1.004962  0  0.090797  0  0.106193  0.126002  0  1.007266  0
H  H14  1  0.11946456  0.63156333  0.84092801  1  0  0.117981  0  0.942636  0  0  0.128138  0  1.006215  0  0  0.131102  0  1.004956  0  0.090791  0  0.106197  0.126016  0  1.007258  0
H  H15  1  0.51699269  0.64141245  0.19386001  1  0  0.08198  0  0.98071  0  0  0.087602  0  1.050913  0  0  0.090126  0  1.048124  0  0.137815  0  0.112937  0.085556  0  1.053201  0
H  H16  1  0.48300770  0.35858713  0.80614020  1  0  0.081988  0  0.980698  0  0  0.087615  0  1.050894  0  0  0.090139  0  1.048106  0  0.137815  0  0.112949  0.085573  0  1.053179  0
H  H17  1  0.37761423  0.65742847  0.42919497  1  0  0.083887  0  0.981371  0  0  0.091354  0  1.047632  0  0  0.09375  0  1.045303  0  0.144718  0  0.11415  0.089514  0  1.049431  0
H  H18  1  0.62238640  0.34257198  0.57080407  1  0  0.083867  0  0.981382  0  0  0.091333  0  1.047653  0  0  0.09373  0  1.045322  0  0.144705  0  0.114138  0.089492  0  1.049454  0
H  H19  1  0.34872631  0.86482498  0.42629597  1  0  0.112635  0  0.986736  0  0  0.116086  0  1.056584  0  0  0.120544  0  1.054186  0  0.125935  0  0.108258  0.112926  0  1.058357  0
H  H20  1  0.65127531  0.13517459  0.57370313  1  0  0.112623  0  0.986729  0  0  0.116075  0  1.05658  0  0  0.120533  0  1.054183  0  0.125896  0  0.108263  0.112917  0  1.058351  0
H  H21  1  0.49984286  0.84794002  0.18194142  1  0  0.102162  0  0.967578  0  0  0.112373  0  1.028419  0  0  0.114803  0  1.029346  0  0.07938  0  0.105119  0.110651  0  1.027924  0
H  H22  1  0.50015875  0.15205955  0.81805705  1  0  0.102124  0  0.967676  0  0  0.112387  0  1.028457  0  0  0.114818  0  1.029382  0  0.079424  0  0.105127  0.110666  0  1.027961  0
H  H23  1  0.33504544  0.02806165  0.42162150  1  0  0.109629  0  0.998246  0  0  0.112971  0  1.070453  0  0  0.117074  0  1.06807  0  0.145399  0  0.108399  0.110009  0  1.072309  0
H  H24  1  0.66495617  0.97193792  0.57837633  1  0  0.109606  0  0.998274  0  0  0.112933  0  1.070493  0  0  0.117035  0  1.06811  0  0.145357  0  0.108374  0.109971  0  1.072345  0
H  H25  1  0.52218775  0.02336904  0.18888064  1  0  0.099018  0  0.963696  0  0  0.110101  0  1.024471  0  0  0.112601  0  1.024547  0  0.091737  0  0.104373  0.108304  0  1.024582  0
H  H26  1  0.47781287  0.97663141  0.81111776  1  0  0.09898  0  0.963638  0  0  0.110043  0  1.024447  0  0  0.112542  0  1.024523  0  0.091763  0  0.104342  0.108246  0  1.024556  0
H  H27  1  0.36216512  0.24356150  0.42555955  1  0  0.083126  0  0.96866  0  0  0.088217  0  1.039962  0  0  0.090561  0  1.037833  0  0.117601  0  0.11465  0.086461  0  1.041545  0
H  H28  1  0.63783602  0.75643631  0.57443937  1  0  0.083122  0  0.968637  0  0  0.088203  0  1.039952  0  0  0.090548  0  1.037824  0  0.117571  0  0.114622  0.086443  0  1.041542  0
H  H29  1  0.76749849  0.94904508  0.02155321  1  0  0.115917  0  0.985837  0  0  0.120681  0  1.054184  0  0  0.123947  0  1.053509  0  0.136707  0  0.110741  0.118307  0  1.054855  0
H  H30  1  0.23249969  0.05095537  0.97844613  1  0  0.115908  0  0.985892  0  0  0.120676  0  1.054234  0  0  0.123942  0  1.05356  0  0.136678  0  0.110749  0.118303  0  1.054904  0
H  H31  1  0.23220769  0.88362266  0.98565324  1  0  0.115805  0  0.989773  0  0  0.118309  0  1.06254  0  0  0.122549  0  1.059971  0  0.146376  0  0.10941  0.115272  0  1.064483  0
H  H32  1  0.76779025  0.11637691  0.01434600  1  0  0.115829  0  0.989777  0  0  0.118315  0  1.062553  0  0  0.122555  0  1.059985  0  0.146399  0  0.109422  0.11528  0  1.064489  0
H  H33  1  0.75583842  0.73622233  0.02365775  1  0  0.087629  0  0.967469  0  0  0.092712  0  1.037139  0  0  0.095364  0  1.034382  0  0.15876  0  0.117784  0.090714  0  1.039222  0
H  H34  1  0.24415975  0.26377812  0.97634222  1  0  0.087601  0  0.967499  0  0  0.092686  0  1.037167  0  0  0.095338  0  1.034411  0  0.158743  0  0.117765  0.090688  0  1.03925  0
H  H35  1  0.24342005  0.67396375  0.98750516  1  0  0.097835  0  0.96222  0  0  0.105962  0  1.025149  0  0  0.10824  0  1.023344  0  0.127634  0  0.118197  0.104175  0  1.026595  0
H  H36  1  0.75657765  0.32603494  0.01249463  1  0  0.097798  0  0.962266  0  0  0.105927  0  1.025193  0  0  0.108206  0  1.023387  0  0.127654  0  0.11821  0.104136  0  1.026646  0
H  H37  1  0.53967442  0.23888998  0.20279969  1  0  0.085276  0  0.937616  0  0  0.094576  0  0.998963  0  0  0.096492  0  0.997831  0  0.113281  0  0.115929  0.093149  0  0.999855  0
H  H38  1  0.46032596  0.76110960  0.79719989  1  0  0.085247  0  0.937562  0  0  0.094543  0  0.998927  0  0  0.096459  0  0.997794  0  0.113298  0  0.115909  0.093115  0  0.999821  0
H  H39  1  0.07558279  0.79212686  0.11019592  1  0  0.076458  0  0.937178  0  0  0.087937  0  0.996438  0  0  0.08978  0  0.995543  0  0.103878  0  0.109699  0.086556  0  0.997185  0
H  H40  1  0.92441590  0.20787095  0.88980266  1  0  0.076453  0  0.937209  0  0  0.087928  0  0.996475  0  0  0.08977  0  0.995583  0  0.103891  0  0.109707  0.086547  0  0.997222  0
H  H41  1  0.76366557  0.86670695  0.47198751  1  0  0.076561  0  0.949651  0  0  0.086167  0  1.01351  0  0  0.088116  0  1.012464  0  0.102936  0  0.108963  0.084762  0  1.014281  0
H  H42  1  0.23632869  0.13329263  0.52801123  1  0  0.076592  0  0.949598  0  0  0.086201  0  1.013453  0  0  0.08815  0  1.012407  0  0.102954  0  0.10898  0.08479  0  1.014234  0
H  H43  1  0.82808563  0.22589722  0.46521134  1  0  0.071268  0  0.927185  0  0  0.085365  0  0.982248  0  0  0.086961  0  0.981549  0  0.083677  0  0.1101  0.08419  0  0.982804  0
H  H44  1  0.17191524  0.77410411  0.53478843  1  0  0.071244  0  0.927236  0  0  0.085359  0  0.982274  0  0  0.086954  0  0.981579  0  0.083682  0  0.110111  0.084183  0  0.98283  0
H  H45  1  0.96635207  0.81072158  0.24114919  1  0  0.117689  0  0.983747  0  0  0.125501  0  1.046828  0  0  0.129173  0  1.045025  0  0.128116  0  0.104379  0.122874  0  1.048205  0
H  H46  1  0.03364879  0.18927975  0.75885184  1  0  0.117664  0  0.983774  0  0  0.125481  0  1.046856  0  0  0.12915  0  1.045052  0  0.128088  0  0.104368  0.122854  0  1.048234  0
H  H47  1  0.01444033  0.18414344  0.22411023  1  0  0.104167  0  0.955856  0  0  0.118212  0  1.011142  0  0  0.120995  0  1.01033  0  0.079494  0  0.104699  0.116182  0  1.011919  0
H  H48  1  0.98555907  0.81585701  0.77589118  1  0  0.104196  0  0.955847  0  0  0.118244  0  1.011126  0  0  0.121027  0  1.010314  0  0.07954  0  0.104706  0.116212  0  1.011903  0
H  H49  1  0.87062830  0.83180538  0.34353424  1  0  0.120816  0  0.959666  0  0  0.131854  0  1.017228  0  0  0.135041  0  1.01576  0  0.115942  0  0.109518  0.129577  0  1.018365  0
H  H50  1  0.12937062  0.16819331  0.65646635  1  0  0.120797  0  0.959735  0  0  0.131854  0  1.01727  0  0  0.135043  0  1.015802  0  0.115955  0  0.109514  0.129578  0  1.018407  0
H  H51  1  0.94552237  0.20792367  0.33714432  1  0  0.099197  0  0.960089  0  0  0.111853  0  1.018478  0  0  0.114557  0  1.017518  0  0.117209  0  0.103548  0.109896  0  1.019308  0
H  H52  1  0.05448169  0.79207590  0.66285703  1  0  0.099115  0  0.960192  0  0  0.111802  0  1.018545  0  0  0.114505  0  1.017588  0  0.117198  0  0.103519  0.109846  0  1.019374  0
H  H53  1  0.11793969  0.14825697  0.09422322  1  0  0.077433  0  0.959119  0  0  0.082687  0  1.02914  0  0  0.085159  0  1.027104  0  0.110904  0  0.106696  0.080841  0  1.030754  0
H  H54  1  0.88205407  0.85174524  0.90577628  1  0  0.077412  0  0.959178  0  0  0.082692  0  1.029155  0  0  0.085163  0  1.027119  0  0.110988  0  0.106698  0.080845  0  1.030767  0
C  C55  1  0.02261637  0.48916224  0.45669983  1  0  -0.282546  0  3.645962  0  0  -0.319069  0  3.901827  0  0  -0.32441  0  3.909376  0  -0.185888  0  -0.158637  -0.315495  0  3.897112  0
C  C56  1  0.97738327  0.51083909  0.54329977  1  0  -0.282493  0  3.645937  0  0  -0.319022  0  3.901773  0  0  -0.324363  0  3.909325  0  -0.156469  0  -0.158623  -0.315449  0  3.897059  0
C  C57  1  0.05706642  0.52040091  0.14849023  1  0  -0.282151  0  3.638567  0  0  -0.317081  0  3.894893  0  0  -0.322221  0  3.901474  0  -0.169522  0  -0.160047  -0.313433  0  3.890415  0
C  C58  1  0.94293421  0.47959954  0.85150944  1  0  -0.28213  0  3.638538  0  0  -0.317094  0  3.894872  0  0  -0.322236  0  3.901465  0  -0.169502  0  -0.160066  -0.313443  0  3.890391  0
C  C59  1  0.95193753  0.45188054  0.19870739  1  0  -0.287225  0  3.656204  0  0  -0.325014  0  3.913958  0  0  -0.330243  0  3.921029  0  -0.209652  0  -0.161667  -0.321392  0  3.909274  0
C  C60  1  0.04806408  0.54811903  0.80129235  1  0  -0.287288  0  3.656266  0  0  -0.325058  0  3.914005  0  0  -0.330264  0  3.921015  0  -0.209648  0  -0.161655  -0.32144  0  3.909328  0
C  C61  1  0.48060400  0.69381751  0.24422617  1  0  0.133874  0  3.707535  0  0  0.102027  0  3.960014  0  0  0.109491  0  3.978392  0  0.477978  0  0.045427  0.097246  0  3.947582  0
C  C62  1  0.51939833  0.30618470  0.75577386  1  0  0.133942  0  3.70748  0  0  0.102093  0  3.959973  0  0  0.109558  0  3.97835  0  0.477884  0  0.045454  0.097308  0  3.94754  0
C  C63  1  0.40183268  0.70290488  0.37498160  1  0  0.138048  0  3.694864  0  0  0.107511  0  3.941665  0  0  0.114869  0  3.960592  0  0.440545  0  0.04687  0.102751  0  3.928767  0
C  C64  1  0.59816846  0.29709293  0.62501796  1  0  0.138078  0  3.694979  0  0  0.107542  0  3.941785  0  0  0.1149  0  3.960711  0  0.440484  0  0.046893  0.102783  0  3.928889  0
C  C65  1  0.38741035  0.81976766  0.37302083  1  0  -0.143709  0  3.658199  0  0  -0.158576  0  3.900251  0  0  -0.166696  0  3.920358  0  0.013549  0  -0.075128  -0.153303  0  3.886766  0
C  C66  1  0.61258834  0.18023015  0.62697775  1  0  -0.14368  0  3.658292  0  0  -0.158567  0  3.900341  0  0  -0.166687  0  3.920449  0  0.013387  0  -0.075159  -0.153285  0  3.886835  0
C  C67  1  0.47003872  0.81058364  0.23811769  1  0  -0.149698  0  3.693265  0  0  -0.167733  0  3.9409  0  0  -0.175542  0  3.962363  0  -0.008905  0  -0.078825  -0.162685  0  3.926453  0
C  C68  1  0.52995993  0.18941857  0.76188057  1  0  -0.149649  0  3.693259  0  0  -0.167732  0  3.940868  0  0  -0.175541  0  3.96233  0  -0.008871  0  -0.078804  -0.162684  0  3.926423  0
C  C69  1  0.42560426  0.87771143  0.30425167  1  0  0.097671  0  3.750801  0  0  0.108458  0  3.978386  0  0  0.113248  0  3.999598  0  -0.053327  0  0.017736  0.10544  0  3.963884  0
C  C70  1  0.57439636  0.12228902  0.69574801  1  0  0.097585  0  3.750844  0  0  0.108423  0  3.978394  0  0  0.113214  0  3.999604  0  -0.053195  0  0.017717  0.105404  0  3.9639  0
C  C71  1  0.42885944  0.00516618  0.30520560  1  0  0.094613  0  3.738378  0  0  0.10698  0  3.965316  0  0  0.110245  0  3.986739  0  0.002502  0  0.016483  0.104917  0  3.950691  0
C  C72  1  0.57114241  0.99483428  0.69479360  1  0  0.094682  0  3.738287  0  0  0.107001  0  3.965259  0  0  0.110266  0  3.98668  0  0.002514  0  0.016489  0.104938  0  3.950633  0
C  C73  1  0.38283461  0.07042254  0.37176604  1  0  -0.13987  0  3.668852  0  0  -0.159351  0  3.918399  0  0  -0.166444  0  3.939076  0  -0.054583  0  -0.075669  -0.15472  0  3.904573  0
C  C74  1  0.61716554  0.92957615  0.62823280  1  0  -0.139878  0  3.668805  0  0  -0.159332  0  3.918364  0  0  -0.166423  0  3.939042  0  -0.054563  0  -0.075642  -0.1547  0  3.904537  0
C  C75  1  0.48498520  0.06727363  0.24287242  1  0  -0.143997  0  3.699949  0  0  -0.164555  0  3.950308  0  0  -0.171185  0  3.971802  0  -0.014942  0  -0.07696  -0.160228  0  3.935819  0
C  C76  1  0.51501665  0.93272682  0.75712679  1  0  -0.143932  0  3.699846  0  0  -0.164463  0  3.950216  0  0  -0.171093  0  3.971711  0  -0.014947  0  -0.07692  -0.160135  0  3.935724  0
C  C77  1  0.39787321  0.19126626  0.37462654  1  0  0.12982  0  3.691707  0  0  0.099122  0  3.942209  0  0  0.105278  0  3.962192  0  0.49425  0  0.046508  0.095132  0  3.928602  0
C  C78  1  0.60212694  0.80873243  0.62537294  1  0  0.129737  0  3.691741  0  0  0.099049  0  3.942231  0  0  0.105203  0  3.962214  0  0.494197  0  0.046488  0.095059  0  3.928625  0
C  C79  1  0.64786771  0.89226371  0.01399056  1  0  -0.149155  0  3.675982  0  0  -0.168216  0  3.923715  0  0  -0.175248  0  3.944464  0  0.000103  0  -0.077307  -0.163679  0  3.909885  0
C  C80  1  0.35213022  0.10773587  0.98600932  1  0  -0.149177  0  3.676063  0  0  -0.168246  0  3.923811  0  0  -0.175278  0  3.944561  0  0.0001  0  -0.077331  -0.163708  0  3.909979  0
C  C81  1  0.35128609  0.85591157  0.99148013  1  0  -0.152494  0  3.683029  0  0  -0.171169  0  3.931312  0  0  -0.177992  0  3.950638  0  -0.065372  0  -0.079163  -0.166774  0  3.918447  0
C  C82  1  0.64871232  0.14408976  0.00851993  1  0  -0.152573  0  3.682997  0  0  -0.171231  0  3.931315  0  0  -0.178055  0  3.950641  0  -0.065367  0  -0.079188  -0.166835  0  3.918451  0
C  C83  1  0.49967395  0.93662693  0.00119834  1  0  0.083509  0  3.75323  0  0  0.09705  0  3.980094  0  0  0.101147  0  3.999889  0  -0.015683  0  0.009715  0.094455  0  3.966576  0
C  C84  1  0.50032399  0.06337264  0.99880154  1  0  0.083525  0  3.753147  0  0  0.097064  0  3.980019  0  0  0.101161  0  3.999815  0  -0.05191  0  0.009701  0.094468  0  3.966502  0
C  C85  1  0.64245189  0.77251736  0.01450685  1  0  0.135646  0  3.69522  0  0  0.104168  0  3.945561  0  0  0.111441  0  3.963649  0  0.409609  0  0.0485  0.099385  0  3.933308  0
C  C86  1  0.35754751  0.22748310  0.98549329  1  0  0.135696  0  3.695246  0  0  0.10422  0  3.945585  0  0  0.111491  0  3.963677  0  0.409757  0  0.048532  0.099436  0  3.933333  0
C  C87  1  0.35632015  0.73748664  0.99288051  1  0  0.124901  0  3.695405  0  0  0.09544  0  3.942124  0  0  0.101905  0  3.961365  0  0.486802  0  0.044707  0.091264  0  3.92911  0
C  C88  1  0.64367901  0.26251294  0.00711954  1  0  0.124985  0  3.695354  0  0  0.095524  0  3.942077  0  0  0.101991  0  3.961314  0  0.486774  0  0.044723  0.09135  0  3.929068  0
C  C89  1  0.49585592  0.18827375  0.24999846  1  0  0.133305  0  3.705955  0  0  0.102639  0  3.957235  0  0  0.109228  0  3.976442  0  0.469081  0  0.047291  0.098358  0  3.944078  0
C  C90  1  0.50414569  0.81172583  0.75000001  1  0  0.133273  0  3.705994  0  0  0.102598  0  3.957293  0  0  0.109188  0  3.9765  0  0.469148  0  0.047305  0.098317  0  3.944134  0
C  C91  1  0.06075204  0.87821135  0.13786402  1  0  0.109319  0  3.748941  0  0  0.087216  0  4.00782  0  0  0.092287  0  4.026236  0  0.434161  0  0.035257  0.084031  0  3.995075  0
C  C92  1  0.93924712  0.12178822  0.86213603  1  0  0.109258  0  3.749084  0  0  0.08716  0  4.007953  0  0  0.092231  0  4.026368  0  0.434386  0  0.035209  0.083974  0  3.995209  0
C  C93  1  0.08433159  0.07466355  0.12839509  1  0  0.109566  0  3.753244  0  0  0.084978  0  4.018008  0  0  0.090707  0  4.034996  0  0.440169  0  0.034007  0.081307  0  4.006357  0
C  C94  1  0.91566438  0.92533778  0.87160464  1  0  0.109616  0  3.753266  0  0  0.085012  0  4.018053  0  0  0.090743  0  4.035039  0  0.440083  0  0.034062  0.081341  0  4.006401  0
C  C95  1  0.80184320  0.94127297  0.43982832  1  0  0.118203  0  3.738536  0  0  0.093009  0  3.998172  0  0  0.098291  0  4.016289  0  0.476145  0  0.038912  0.089612  0  3.98578  0
C  C96  1  0.19815403  0.05872396  0.56017128  1  0  0.118225  0  3.738589  0  0  0.093026  0  3.998224  0  0  0.098308  0  4.016343  0  0.476188  0  0.038927  0.08963  0  3.98583  0
C  C97  1  0.83873655  0.13939891  0.43604216  1  0  0.121849  0  3.753158  0  0  0.095767  0  4.015324  0  0  0.100862  0  4.033858  0  0.514199  0  0.039281  0.092504  0  4.002606  0
C  C98  1  0.16126384  0.86060067  0.56395805  1  0  0.121931  0  3.753198  0  0  0.095841  0  4.015368  0  0  0.100935  0  4.033902  0  0.514574  0  0.039301  0.092577  0  4.002651  0
C  C99  1  0.99815734  0.88918421  0.21166712  1  0  -0.168771  0  3.698527  0  0  -0.185746  0  3.941449  0  0  -0.193367  0  3.963391  0  -0.035653  0  -0.089772  -0.180658  0  3.92653  0
C  C100  1  0.00184253  0.11081800  0.78833384  1  0  -0.168771  0  3.69856  0  0  -0.185741  0  3.941486  0  0  -0.193359  0  3.963431  0  -0.035688  0  -0.089777  -0.180653  0  3.926566  0
C  C101  1  0.02345501  0.09454279  0.20191772  1  0  -0.164638  0  3.708338  0  0  -0.182195  0  3.951469  0  0  -0.189281  0  3.973461  0  0.015394  0  -0.088387  -0.177487  0  3.936525  0
C  C102  1  0.97654316  0.90545766  0.79808353  1  0  -0.164759  0  3.708293  0  0  -0.182321  0  3.951479  0  0  -0.189409  0  3.973469  0  0.015449  0  -0.088466  -0.177612  0  3.936533  0
C  C103  1  0.97883914  0.00038483  0.24627043  1  0  0.084382  0  3.767507  0  0  0.09724  0  3.996195  0  0  0.100645  0  4.018862  0  -0.068435  0  0.004504  0.09517  0  3.980556  0
C  C104  1  0.02116441  0.99961738  0.75373232  1  0  0.084481  0  3.767379  0  0  0.097303  0  3.996115  0  0  0.100708  0  4.018782  0  -0.068429  0  0.004547  0.095236  0  3.98047  0
C  C105  1  0.91544700  0.01702993  0.32547880  1  0  0.08041  0  3.754524  0  0  0.092972  0  3.985552  0  0  0.095592  0  4.007641  0  -0.033448  0  0.005141  0.091381  0  3.970371  0
C  C106  1  0.08455414  0.98296788  0.67452203  1  0  0.080391  0  3.754483  0  0  0.092978  0  3.985503  0  0  0.095601  0  4.007586  0  -0.033407  0  0.005166  0.091385  0  3.970324  0
C  C107  1  0.86401493  0.92161427  0.36679069  1  0  -0.146364  0  3.677779  0  0  -0.165195  0  3.922277  0  0  -0.171151  0  3.942602  0  0.000849  0  -0.081635  -0.161279  0  3.908579  0
C  C108  1  0.13598668  0.07838531  0.63321033  1  0  -0.14634  0  3.677868  0  0  -0.165185  0  3.922335  0  0  -0.171142  0  3.942662  0  0.000854  0  -0.081649  -0.161268  0  3.908636  0
C  C109  1  0.90392774  0.12878979  0.36333350  1  0  -0.162254  0  3.717477  0  0  -0.181174  0  3.966323  0  0  -0.187931  0  3.988579  0  -0.116717  0  -0.087563  -0.176696  0  3.951273  0
C  C110  1  0.09607608  0.87120890  0.63666712  1  0  -0.162248  0  3.717546  0  0  -0.181207  0  3.966404  0  0  -0.187963  0  3.988657  0  -0.117151  0  -0.087586  -0.17673  0  3.951356  0
S  S111  1  0.22166971  0.44601939  0.47405901  1  0  1.34688  0  5.558479  0  0  1.25252  0  6.084805  0  0  1.298766  0  6.063034  0  3.138607  0  0.50551  1.220603  0  6.09882  0
S  S112  1  0.77833091  0.55398106  0.52594130  1  0  1.346897  0  5.558256  0  0  1.252526  0  6.084598  0  0  1.298771  0  6.062823  0  3.1386  0  0.505483  1.220609  0  6.098616  0
S  S113  1  0.17426591  0.42729112  0.10360796  1  0  1.354804  0  5.582184  0  0  1.261522  0  6.10678  0  0  1.308065  0  6.084441  0  3.169143  0  0.505352  1.229316  0  6.121202  0
S  S114  1  0.82573495  0.57271021  0.89639244  1  0  1.354818  0  5.5823  0  0  1.261564  0  6.106868  0  0  1.308105  0  6.084529  0  3.169193  0  0.505348  1.229356  0  6.121294  0
S  S115  1  0.80205106  0.53214254  0.22405905  1  0  1.363361  0  5.57306  0  0  1.26997  0  6.098084  0  0  1.316197  0  6.076331  0  3.166831  0  0.508828  1.237991  0  6.112126  0
S  S116  1  0.19795249  0.46785967  0.77594115  1  0  1.363444  0  5.572826  0  0  1.270051  0  6.097809  0  0  1.316279  0  6.076064  0  3.166909  0  0.50885  1.238075  0  6.111848  0
N  N117  1  0.49907236  0.69590946  0.00296112  1  0  -0.340821  0  3.266515  0  0  -0.257362  0  3.528347  0  0  -0.278245  0  3.547455  0  -1.239743  0  -0.334229  -0.242989  0  3.514995  0
N  N118  1  0.50092704  0.30409099  0.99703902  1  0  -0.340815  0  3.266444  0  0  -0.257355  0  3.528279  0  0  -0.278238  0  3.547387  0  -1.239886  0  -0.33422  -0.242983  0  3.514926  0
N  N119  1  0.44895828  0.64045038  0.31213156  1  0  -0.351356  0  3.276794  0  0  -0.267742  0  3.541798  0  0  -0.289905  0  3.561651  0  -1.238234  0  -0.331143  -0.252523  0  3.527857  0
N  N120  1  0.55104357  0.35955007  0.68786764  1  0  -0.351447  0  3.276925  0  0  -0.267838  0  3.541942  0  0  -0.290001  0  3.561792  0  -1.238087  0  -0.331181  -0.25262  0  3.528004  0
N  N121  1  0.45466984  0.24982242  0.31525653  1  0  -0.323664  0  3.256557  0  0  -0.241496  0  3.514537  0  0  -0.262257  0  3.535042  0  -1.225158  0  -0.327638  -0.227208  0  3.500231  0
N  N122  1  0.54533031  0.75017628  0.68474295  1  0  -0.323526  0  3.256612  0  0  -0.241368  0  3.514593  0  0  -0.262125  0  3.535097  0  -1.225168  0  -0.32761  -0.227079  0  3.500286  0
N  N123  1  0.10414145  0.96837607  0.09591896  1  0  -0.324846  0  3.102504  0  0  -0.285859  0  3.376803  0  0  -0.297652  0  3.393101  0  -1.199307  0  -0.322704  -0.277567  0  3.365401  0
N  N124  1  0.89585352  0.03162614  0.90408071  1  0  -0.324775  0  3.102597  0  0  -0.285785  0  3.376881  0  0  -0.297577  0  3.393179  0  -1.199551  0  -0.322692  -0.277501  0  3.365499  0
N  N125  1  0.78618434  0.04765446  0.47423471  1  0  -0.332442  0  3.116578  0  0  -0.288976  0  3.383503  0  0  -0.300618  0  3.400085  0  -1.227064  0  -0.321714  -0.280887  0  3.372042  0
N  N126  1  0.21381336  0.95234423  0.52576444  1  0  -0.332492  0  3.116649  0  0  -0.289037  0  3.383599  0  0  -0.300681  0  3.400183  0  -1.227117  0  -0.321731  -0.280946  0  3.372135  0
O  O127  1  0.24373090  0.43230354  0.38299107  1  0  -0.715603  0  2.01716  0  0  -0.650997  0  2.297482  0  0  -0.673938  0  2.280233  0  -1.329011  0  -0.355461  -0.634651  0  2.308634  0
O  O128  1  0.75626850  0.56769691  0.61700907  1  0  -0.715627  0  2.017143  0  0  -0.651023  0  2.297462  0  0  -0.673973  0  2.280231  0  -1.329021  0  -0.355466  -0.634677  0  2.308615  0
O  O129  1  0.21618965  0.33816052  0.51382332  1  0  -0.642523  0  1.917741  0  0  -0.598789  0  2.164635  0  0  -0.618388  0  2.153304  0  -1.330359  0  -0.335517  -0.585038  0  2.171965  0
O  O130  1  0.78380952  0.66183905  0.48617609  1  0  -0.642525  0  1.917601  0  0  -0.598768  0  2.164483  0  0  -0.618365  0  2.153152  0  -1.330376  0  -0.335485  -0.585009  0  2.171798  0
O  O131  1  0.34339182  0.54761471  0.53203870  1  0  -0.715042  0  2.002466  0  0  -0.651301  0  2.281514  0  0  -0.674116  0  2.264326  0  -1.331505  0  -0.356466  -0.63514  0  2.292793  0
O  O132  1  0.65660857  0.45238486  0.46796151  1  0  -0.715051  0  2.002432  0  0  -0.651306  0  2.28148  0  0  -0.67412  0  2.26429  0  -1.331476  0  -0.356467  -0.635147  0  2.292761  0
O  O133  1  0.27588315  0.50666398  0.06094480  1  0  -0.723306  0  2.051817  0  0  -0.658756  0  2.340113  0  0  -0.682136  0  2.323097  0  -1.337694  0  -0.355877  -0.642148  0  2.351236  0
O  O134  1  0.72411771  0.49333735  0.93905624  1  0  -0.723303  0  2.051799  0  0  -0.658789  0  2.340122  0  0  -0.682166  0  2.323105  0  -1.337711  0  -0.355885  -0.64218  0  2.351246  0
O  O135  1  0.27768722  0.38128931  0.17825980  1  0  -0.702035  0  1.988365  0  0  -0.645285  0  2.268243  0  0  -0.66738  0  2.252374  0  -1.341273  0  -0.354171  -0.629588  0  2.278526  0
O  O136  1  0.72231316  0.61871026  0.82174105  1  0  -0.702054  0  1.988441  0  0  -0.645304  0  2.268294  0  0  -0.667413  0  2.25246  0  -1.341212  0  -0.35419  -0.629607  0  2.278577  0
O  O137  1  0.05247573  0.33436320  0.04003170  1  0  -0.661293  0  1.91267  0  0  -0.607975  0  2.15392  0  0  -0.628648  0  2.141328  0  -1.346098  0  -0.339064  -0.593406  0  2.162163  0
O  O138  1  0.94752635  0.66563813  0.95996823  1  0  -0.66129  0  1.912749  0  0  -0.607982  0  2.153997  0  0  -0.628659  0  2.141412  0  -1.346122  0  -0.339042  -0.593413  0  2.162242  0
O  O139  1  0.70670725  0.56157569  0.13868737  1  0  -0.720821  0  2.020286  0  0  -0.656783  0  2.301033  0  0  -0.679675  0  2.283763  0  -1.34807  0  -0.359319  -0.640516  0  2.312312  0
O  O140  1  0.29329120  0.43842125  0.86131175  1  0  -0.720846  0  2.020171  0  0  -0.656839  0  2.300955  0  0  -0.679724  0  2.283665  0  -1.348066  0  -0.359359  -0.640572  0  2.312234  0
O  O141  1  0.69811620  0.44629176  0.26124782  1  0  -0.719877  0  2.017231  0  0  -0.657156  0  2.301478  0  0  -0.679863  0  2.283563  0  -1.330357  0  -0.359646  -0.64103  0  2.313156  0
O  O142  1  0.30189150  0.55371221  0.73875561  1  0  -0.719842  0  2.017183  0  0  -0.657094  0  2.301399  0  0  -0.679802  0  2.283481  0  -1.330433  0  -0.359636  -0.640969  0  2.313075  0
O  O143  1  0.89308838  0.63634380  0.28671988  1  0  -0.644572  0  1.908338  0  0  -0.595193  0  2.144172  0  0  -0.614662  0  2.131285  0  -1.334378  0  -0.336637  -0.581493  0  2.152594  0
O  O144  1  0.10691540  0.36365929  0.71327850  1  0  -0.644606  0  1.908329  0  0  -0.595221  0  2.144148  0  0  -0.614695  0  2.13126  0  -1.334392  0  -0.336602  -0.581523  0  2.152569  0
