# generated using pymatgen
data_Zn3H24C42(NO6)2
_symmetry_space_group_name_H-M   'P 1'
_cell_length_a   14.81270657
_cell_length_b   14.81273172
_cell_length_c   16.45776621
_cell_angle_alpha   103.20611498
_cell_angle_beta   103.20521862
_cell_angle_gamma   115.87851511
_symmetry_Int_Tables_number   1
_chemical_formula_structural   Zn3H24C42(NO6)2
_chemical_formula_sum   'Zn6 H48 C84 N4 O24'
_cell_volume   2932.71338963
_cell_formula_units_Z   2
loop_
 _symmetry_equiv_pos_site_id
 _symmetry_equiv_pos_as_xyz
  1  'x, y, z'
loop_
 _atom_site_type_symbol
 _atom_site_label
 _atom_site_symmetry_multiplicity
 _atom_site_fract_x
 _atom_site_fract_y
 _atom_site_fract_z
 _atom_site_occupancy
 _atom_site_pbe_bader_charge
 _atom_site_pbe_bader_spin_density
 _atom_site_pbe_cm5_charge
 _atom_site_pbe_ddec_charge
 _atom_site_pbe_ddec_spin_density
 _atom_site_pbe_ddec_sum_bond_order
 _atom_site_pbe_magmom
Zn  Zn0  1  0.47054420  0.07259511  0.07585195  1  1.340117  0  0.703783  0.960612  0  2.312255  0
Zn  Zn1  1  0.92740391  0.52945661  0.42414993  1  1.340133  0  0.703771  0.960606  0  2.312246  0
Zn  Zn2  1  0.52945351  0.92740457  0.92414506  1  1.34027  0  0.703785  0.960587  0  2.31218  0
Zn  Zn3  1  0.07259704  0.47054612  0.57584832  1  1.34025  0  0.703778  0.960603  0  2.312281  0
Zn  Zn4  1  0.67181999  0.32817545  0.25000056  1  1.336922  0  0.698223  0.944691  0  2.304451  0
Zn  Zn5  1  0.32817860  0.67181850  0.75000036  1  1.336958  0  0.698235  0.944714  0  2.304398  0
H  H6  1  0.52297838  0.46099322  0.16471668  1  0.070584  0  0.107444  0.113615  0  0.99718  0
H  H7  1  0.53900534  0.47702336  0.33528705  1  0.070594  0  0.107458  0.113611  0  0.997164  0
H  H8  1  0.47702257  0.53900674  0.83528164  1  0.070592  0  0.107445  0.113638  0  0.997195  0
H  H9  1  0.46099486  0.52297694  0.66471361  1  0.070441  0  0.107449  0.113584  0  0.997092  0
H  H10  1  0.42217882  0.55729299  0.15579163  1  0.101154  0  0.104148  0.112656  0  1.011251  0
H  H11  1  0.44270492  0.57782280  0.34421211  1  0.101103  0  0.104166  0.11273  0  1.011162  0
H  H12  1  0.57782376  0.44270781  0.84420777  1  0.101048  0  0.104123  0.112636  0  1.011319  0
H  H13  1  0.55729366  0.42217597  0.65578793  1  0.10108  0  0.104151  0.112702  0  1.011136  0
H  H14  1  0.12338087  0.25624917  0.07441853  1  0.07169  0  0.107876  0.11945  0  0.990914  0
H  H15  1  0.74375007  0.87661832  0.42557890  1  0.071694  0  0.107899  0.119493  0  0.990904  0
H  H16  1  0.87662102  0.74375410  0.92558548  1  0.071657  0  0.107866  0.119435  0  0.990898  0
H  H17  1  0.25625176  0.12337935  0.57442278  1  0.07164  0  0.107903  0.119521  0  0.990884  0
H  H18  1  0.22625074  0.16081026  0.08434488  1  0.109835  0  0.109649  0.115433  0  0.9859  0
H  H19  1  0.83918832  0.77374633  0.41565001  1  0.10984  0  0.109629  0.115426  0  0.985887  0
H  H20  1  0.77374948  0.83919144  0.91565668  1  0.10979  0  0.109636  0.115423  0  0.985942  0
H  H21  1  0.16081180  0.22624904  0.58434723  1  0.109812  0  0.109617  0.115392  0  0.986025  0
H  H22  1  0.86409380  0.39424434  0.07881306  1  0.109776  0  0.100977  0.1034  0  1.048268  0
H  H23  1  0.60575818  0.13590705  0.42118720  1  0.10979  0  0.100982  0.103455  0  1.048165  0
H  H24  1  0.13590377  0.60575106  0.92117822  1  0.109442  0  0.10101  0.103511  0  1.048086  0
H  H25  1  0.39423258  0.86408925  0.57882237  1  0.109342  0  0.10098  0.103461  0  1.048072  0
H  H26  1  0.01188172  0.43090653  0.01909439  1  0.080016  0  0.10529  0.114388  0  1.007828  0
H  H27  1  0.56909344  0.98811635  0.48090558  1  0.08  0  0.105302  0.114416  0  1.007796  0
H  H28  1  0.98811920  0.56909340  0.98090269  1  0.080092  0  0.105323  0.114434  0  1.007773  0
H  H29  1  0.43090207  0.01187610  0.51910112  1  0.07986  0  0.105309  0.114404  0  1.007821  0
H  H30  1  0.21146343  0.44249302  0.26188132  1  0.084171  0  0.108092  0.118502  0  0.99172  0
H  H31  1  0.55750613  0.78853589  0.23811742  1  0.084522  0  0.108123  0.11855  0  0.991743  0
H  H32  1  0.78853913  0.55751122  0.73811694  1  0.084565  0  0.108099  0.118506  0  0.991792  0
H  H33  1  0.44249260  0.21146787  0.76188850  1  0.084938  0  0.108157  0.118597  0  0.991788  0
H  H34  1  0.06415060  0.40726761  0.32150753  1  0.125595  0  0.108784  0.12056  0  1.002006  0
H  H35  1  0.59273520  0.93584727  0.17849061  1  0.12552  0  0.108752  0.120566  0  1.001978  0
H  H36  1  0.93585033  0.59274062  0.67848937  1  0.125513  0  0.108783  0.120564  0  1.00199  0
H  H37  1  0.40725951  0.06415515  0.82151547  1  0.125345  0  0.108765  0.120563  0  1.002041  0
H  H38  1  0.39068061  0.66609589  0.95983239  1  0.135397  0  0.106204  0.122124  0  1.018586  0
H  H39  1  0.33390129  0.60932539  0.54016234  1  0.135626  0  0.106198  0.122108  0  1.018632  0
H  H40  1  0.60932104  0.33390091  0.04016179  1  0.135612  0  0.106202  0.122159  0  1.018563  0
H  H41  1  0.66610228  0.39068153  0.45984455  1  0.135727  0  0.106207  0.122141  0  1.018692  0
H  H42  1  0.30334756  0.49627708  0.98740574  1  0.067931  0  0.108785  0.12144  0  0.989113  0
H  H43  1  0.50372208  0.69665929  0.51259201  1  0.068098  0  0.108752  0.121365  0  0.989082  0
H  H44  1  0.69665334  0.50372076  0.01259094  1  0.068064  0  0.10873  0.121331  0  0.989119  0
H  H45  1  0.49627983  0.30334261  0.48741296  1  0.068039  0  0.108748  0.12135  0  0.989096  0
H  H46  1  0.19430276  0.64304176  0.16952296  1  0.072785  0  0.103574  0.113962  0  1.013957  0
H  H47  1  0.35695923  0.80569909  0.33047148  1  0.074039  0  0.10365  0.11406  0  1.013956  0
H  H48  1  0.80569974  0.35695895  0.83047277  1  0.074094  0  0.103636  0.114038  0  1.014034  0
H  H49  1  0.64304252  0.19429574  0.66952720  1  0.073664  0  0.103647  0.114082  0  1.014  0
H  H50  1  0.27516771  0.80990216  0.13564261  1  0.099813  0  0.108832  0.113653  0  0.984285  0
H  H51  1  0.19009737  0.72483370  0.36435146  1  0.099878  0  0.108843  0.113615  0  0.984272  0
H  H52  1  0.72483558  0.19009895  0.86435275  1  0.099936  0  0.108817  0.113618  0  0.984334  0
H  H53  1  0.80990358  0.27516488  0.63564719  1  0.099915  0  0.108824  0.113594  0  0.984345  0
C  C54  1  0.44472298  0.25029279  0.13062107  1  1.52354  0  0.221079  0.599718  0  4.167469  0
C  C55  1  0.74970185  0.55527232  0.36937604  1  1.523315  0  0.221095  0.599804  0  4.167489  0
C  C56  1  0.55527883  0.74970971  0.86937974  1  1.523503  0  0.221067  0.599737  0  4.167555  0
C  C57  1  0.25029416  0.44472300  0.63061734  1  1.523547  0  0.221121  0.599955  0  4.167487  0
C  C58  1  0.38115798  0.30465906  0.12416240  1  0.013889  0  -0.029795  -0.067399  0  4.002228  0
C  C59  1  0.69533923  0.61884225  0.37583541  1  0.013904  0  -0.029813  -0.067516  0  4.002313  0
C  C60  1  0.61884307  0.69534237  0.87583987  1  0.013905  0  -0.029789  -0.067375  0  4.002228  0
C  C61  1  0.30466171  0.38115769  0.62416229  1  0.01404  0  -0.029841  -0.067659  0  4.002319  0
C  C62  1  0.43524926  0.41648785  0.14372435  1  0.005823  0  -0.081233  -0.069923  0  3.996236  0
C  C63  1  0.58350917  0.56475047  0.35627473  1  0.00618  0  -0.081253  -0.069896  0  3.996049  0
C  C64  1  0.56475178  0.58351358  0.85627792  1  0.005801  0  -0.081247  -0.069969  0  3.99616  0
C  C65  1  0.41648774  0.43524534  0.64372258  1  0.006168  0  -0.081228  -0.069802  0  3.99624  0
C  C66  1  0.37881707  0.47019483  0.13872068  1  -0.035907  0  -0.097853  -0.184182  0  4.009665  0
C  C67  1  0.52980377  0.62118522  0.36128059  1  -0.036142  0  -0.097808  -0.184227  0  4.009515  0
C  C68  1  0.62118477  0.52980631  0.86128107  1  -0.036141  0  -0.097798  -0.184129  0  4.009484  0
C  C69  1  0.47019401  0.37881453  0.63871949  1  -0.035898  0  -0.097868  -0.184305  0  4.009437  0
C  C70  1  0.26562320  0.41294952  0.11267818  1  0.221267  0  0.09997  0.18943  0  4.025081  0
C  C71  1  0.58704864  0.73437704  0.38732057  1  0.221959  0  0.099932  0.189469  0  4.025091  0
C  C72  1  0.73437945  0.58705273  0.88732396  1  0.22203  0  0.099974  0.189489  0  4.025019  0
C  C73  1  0.41295077  0.26562078  0.61268067  1  0.221644  0  0.099999  0.189586  0  4.024962  0
C  C74  1  0.21100758  0.30092226  0.09399249  1  0.014478  0  -0.096353  -0.183394  0  3.98953  0
C  C75  1  0.69907940  0.78899300  0.40600722  1  0.014167  0  -0.096392  -0.183492  0  3.989485  0
C  C76  1  0.78899433  0.69908104  0.90601275  1  0.013729  0  -0.09636  -0.183402  0  3.989419  0
C  C77  1  0.30092321  0.21100505  0.59399348  1  0.013698  0  -0.096367  -0.183501  0  3.989529  0
C  C78  1  0.26834105  0.24767948  0.09967461  1  -0.02118  0  -0.079419  -0.069647  0  3.983864  0
C  C79  1  0.75231856  0.73165676  0.40032245  1  -0.021274  0  -0.079414  -0.069597  0  3.984002  0
C  C80  1  0.73166087  0.75232452  0.90033077  1  -0.020768  0  -0.079408  -0.069653  0  3.98388  0
C  C81  1  0.24767590  0.26833711  0.59967338  1  -0.020821  0  -0.079375  -0.069506  0  3.983787  0
C  C82  1  0.87098273  0.38482141  0.24261122  1  1.534106  0  0.218705  0.594633  0  4.16179  0
C  C83  1  0.61517991  0.12901493  0.25738806  1  1.533828  0  0.218711  0.59465  0  4.161746  0
C  C84  1  0.12901583  0.61517942  0.75738801  1  1.533885  0  0.21878  0.59478  0  4.161487  0
C  C85  1  0.38481553  0.87098437  0.74261512  1  1.53333  0  0.218661  0.594643  0  4.16179  0
C  C86  1  0.95563570  0.39986942  0.20425846  1  -0.058423  0  -0.021523  -0.050535  0  3.974975  0
C  C87  1  0.60013224  0.04436281  0.29574117  1  -0.058355  0  -0.021507  -0.050513  0  3.975061  0
C  C88  1  0.04436200  0.60013232  0.79573774  1  -0.058398  0  -0.02151  -0.050519  0  3.975077  0
C  C89  1  0.39986248  0.95563823  0.70426525  1  -0.05828  0  -0.021529  -0.050485  0  3.975357  0
C  C90  1  0.94065760  0.40569426  0.11861073  1  -0.041357  0  -0.079738  -0.065805  0  3.956714  0
C  C91  1  0.59430656  0.05933974  0.38138926  1  -0.041524  0  -0.079775  -0.06593  0  3.956789  0
C  C92  1  0.05933925  0.59430495  0.88138359  1  -0.041402  0  -0.079798  -0.065993  0  3.95674  0
C  C93  1  0.40568741  0.94065887  0.61861957  1  -0.040566  0  -0.079681  -0.065838  0  3.957012  0
C  C94  1  0.02291080  0.42602976  0.08544081  1  -0.009378  0  -0.093466  -0.178837  0  3.984632  0
C  C95  1  0.57397124  0.97708970  0.41455792  1  -0.009178  0  -0.093447  -0.178806  0  3.984738  0
C  C96  1  0.97708851  0.57396934  0.91455580  1  -0.008867  0  -0.093466  -0.17883  0  3.984637  0
C  C97  1  0.42602587  0.02290908  0.58544792  1  -0.008945  0  -0.093505  -0.1789  0  3.984965  0
C  C98  1  0.12109563  0.44023505  0.13735068  1  0.270837  0  0.097344  0.182636  0  4.032806  0
C  C99  1  0.55976591  0.87890550  0.36264878  1  0.270757  0  0.097339  0.182694  0  4.032909  0
C  C100  1  0.87890530  0.55976557  0.86264654  1  0.270779  0  0.097385  0.182788  0  4.032781  0
C  C101  1  0.44023442  0.12109562  0.63735754  1  0.270599  0  0.097373  0.182737  0  4.032879  0
C  C102  1  0.13502715  0.43125170  0.22178397  1  0.037315  0  -0.090492  -0.170236  0  3.984599  0
C  C103  1  0.56874848  0.86497211  0.27821360  1  0.037054  0  -0.090578  -0.170403  0  3.984685  0
C  C104  1  0.86497136  0.56875046  0.77821247  1  0.037088  0  -0.090556  -0.170293  0  3.98456  0
C  C105  1  0.43124865  0.13503223  0.72179273  1  0.036792  0  -0.090651  -0.170417  0  3.984559  0
C  C106  1  0.05300045  0.41169722  0.25506625  1  -0.054302  0  -0.078643  -0.068312  0  3.959218  0
C  C107  1  0.58830453  0.94699867  0.24493142  1  -0.054409  0  -0.078599  -0.068277  0  3.959297  0
C  C108  1  0.94700125  0.58830793  0.74492958  1  -0.054575  0  -0.078639  -0.06835  0  3.959297  0
C  C109  1  0.41168857  0.05300223  0.75507465  1  -0.054881  0  -0.078566  -0.068307  0  3.95921  0
C  C110  1  0.39808401  0.85199568  0.03411067  1  1.540423  0  0.223532  0.605574  0  4.1669  0
C  C111  1  0.14800302  0.60191968  0.46588190  1  1.540349  0  0.223436  0.605299  0  4.167088  0
C  C112  1  0.60192003  0.14800094  0.96588273  1  1.540553  0  0.223364  0.605198  0  4.167238  0
C  C113  1  0.85199960  0.39808393  0.53411929  1  1.540449  0  0.223439  0.605359  0  4.16721  0
C  C114  1  0.34083971  0.74974009  0.04791546  1  -0.041254  0  -0.025277  -0.06353  0  3.997405  0
C  C115  1  0.25025674  0.65916290  0.45207621  1  -0.040183  0  -0.025286  -0.063464  0  3.997285  0
C  C116  1  0.65916110  0.25025697  0.95207739  1  -0.040802  0  -0.025239  -0.063405  0  3.997336  0
C  C117  1  0.74974838  0.34084340  0.54792843  1  -0.04467  0  -0.025306  -0.06348  0  3.997208  0
C  C118  1  0.34807633  0.66057049  0.00603263  1  -0.01473  0  -0.07901  -0.05981  0  3.956831  0
C  C119  1  0.33942861  0.65192772  0.49396274  1  -0.015971  0  -0.079018  -0.059851  0  3.956562  0
C  C120  1  0.65192452  0.33942729  0.99396159  1  -0.015609  0  -0.079007  -0.059876  0  3.956699  0
C  C121  1  0.66057411  0.34807874  0.50604206  1  -0.0161  0  -0.078927  -0.059807  0  3.956536  0
C  C122  1  0.29902139  0.56573804  0.02134634  1  -0.019326  0  -0.096207  -0.186893  0  3.991164  0
C  C123  1  0.43425972  0.70098407  0.47864811  1  -0.019142  0  -0.096198  -0.186877  0  3.991034  0
C  C124  1  0.70098107  0.43425849  0.97864795  1  -0.01902  0  -0.096213  -0.186881  0  3.991093  0
C  C125  1  0.56574459  0.29901767  0.52135668  1  -0.018851  0  -0.096217  -0.186875  0  3.991228  0
C  C126  1  0.24608338  0.55929552  0.08274712  1  0.283607  0  0.100691  0.192711  0  4.020657  0
C  C127  1  0.44070372  0.75391861  0.41724970  1  0.284902  0  0.100685  0.192915  0  4.020399  0
C  C128  1  0.75391753  0.44070371  0.91724983  1  0.284805  0  0.100695  0.192944  0  4.02039  0
C  C129  1  0.55929894  0.24608227  0.58275339  1  0.284814  0  0.100631  0.192919  0  4.020473  0
C  C130  1  0.23580254  0.64745289  0.12249185  1  -0.005651  0  -0.101839  -0.194054  0  3.996552  0
C  C131  1  0.35254755  0.76420279  0.37750473  1  -0.008047  0  -0.10192  -0.194264  0  3.996549  0
C  C132  1  0.76420076  0.35254754  0.87750398  1  -0.007854  0  -0.10194  -0.19427  0  3.996488  0
C  C133  1  0.64745590  0.23579848  0.62249737  1  -0.007556  0  -0.101954  -0.194336  0  3.99669  0
C  C134  1  0.28162899  0.74090756  0.10411680  1  -0.036982  0  -0.080367  -0.072202  0  3.992221  0
C  C135  1  0.25909411  0.71837363  0.39587800  1  -0.037317  0  -0.080365  -0.072109  0  3.992219  0
C  C136  1  0.71837269  0.25909204  0.89587855  1  -0.037387  0  -0.08034  -0.072141  0  3.992139  0
C  C137  1  0.74090934  0.28162833  0.60412424  1  -0.033042  0  -0.080373  -0.072146  0  3.992322  0
N  N138  1  0.20746151  0.46706206  0.10568666  1  -1.204974  0  -0.248496  -0.149896  0  3.657792  0
N  N139  1  0.53293905  0.79253971  0.39431000  1  -1.205015  0  -0.248432  -0.149977  0  3.657904  0
N  N140  1  0.79253777  0.53293840  0.89430899  1  -1.204947  0  -0.248451  -0.150056  0  3.657949  0
N  N141  1  0.46706448  0.20746095  0.60569564  1  -1.204646  0  -0.248449  -0.150066  0  3.657871  0
O  O142  1  0.54740628  0.30997593  0.15634926  1  -1.189988  0  -0.322397  -0.575909  0  2.413163  0
O  O143  1  0.69002030  0.45259235  0.34365156  1  -1.189761  0  -0.322409  -0.575901  0  2.413224  0
O  O144  1  0.45259395  0.69002370  0.84365249  1  -1.189956  0  -0.322429  -0.575955  0  2.413081  0
O  O145  1  0.30997740  0.54740317  0.65634524  1  -1.190025  0  -0.322419  -0.575926  0  2.413079  0
O  O146  1  0.39414107  0.14743245  0.10891097  1  -1.17356  0  -0.319611  -0.542659  0  2.274142  0
O  O147  1  0.85256324  0.60585632  0.39108639  1  -1.173438  0  -0.319583  -0.54266  0  2.27421  0
O  O148  1  0.60585908  0.85256641  0.89108758  1  -1.173596  0  -0.319567  -0.542614  0  2.274345  0
O  O149  1  0.14743265  0.39413957  0.60890162  1  -1.173474  0  -0.319602  -0.542738  0  2.274288  0
O  O150  1  0.77743908  0.35861096  0.19065592  1  -1.140333  0  -0.303833  -0.521791  0  2.314717  0
O  O151  1  0.64138890  0.22255857  0.30934475  1  -1.14032  0  -0.303795  -0.521718  0  2.314684  0
O  O152  1  0.22255702  0.64138583  0.80934142  1  -1.140286  0  -0.303815  -0.52181  0  2.314736  0
O  O153  1  0.35860979  0.77744308  0.69065953  1  -1.139578  0  -0.303741  -0.521754  0  2.314783  0
O  O154  1  0.89392671  0.39834383  0.32608900  1  -1.195464  0  -0.332974  -0.595423  0  2.363518  0
O  O155  1  0.60165800  0.10607179  0.17391169  1  -1.195239  0  -0.332967  -0.59544  0  2.363564  0
O  O156  1  0.10607257  0.60165594  0.67390652  1  -1.195306  0  -0.333077  -0.595544  0  2.363408  0
O  O157  1  0.39833508  0.89392427  0.82609403  1  -1.195543  0  -0.333016  -0.595441  0  2.363451  0
O  O158  1  0.47656087  0.86587891  0.00801595  1  -1.187133  0  -0.320314  -0.575788  0  2.40993  0
O  O159  1  0.13412082  0.52344118  0.49197847  1  -1.187118  0  -0.320367  -0.575728  0  2.409698  0
O  O160  1  0.52344086  0.13411936  0.99198157  1  -1.187207  0  -0.320348  -0.575744  0  2.409767  0
O  O161  1  0.86588097  0.47656199  0.50802125  1  -1.187242  0  -0.3203  -0.575713  0  2.409789  0
O  O162  1  0.36896039  0.92145388  0.05214075  1  -1.152943  0  -0.315049  -0.540663  0  2.30199  0
O  O163  1  0.07854386  0.63104016  0.44785474  1  -1.153112  0  -0.314901  -0.540488  0  2.302315  0
O  O164  1  0.63103965  0.07854419  0.94785336  1  -1.153137  0  -0.314863  -0.540383  0  2.302336  0
O  O165  1  0.92145714  0.36896261  0.55214535  1  -1.153365  0  -0.314936  -0.540524  0  2.302288  0
