# generated using pymatgen
data_CdH4C3(BrN)2
_symmetry_space_group_name_H-M   'P 1'
_cell_length_a   3.98664290
_cell_length_b   11.30428230
_cell_length_c   15.75656331
_cell_angle_alpha   89.99985957
_cell_angle_beta   89.99998106
_cell_angle_gamma   90.00009743
_symmetry_Int_Tables_number   1
_chemical_formula_structural   CdH4C3(BrN)2
_chemical_formula_sum   'Cd4 H16 C12 Br8 N8'
_cell_volume   710.08743641
_cell_formula_units_Z   4
loop_
 _symmetry_equiv_pos_site_id
 _symmetry_equiv_pos_as_xyz
  1  'x, y, z'
loop_
 _atom_site_type_symbol
 _atom_site_label
 _atom_site_symmetry_multiplicity
 _atom_site_fract_x
 _atom_site_fract_y
 _atom_site_fract_z
 _atom_site_occupancy
 _atom_site_hle17_bader_spin_density
 _atom_site_hle17_ddec_charge
 _atom_site_hle17_ddec_spin_density
 _atom_site_hle17_ddec_sum_bond_order
 _atom_site_hle17_magmom
 _atom_site_hse06_10hf_bader_spin_density
 _atom_site_hse06_10hf_ddec_charge
 _atom_site_hse06_10hf_ddec_spin_density
 _atom_site_hse06_10hf_ddec_sum_bond_order
 _atom_site_hse06_10hf_magmom
 _atom_site_hse06_bader_spin_density
 _atom_site_hse06_ddec_charge
 _atom_site_hse06_ddec_spin_density
 _atom_site_hse06_ddec_sum_bond_order
 _atom_site_hse06_magmom
 _atom_site_pbe_bader_spin_density
 _atom_site_pbe_cm5_charge
 _atom_site_pbe_ddec_charge
 _atom_site_pbe_ddec_spin_density
 _atom_site_pbe_ddec_sum_bond_order
 _atom_site_pbe_magmom
Cd  Cd0  1  0.92587443  0.10772663  0.08888153  1  0  0.858157  0  2.036167  0  0  0.708219  0  2.482223  0  0  0.756247  0  2.445301  0  0  0.500411  0.674323  0  2.507891  0
Cd  Cd1  1  0.42589109  0.89228082  0.91111855  1  0  0.858205  0  2.036163  0  0  0.708279  0  2.482225  0  0  0.756303  0  2.445304  0  0  0.500423  0.674384  0  2.507898  0
Cd  Cd2  1  0.92589784  0.60772333  0.41111760  1  0  0.85818  0  2.03615  0  0  0.708224  0  2.482263  0  0  0.756249  0  2.44534  0  0  0.500409  0.67433  0  2.507927  0
Cd  Cd3  1  0.42588273  0.39227705  0.58888058  1  0  0.858171  0  2.036138  0  0  0.708219  0  2.482212  0  0  0.756246  0  2.44529  0  0  0.500425  0.674323  0  2.507881  0
H  H4  1  0.82018413  0.21544096  0.41619203  1  0  0.288827  0  0.917809  0  0  0.268019  0  0.989467  0  0  0.275737  0  0.982922  0  0  0.289141  0.262524  0  0.994223  0
H  H5  1  0.32019050  0.78455579  0.58380934  1  0  0.288763  0  0.917882  0  0  0.267977  0  0.989488  0  0  0.275693  0  0.982947  0  0  0.289146  0.262485  0  0.994235  0
H  H6  1  0.82018508  0.71544231  0.08381010  1  0  0.288839  0  0.917763  0  0  0.268022  0  0.989419  0  0  0.275738  0  0.982875  0  0  0.289169  0.262528  0  0.994173  0
H  H7  1  0.32017450  0.28455444  0.91619190  1  0  0.288864  0  0.917857  0  0  0.268043  0  0.98951  0  0  0.275761  0  0.982966  0  0  0.289159  0.262547  0  0.994268  0
H  H8  1  0.17496839  0.93731786  0.26224734  1  0  0.098974  0  0.972299  0  0  0.105555  0  1.041096  0  0  0.108184  0  1.039439  0  0  0.099911  0.103586  0  1.042538  0
H  H9  1  0.67497140  0.06268586  0.73774961  1  0  0.098946  0  0.972292  0  0  0.105505  0  1.041112  0  0  0.108133  0  1.039457  0  0  0.099904  0.103537  0  1.042554  0
H  H10  1  0.17497503  0.43731535  0.23775132  1  0  0.098967  0  0.972252  0  0  0.105531  0  1.041066  0  0  0.108159  0  1.03941  0  0  0.099896  0.103562  0  1.042507  0
H  H11  1  0.67497479  0.56268041  0.76224753  1  0  0.098998  0  0.972218  0  0  0.105587  0  1.041011  0  0  0.108215  0  1.039353  0  0  0.099916  0.103616  0  1.042459  0
H  H12  1  0.10318702  0.01485386  0.42842462  1  0  0.109261  0  0.961004  0  0  0.118282  0  1.023855  0  0  0.121568  0  1.021273  0  0  0.109772  0.115908  0  1.025753  0
H  H13  1  0.60319840  0.98514627  0.57157233  1  0  0.109314  0  0.961005  0  0  0.118351  0  1.02383  0  0  0.121636  0  1.021246  0  0  0.109791  0.115979  0  1.025726  0
H  H14  1  0.10319048  0.51485525  0.07157289  1  0  0.109314  0  0.960964  0  0  0.11835  0  1.02379  0  0  0.121634  0  1.021206  0  0  0.109808  0.115978  0  1.025684  0
H  H15  1  0.60318490  0.48514311  0.92842597  1  0  0.109257  0  0.960987  0  0  0.118292  0  1.023828  0  0  0.121575  0  1.021243  0  0  0.109794  0.115917  0  1.025725  0
H  H16  1  0.69242012  0.26991965  0.26099444  1  0  0.08846  0  0.951719  0  0  0.095085  0  1.022876  0  0  0.09791  0  1.019104  0  0  0.120114  0.092943  0  1.025735  0
H  H17  1  0.19241871  0.73007701  0.73900758  1  0  0.088436  0  0.951687  0  0  0.095058  0  1.022845  0  0  0.09788  0  1.019081  0  0  0.120089  0.09292  0  1.025699  0
H  H18  1  0.69242101  0.76991693  0.23900697  1  0  0.088449  0  0.951752  0  0  0.095086  0  1.022889  0  0  0.097911  0  1.019118  0  0  0.120111  0.09294  0  1.02576  0
H  H19  1  0.19242032  0.23007796  0.76099504  1  0  0.088472  0  0.951759  0  0  0.095105  0  1.022905  0  0  0.097929  0  1.019138  0  0  0.120126  0.092967  0  1.025768  0
C  C20  1  0.06246356  0.01765479  0.28640254  1  0  -0.000884  0  3.737508  0  0  -0.034243  0  4.004438  0  0  -0.032924  0  4.026299  0  0  -0.016017  -0.035106  0  3.989763  0
C  C21  1  0.56246234  0.98234796  0.71359506  1  0  -0.000852  0  3.737591  0  0  -0.034173  0  4.004498  0  0  -0.032852  0  4.026368  0  0  -0.016045  -0.035037  0  3.989827  0
C  C22  1  0.06246447  0.51765481  0.21359624  1  0  -0.000892  0  3.737441  0  0  -0.034227  0  4.004365  0  0  -0.032907  0  4.026232  0  0  -0.016019  -0.035087  0  3.989685  0
C  C23  1  0.56247147  0.48234086  0.78640389  1  0  -0.000961  0  3.737561  0  0  -0.034329  0  4.004504  0  0  -0.03301  0  4.026367  0  0  -0.016038  -0.035184  0  3.98981  0
C  C24  1  0.02974687  0.05498651  0.36895096  1  0  -0.003186  0  3.692345  0  0  -0.041762  0  3.955346  0  0  -0.039585  0  3.973193  0  0  -0.006175  -0.043179  0  3.943281  0
C  C25  1  0.52975808  0.94501356  0.63104854  1  0  -0.00335  0  3.692566  0  0  -0.041956  0  3.955598  0  0  -0.03978  0  3.973444  0  0  -0.006229  -0.043371  0  3.943536  0
C  C26  1  0.02975282  0.55498947  0.13104776  1  0  -0.003259  0  3.692293  0  0  -0.041865  0  3.955299  0  0  -0.039688  0  3.973141  0  0  -0.0062  -0.043282  0  3.943238  0
C  C27  1  0.52974460  0.44501061  0.86895111  1  0  -0.003186  0  3.692246  0  0  -0.041795  0  3.955257  0  0  -0.039615  0  3.973101  0  0  -0.006217  -0.043211  0  3.943195  0
C  C28  1  0.81489394  0.18990662  0.28267119  1  0  0.215419  0  3.673816  0  0  0.156289  0  3.942919  0  0  0.170575  0  3.956091  0  0  0.130492  0.147082  0  3.93381  0
C  C29  1  0.31489032  0.81009455  0.71732955  1  0  0.215458  0  3.673676  0  0  0.156346  0  3.94276  0  0  0.170632  0  3.955942  0  0  0.130522  0.147137  0  3.933662  0
C  C30  1  0.81489234  0.68990574  0.21732909  1  0  0.215466  0  3.673976  0  0  0.156312  0  3.943062  0  0  0.170597  0  3.956237  0  0  0.130523  0.147102  0  3.933955  0
C  C31  1  0.31488691  0.31009189  0.78267228  1  0  0.215343  0  3.673851  0  0  0.156181  0  3.942957  0  0  0.170467  0  3.956132  0  0  0.13043  0.146967  0  3.933858  0
Br  Br32  1  0.92783578  0.07709524  0.91197285  1  0  -0.4905  0  1.226011  0  0  -0.423544  0  1.554862  0  0  -0.445886  0  1.533862  0  0  -0.22516  -0.407523  0  1.56965  0
Br  Br33  1  0.42783027  0.92290778  0.08802724  1  0  -0.490471  0  1.225914  0  0  -0.423495  0  1.554719  0  0  -0.445836  0  1.533719  0  0  -0.225157  -0.407468  0  1.569494  0
Br  Br34  1  0.92783923  0.57709481  0.58802740  1  0  -0.49047  0  1.225898  0  0  -0.423499  0  1.554726  0  0  -0.445838  0  1.533724  0  0  -0.225165  -0.407484  0  1.569522  0
Br  Br35  1  0.42782932  0.42290556  0.41197268  1  0  -0.490494  0  1.225953  0  0  -0.423527  0  1.554801  0  0  -0.445867  0  1.5338  0  0  -0.225169  -0.407511  0  1.569599  0
Br  Br36  1  0.42803480  0.27649879  0.07803260  1  0  -0.4998  0  1.081823  0  0  -0.437428  0  1.386368  0  0  -0.458009  0  1.366345  0  0  -0.246254  -0.422801  0  1.401021  0
Br  Br37  1  0.92806268  0.72350955  0.92196748  1  0  -0.499827  0  1.081815  0  0  -0.437458  0  1.386368  0  0  -0.458039  0  1.366345  0  0  -0.246272  -0.422834  0  1.401024  0
Br  Br38  1  0.42807326  0.77649190  0.42196757  1  0  -0.499788  0  1.081804  0  0  -0.437423  0  1.386378  0  0  -0.458004  0  1.366355  0  0  -0.246248  -0.422795  0  1.40103  0
Br  Br39  1  0.92803175  0.22350316  0.57803188  1  0  -0.499814  0  1.081815  0  0  -0.437432  0  1.386348  0  0  -0.458013  0  1.366325  0  0  -0.246266  -0.422803  0  1.401  0
N  N40  1  0.92788109  0.10269466  0.23331404  1  0  -0.388489  0  3.301084  0  0  -0.305779  0  3.572632  0  0  -0.32948  0  3.595405  0  0  -0.370487  -0.289489  0  3.556457  0
N  N41  1  0.42788780  0.89730925  0.76668477  1  0  -0.388441  0  3.301086  0  0  -0.305766  0  3.572678  0  0  -0.32945  0  3.595402  0  0  -0.370466  -0.289474  0  3.556505  0
N  N42  1  0.92788198  0.60269451  0.26668573  1  0  -0.388479  0  3.301188  0  0  -0.305771  0  3.572745  0  0  -0.329466  0  3.595499  0  0  -0.370472  -0.289477  0  3.556567  0
N  N43  1  0.42788189  0.39730233  0.73331562  1  0  -0.388423  0  3.301163  0  0  -0.3057  0  3.572701  0  0  -0.329398  0  3.595468  0  0  -0.370483  -0.289407  0  3.556528  0
N  N44  1  0.87386831  0.16339442  0.36493216  1  0  -0.276255  0  3.516864  0  0  -0.208721  0  3.750795  0  0  -0.22437  0  3.766352  0  0  -0.385736  -0.198298  0  3.74018  0
N  N45  1  0.37387234  0.83660679  0.63506792  1  0  -0.276165  0  3.51682  0  0  -0.208628  0  3.750744  0  0  -0.224277  0  3.766305  0  0  -0.385706  -0.19821  0  3.740135  0
N  N46  1  0.87386423  0.66339471  0.13506878  1  0  -0.276304  0  3.516909  0  0  -0.208729  0  3.750822  0  0  -0.224371  0  3.766369  0  0  -0.385819  -0.19831  0  3.740214  0
N  N47  1  0.37387141  0.33660208  0.86493258  1  0  -0.276254  0  3.516753  0  0  -0.208664  0  3.750647  0  0  -0.224315  0  3.766208  0  0  -0.385682  -0.198242  0  3.740039  0
