# generated using pymatgen
data_Cu3H36C60(N4O9)2
_symmetry_space_group_name_H-M   'P 1'
_cell_length_a   9.81046168
_cell_length_b   12.06385469
_cell_length_c   14.19134411
_cell_angle_alpha   67.56349130
_cell_angle_beta   76.29235216
_cell_angle_gamma   70.28440008
_symmetry_Int_Tables_number   1
_chemical_formula_structural   Cu3H36C60(N4O9)2
_chemical_formula_sum   'Cu3 H36 C60 N8 O18'
_cell_volume   1450.08318902
_cell_formula_units_Z   1
loop_
 _symmetry_equiv_pos_site_id
 _symmetry_equiv_pos_as_xyz
  1  'x, y, z'
loop_
 _atom_site_type_symbol
 _atom_site_label
 _atom_site_symmetry_multiplicity
 _atom_site_fract_x
 _atom_site_fract_y
 _atom_site_fract_z
 _atom_site_occupancy
 _atom_site_pbe_bader_charge
 _atom_site_pbe_bader_spin_density
 _atom_site_pbe_cm5_charge
 _atom_site_pbe_ddec_charge
 _atom_site_pbe_ddec_spin_density
 _atom_site_pbe_ddec_sum_bond_order
 _atom_site_pbe_magmom
Cu  Cu0  1  0.49999548  0.50000016  0.50000187  1  1.183385  0.609321  0.722717  1.005053  0.765617  2.098103  0.609
Cu  Cu1  1  0.58673022  0.50356046  0.24953527  1  1.096081  0.582737  0.748381  0.784154  0.735916  2.308123  0.58
Cu  Cu2  1  0.41326974  0.49643806  0.75046550  1  1.096069  0.582734  0.748394  0.784213  0.735912  2.308063  0.58
H  H3  1  0.71531023  0.11403750  0.61709143  1  0.108592  0.000348  0.115895  0.126706  0.000209  1.013829  0.0
H  H4  1  0.28469588  0.88595824  0.38291065  1  0.108582  0.000348  0.115878  0.126681  0.000209  1.013816  0.0
H  H5  1  0.89699910  0.92031406  0.34289341  1  0.163512  0.000198  0.101847  0.111807  8.1e-05  1.0954  0.0
H  H6  1  0.10300111  0.07969007  0.65710481  1  0.16342  0.000198  0.10183  0.11177  8.1e-05  1.095446  0.0
H  H7  1  0.76249125  0.14059037  0.30096140  1  0.093282  0.000232  0.110749  0.115846  0.00015  0.993021  0.0
H  H8  1  0.23751343  0.85941283  0.69904064  1  0.093252  0.000232  0.110736  0.115856  0.00015  0.992965  0.0
H  H9  1  0.20962868  0.69355759  0.42222293  1  0.154474  0.00027  0.109532  0.136974  0.000297  1.052853  0.0
H  H10  1  0.79036730  0.30643720  0.57777473  1  0.154376  0.00027  0.109481  0.136871  0.000298  1.052849  0.0
H  H11  1  0.04770051  0.51501997  0.27729597  1  0.122166  7e-05  0.107636  0.121739  1.6e-05  0.998497  0.0
H  H12  1  0.95229054  0.48497385  0.72270420  1  0.122298  7e-05  0.107637  0.121783  1.6e-05  0.998596  0.0
H  H13  1  0.75787545  0.69320983  0.48968264  1  0.126496  0.000253  0.11589  0.14434  0.000194  0.973939  0.0
H  H14  1  0.24212272  0.30678775  0.51031800  1  0.126553  0.000253  0.115842  0.14422  0.000194  0.973949  0.0
H  H15  1  0.47573156  0.74047867  0.28044817  1  0.176564  0.001953  0.128885  0.112928  0.000875  0.998842  0.002
H  H16  1  0.52427080  0.25951893  0.71955180  1  0.176515  0.001953  0.128865  0.112901  0.000875  0.998888  0.002
H  H17  1  0.42705146  0.96457087  0.17930331  1  0.1135  0.000977  0.112177  0.126278  0.000521  1.036266  0.001
H  H18  1  0.57295341  0.03542860  0.82069849  1  0.113646  0.000977  0.112179  0.126302  0.000521  1.03625  0.001
H  H19  1  0.61733952  0.85672933  0.90720544  1  0.098876  0.001209  0.111944  0.125127  0.000622  1.024089  0.001
H  H20  1  0.38266234  0.14327294  0.09279524  1  0.09909  0.001208  0.111946  0.125123  0.000622  1.024092  0.001
H  H21  1  0.65471988  0.63843792  0.02052134  1  0.12465  0.002238  0.124101  0.095957  0.001034  0.99696  0.001
H  H22  1  0.34528095  0.36156435  0.97947668  1  0.124564  0.002238  0.124092  0.095932  0.001034  0.996964  0.001
H  H23  1  0.51465318  0.42594051  0.10871281  1  0.143281  0.001703  0.119015  0.097263  0.000706  1.014943  0.002
H  H24  1  0.48534677  0.57405801  0.89128866  1  0.143463  0.001702  0.119023  0.097254  0.000706  1.014993  0.002
H  H25  1  0.63907761  0.30794131  0.98498816  1  0.087775  0.000816  0.104514  0.107564  0.000374  1.04017  0.0
H  H26  1  0.36092414  0.69205817  0.01501061  1  0.087746  0.000816  0.104517  0.10757  0.000374  1.040209  0.0
H  H27  1  0.05090211  0.28968753  0.05883814  1  0.076059  0.000814  0.106824  0.109355  0.000411  1.022613  0.0
H  H28  1  0.94910034  0.71031944  0.94115600  1  0.076077  0.000814  0.106852  0.109349  0.000411  1.022639  0.0
H  H29  1  0.90940514  0.41688125  0.17189397  1  0.15458  0.001863  0.125453  0.111888  0.000883  0.995269  0.001
H  H30  1  0.09059553  0.58312477  0.82810077  1  0.154512  0.001863  0.125427  0.111907  0.000883  0.995209  0.001
H  H31  1  0.76037099  0.12572308  0.96823080  1  0.075473  2.5e-05  0.099988  0.101423  2e-06  1.0301  0.0
H  H32  1  0.23963179  0.87427638  0.03176992  1  0.07543  2.5e-05  0.099981  0.101417  2e-06  1.030108  0.0
H  H33  1  0.89603699  0.00117458  0.85318748  1  0.074856  9e-06  0.105354  0.077687  8e-06  1.014109  0.0
H  H34  1  0.10396698  0.99882771  0.14681074  1  0.074751  9e-06  0.105397  0.077831  8e-06  1.014067  0.0
H  H35  1  0.24909231  0.14355906  0.78866705  1  0.070178  -1.3e-05  0.106251  0.072708  -1.8e-05  0.998409  0.0
H  H36  1  0.75091163  0.85644320  0.21133470  1  0.069801  -1.3e-05  0.106253  0.072701  -1.8e-05  0.998426  0.0
H  H37  1  0.12690500  0.27928368  0.89607088  1  0.076439  1e-06  0.103562  0.110286  -1.5e-05  1.020696  0.0
H  H38  1  0.87309354  0.72072230  0.10392843  1  0.076194  1e-06  0.103576  0.110325  -1.5e-05  1.020728  0.0
C  C39  1  0.64639454  0.27909408  0.42791661  1  1.59905  0.002321  0.221943  0.598096  0.002997  4.148489  0.0
C  C40  1  0.35360207  0.72090813  0.57208703  1  1.599105  0.002321  0.221983  0.598216  0.002997  4.148386  0.0
C  C41  1  0.72783200  0.14323055  0.45635183  1  0.01029  0.016422  -0.019843  -0.040939  0.011295  3.962899  0.013
C  C42  1  0.27217089  0.85677171  0.54365009  1  0.010234  0.016421  -0.019884  -0.041103  0.011294  3.963039  0.013
C  C43  1  0.75392452  0.07191874  0.55684320  1  0.00165  0.002509  -0.073552  -0.119449  0.001499  3.961225  0.001
C  C44  1  0.24607679  0.92807885  0.44315765  1  0.001498  0.002509  -0.073543  -0.11938  0.001499  3.961208  0.001
C  C45  1  0.83022097  0.94505981  0.58271292  1  0.255416  0.001008  0.067869  -0.045898  0.000618  3.897873  0.001
C  C46  1  0.16978213  0.05493873  0.41728663  1  0.255765  0.001008  0.067934  -0.04587  0.000619  3.897988  0.001
C  C47  1  0.88394117  0.88695251  0.50572303  1  0.554898  0.000688  0.115442  0.251906  0.000429  4.000336  0.0
C  C48  1  0.11605806  0.11304508  0.49427674  1  0.554871  0.000688  0.115435  0.251917  0.000429  4.00044  0.0
C  C49  1  0.85725461  0.96079042  0.40441338  1  -0.068949  0.000502  -0.106612  -0.22175  0.00026  4.00329  0.0
C  C50  1  0.14274725  0.03921184  0.59558730  1  -0.068757  0.000502  -0.106597  -0.221719  0.00026  4.003259  0.0
C  C51  1  0.78091965  0.08557632  0.38033164  1  0.017587  0.001716  -0.064119  -0.0248  0.001033  3.926736  0.001
C  C52  1  0.21908430  0.91442594  0.61967011  1  0.017487  0.001716  -0.064082  -0.024704  0.001033  3.926547  0.001
C  C53  1  0.98056665  0.70473874  0.45789936  1  0.312908  0.000229  0.078712  0.244404  6.3e-05  4.027507  0.0
C  C54  1  0.01943289  0.29525793  0.54209995  1  0.312948  0.000229  0.078631  0.244169  6.3e-05  4.027613  0.0
C  C55  1  0.11979620  0.67096451  0.40772070  1  0.012318  -0.000166  -0.088627  -0.190968  -0.000369  3.903645  0.0
C  C56  1  0.88020094  0.32903308  0.59227800  1  0.012352  -0.000165  -0.088571  -0.190761  -0.000369  3.90351  0.0
C  C57  1  0.14374757  0.60210927  0.34208898  1  0.010221  0.009999  -0.013881  -0.001306  0.006973  3.953089  0.008
C  C58  1  0.85624540  0.39788830  0.65790898  1  0.009479  0.010001  -0.013906  -0.001329  0.006973  3.953074  0.008
C  C59  1  0.02839502  0.56932155  0.32762549  1  -0.024068  0.001906  -0.076359  -0.11422  0.001035  3.927552  0.002
C  C60  1  0.97159872  0.43067040  0.67237626  1  -0.024007  0.001906  -0.076382  -0.114403  0.001035  3.927719  0.002
C  C61  1  0.88969137  0.60213131  0.38079330  1  -0.002946  0.010886  -0.015869  -0.016989  0.007398  3.972283  0.009
C  C62  1  0.11030385  0.39786251  0.61920902  1  -0.00301  0.010888  -0.015781  -0.016775  0.007398  3.972113  0.009
C  C63  1  0.86527942  0.67039938  0.44672351  1  -0.015869  -0.000513  -0.08362  -0.190372  -0.00071  3.929559  0.0
C  C64  1  0.13471592  0.32959726  0.55327719  1  -0.015982  -0.000513  -0.083601  -0.190199  -0.00071  3.929441  0.0
C  C65  1  0.76582365  0.56213045  0.37062999  1  1.579296  0.00139  0.207813  0.589068  0.001531  4.19663  0.0
C  C66  1  0.23417003  0.43786804  0.62937109  1  1.579314  0.001389  0.20777  0.588948  0.001531  4.196685  0.0
C  C67  1  0.29411941  0.56047722  0.28907601  1  1.534552  -0.001081  0.196969  0.573848  -0.001518  4.184428  -0.003
C  C68  1  0.70587730  0.43951850  0.71092336  1  1.535128  -0.001083  0.197084  0.573969  -0.001518  4.18421  -0.003
C  C69  1  0.50461512  0.77148573  0.19734089  1  0.381262  -0.0015  0.057014  0.108947  -0.002165  3.890921  -0.001
C  C70  1  0.49538707  0.22851561  0.80265792  1  0.381305  -0.0015  0.057015  0.108929  -0.002166  3.890921  -0.001
C  C71  1  0.47843351  0.89704337  0.13924541  1  0.049279  0.005087  -0.073943  -0.162183  0.00347  3.90802  0.004
C  C72  1  0.52156436  0.10295514  0.86075499  1  0.049113  0.005087  -0.073933  -0.162165  0.00347  3.907907  0.004
C  C73  1  0.51489132  0.93354025  0.03211087  1  0.044106  -0.00348  0.013861  0.101392  -0.003993  3.969327  -0.002
C  C74  1  0.48511147  0.06645922  0.96788985  1  0.010725  -0.003493  0.013856  0.101325  -0.003992  3.969327  -0.002
C  C75  1  0.58121997  0.83770536  0.98910046  1  -0.062187  0.00481  -0.076828  -0.167656  0.003229  3.925731  0.004
C  C76  1  0.41878042  0.16229503  0.01089964  1  -0.062469  0.00481  -0.076836  -0.167634  0.003229  3.925708  0.004
C  C77  1  0.60399440  0.71414720  0.05229068  1  0.435005  -0.000773  0.048291  0.083202  -0.001211  3.967823  0.0
C  C78  1  0.39600704  0.28585321  0.94770855  1  0.435179  -0.000773  0.048335  0.083249  -0.001211  3.967791  0.0
C  C79  1  0.63348930  0.39508923  0.09259403  1  0.389086  0.00031  0.042777  0.075105  -0.000106  3.944019  0.001
C  C80  1  0.36651440  0.60490744  0.90740743  1  0.389125  0.00031  0.042759  0.075065  -0.000106  3.944193  0.001
C  C81  1  0.70334899  0.32733862  0.02655249  1  0.059632  0.004852  -0.075626  -0.144241  0.003295  3.92144  0.004
C  C82  1  0.29665350  0.67266179  0.97344656  1  0.059567  0.004853  -0.075622  -0.144244  0.003296  3.9215  0.004
C  C83  1  0.85643200  0.28791891  0.01127102  1  -0.010271  -0.002663  0.020889  0.119065  -0.003037  3.948768  -0.002
C  C84  1  0.14357091  0.71208336  0.98872808  1  -0.010312  -0.002663  0.020851  0.11905  -0.003037  3.948692  -0.002
C  C85  1  0.93226158  0.32100306  0.06411787  1  0.056955  0.004144  -0.077372  -0.164568  0.002778  3.926404  0.003
C  C86  1  0.06773950  0.67900481  0.93587903  1  0.057591  0.004144  -0.077347  -0.164523  0.002778  3.92632  0.003
C  C87  1  0.85505479  0.39097546  0.12804054  1  0.424552  -0.001056  0.050629  0.095244  -0.001567  3.923769  -0.001
C  C88  1  0.14494692  0.60903056  0.87195544  1  0.424109  -0.001056  0.050648  0.095205  -0.001568  3.923753  -0.001
C  C89  1  0.93292391  0.21262712  0.94374365  1  -0.024422  0.000352  0.011326  0.102037  0.000204  3.975014  0.0
C  C90  1  0.06707900  0.78737516  0.05625544  1  -0.024509  0.000352  0.011338  0.102082  0.000204  3.97499  0.0
C  C91  1  0.86808500  0.13400206  0.92898715  1  -0.024054  -0.000419  -0.084228  -0.166748  -0.000483  3.946099  0.0
C  C92  1  0.13191884  0.86599742  0.07101269  1  -0.024001  -0.000419  -0.084229  -0.166775  -0.000483  3.946071  0.0
C  C93  1  0.94469148  0.06276060  0.86598714  1  0.543309  0.000128  0.039231  0.085779  6.6e-05  4.003049  0.0
C  C94  1  0.05531279  0.93724074  0.13401274  1  0.543325  0.000128  0.039168  0.085629  6.6e-05  4.002972  0.0
C  C95  1  0.14089013  0.14075549  0.83084146  1  0.49538  0.000171  0.040032  0.088637  9.6e-05  4.010197  0.0
C  C96  1  0.85911172  0.85924677  0.16915992  1  0.496167  0.000171  0.040031  0.088676  9.6e-05  4.010191  0.0
C  C97  1  0.07299925  0.21587382  0.89214979  1  -0.057454  -0.000449  -0.082254  -0.170805  -0.000511  3.941076  0.0
C  C98  1  0.92700261  0.78412844  0.10785088  1  -0.057268  -0.000449  -0.08227  -0.170856  -0.000511  3.941132  0.0
N  N99  1  0.84718009  0.87627056  0.69019954  1  0.32689  0.000252  0.050546  0.527124  0.000112  4.205733  0.0
N  N100  1  0.15282227  0.12372704  0.30980113  1  0.326983  0.000252  0.050472  0.526991  0.000112  4.205826  0.0
N  N101  1  0.56508503  0.68081439  0.15460655  1  -1.189662  0.089401  -0.339525  -0.224174  0.058891  3.614243  0.078
N  N102  1  0.43491297  0.31918694  0.84539152  1  -1.189704  0.089398  -0.339543  -0.22419  0.058889  3.614388  0.078
N  N103  1  0.70843590  0.42722417  0.14173108  1  -1.228075  0.06866  -0.350757  -0.237513  0.045006  3.639985  0.059
N  N104  1  0.29156388  0.57277808  0.85826852  1  -1.228315  0.068664  -0.350757  -0.237463  0.045008  3.640098  0.059
N  N105  1  0.07985712  0.06445397  0.81768020  1  -1.209649  -0.000353  -0.318731  -0.25721  -0.000407  3.341409  0.0
N  N106  1  0.92014609  0.93554736  0.18232127  1  -1.209832  -0.000353  -0.318708  -0.257204  -0.000407  3.341358  0.0
O  O107  1  0.62663717  0.33215581  0.49407417  1  -1.130022  0.086093  -0.305336  -0.537171  0.054384  2.407287  0.078
O  O108  1  0.37335753  0.66784265  0.50593169  1  -1.129956  0.086096  -0.305412  -0.537294  0.054386  2.407243  0.078
O  O109  1  0.60546120  0.32795583  0.33874014  1  -1.117838  0.091478  -0.319307  -0.525532  0.057509  2.365783  0.082
O  O110  1  0.39453949  0.67204362  0.66126162  1  -1.117898  0.091475  -0.319294  -0.525543  0.057508  2.36583  0.082
O  O111  1  0.78029381  0.93104940  0.75447098  1  -0.52741  0.000353  -0.161826  -0.40137  0.000196  1.984649  0.0
O  O112  1  0.21970751  0.06894820  0.24552986  1  -0.527289  0.000353  -0.161839  -0.401378  0.000196  1.984657  0.0
O  O113  1  0.92520638  0.76732499  0.71516859  1  -0.441778  0.000335  -0.115571  -0.315606  0.000181  1.966329  0.0
O  O114  1  0.07479346  0.23267074  0.28483167  1  -0.442193  0.000335  -0.115516  -0.315492  0.000181  1.966304  0.0
O  O115  1  0.95878150  0.76504014  0.53012948  1  -1.085098  0.000539  -0.131192  -0.178785  0.000306  2.594908  0.0
O  O116  1  0.04121772  0.23495745  0.46987029  1  -1.085135  0.000538  -0.131118  -0.178712  0.000306  2.59488  0.0
O  O117  1  0.65152131  0.58357877  0.43488708  1  -1.133934  0.083812  -0.339152  -0.586412  0.05251  2.426418  0.075
O  O118  1  0.34847145  0.41642251  0.56511325  1  -1.13387  0.083817  -0.339123  -0.586336  0.052513  2.426542  0.075
O  O119  1  0.78038885  0.51490557  0.30227944  1  -1.174408  0.005815  -0.324624  -0.572445  0.003137  2.271622  0.006
O  O120  1  0.21960409  0.48509198  0.69772205  1  -1.174414  0.005814  -0.324667  -0.572496  0.003136  2.271576  0.006
O  O121  1  0.39968779  0.56380863  0.32862011  1  -1.109208  0.115093  -0.331843  -0.592893  0.071193  2.445304  0.104
O  O122  1  0.60030708  0.43619270  0.67137634  1  -1.109278  0.115099  -0.331899  -0.592989  0.071196  2.445235  0.104
O  O123  1  0.31276534  0.52663219  0.21286357  1  -1.168115  0.000829  -0.332103  -0.564412  -0.000691  2.111459  0.002
O  O124  1  0.68723094  0.47336165  0.78713575  1  -1.167951  0.000828  -0.332115  -0.564409  -0.000692  2.111476  0.002
