# generated using pymatgen
data_CoH13C18N3O4
_symmetry_space_group_name_H-M   'P 1'
_cell_length_a   11.34990428
_cell_length_b   17.66185311
_cell_length_c   17.83999828
_cell_angle_alpha   89.99995631
_cell_angle_beta   89.99996360
_cell_angle_gamma   99.47376200
_symmetry_Int_Tables_number   1
_chemical_formula_structural   CoH13C18N3O4
_chemical_formula_sum   'Co4 H52 C72 N12 O16'
_cell_volume   3527.43648733
_cell_formula_units_Z   4
loop_
 _symmetry_equiv_pos_site_id
 _symmetry_equiv_pos_as_xyz
  1  'x, y, z'
loop_
 _atom_site_type_symbol
 _atom_site_label
 _atom_site_symmetry_multiplicity
 _atom_site_fract_x
 _atom_site_fract_y
 _atom_site_fract_z
 _atom_site_occupancy
 _atom_site_pbe_bader_charge
 _atom_site_pbe_bader_spin_density
 _atom_site_pbe_cm5_charge
 _atom_site_pbe_ddec_charge
 _atom_site_pbe_ddec_spin_density
 _atom_site_pbe_ddec_sum_bond_order
 _atom_site_pbe_magmom
Co  Co0  1  0.96526021  0.07271988  0.92016635  1  1.295838  2.598321  0.67695  0.861797  2.842098  2.58993  2.577
Co  Co1  1  0.03474101  0.42728015  0.42016747  1  1.295765  2.598269  0.676804  0.861497  2.842014  2.589916  2.577
Co  Co2  1  0.03474033  0.92728421  0.07983205  1  1.295624  2.598314  0.676735  0.861543  2.842023  2.5894  2.577
Co  Co3  1  0.96525942  0.57271303  0.57983148  1  1.295624  2.59835  0.676893  0.861803  2.842095  2.589647  2.577
H  H4  1  0.01202770  0.77767008  0.98741235  1  0.518045  2.3e-05  0.298154  0.31673  -9.1e-05  0.997054  0.0
H  H5  1  0.00798883  0.68593521  0.95183839  1  0.408482  0.000125  0.310128  0.304755  5.7e-05  0.936697  0.0
H  H6  1  0.95386635  0.92261076  0.76654606  1  0.083415  0.000287  0.104683  0.114254  6.6e-05  0.996956  0.0
H  H7  1  0.00383406  0.65479917  0.82303963  1  0.105558  0.000855  0.101348  0.117647  0.000477  1.005245  0.0
H  H8  1  0.95667521  0.82750834  0.66158700  1  0.052582  0.000678  0.096304  0.105589  0.000367  1.013869  0.0
H  H9  1  0.52500440  0.97274681  0.84960162  1  0.061071  0.000942  0.107627  0.11053  0.000475  1.007704  0.0
H  H10  1  0.74467892  0.97680501  0.85270808  1  0.117349  0.001433  0.121147  0.097885  0.000304  0.991417  0.001
H  H11  1  0.79408818  0.16498566  0.99339505  1  0.1356  0.001385  0.117473  0.091005  0.000295  1.021675  0.001
H  H12  1  0.57885341  0.17243509  0.99441752  1  0.072029  0.000949  0.108415  0.112632  0.000476  1.004592  0.0
H  H13  1  0.35717142  0.99623255  0.82621207  1  0.067725  0.000934  0.110341  0.11452  0.000495  1.001806  0.0
H  H14  1  0.14165853  0.00234769  0.82867774  1  0.124796  0.001409  0.121578  0.091582  0.000209  0.998603  0.001
H  H15  1  0.18264263  0.15730655  0.00427176  1  0.080341  0.001633  0.119996  0.089912  0.000304  0.999862  0.001
H  H16  1  0.39841197  0.15566235  0.01258394  1  0.079592  0.000976  0.108392  0.111586  0.000501  1.004758  0.0
H  H17  1  0.98796551  0.72232736  0.48741437  1  0.517418  2.3e-05  0.298138  0.316676  -9.1e-05  0.997196  0.0
H  H18  1  0.99199269  0.81405766  0.45184090  1  0.408627  0.000125  0.310169  0.304795  5.7e-05  0.936787  0.0
H  H19  1  0.04614240  0.57739150  0.26654576  1  0.083387  0.000287  0.104678  0.114222  6.6e-05  0.997073  0.0
H  H20  1  0.99615011  0.84519669  0.32304660  1  0.105318  0.000855  0.101343  0.117632  0.000476  1.005161  0.0
H  H21  1  0.04332677  0.67249113  0.16158663  1  0.052581  0.000677  0.096295  0.105585  0.000367  1.013863  0.0
H  H22  1  0.47499306  0.52725995  0.34961297  1  0.0603  0.000942  0.107669  0.110542  0.000475  1.007728  0.0
H  H23  1  0.25531870  0.52319888  0.35271503  1  0.117559  0.001433  0.121137  0.097868  0.000304  0.991381  0.001
H  H24  1  0.20590975  0.33500856  0.49339338  1  0.135455  0.001386  0.117456  0.09096  0.000295  1.021663  0.001
H  H25  1  0.42114405  0.32756429  0.49441744  1  0.07205  0.000949  0.108436  0.112683  0.000476  1.004705  0.0
H  H26  1  0.64283520  0.50376851  0.32621776  1  0.067439  0.000934  0.110356  0.114517  0.000495  1.001886  0.0
H  H27  1  0.85834473  0.49764956  0.32868128  1  0.124869  0.00141  0.121527  0.091496  0.00021  0.99862  0.001
H  H28  1  0.81735766  0.34268811  0.50427442  1  0.080025  0.001632  0.120037  0.089963  0.000304  0.999673  0.001
H  H29  1  0.60159459  0.34433977  0.51258780  1  0.079612  0.000975  0.108405  0.111657  0.0005  1.004799  0.0
H  H30  1  0.98797195  0.22233400  0.01258492  1  0.517965  2.3e-05  0.298137  0.316716  -9.1e-05  0.99709  0.0
H  H31  1  0.99199235  0.31405852  0.04817009  1  0.40852  0.000124  0.31019  0.304841  5.7e-05  0.936735  0.0
H  H32  1  0.04613584  0.07738243  0.23345794  1  0.083131  0.000287  0.104702  0.114344  6.5e-05  0.996978  0.0
H  H33  1  0.99615741  0.34519343  0.17696213  1  0.105484  0.000856  0.10132  0.117592  0.000477  1.005305  0.0
H  H34  1  0.04331023  0.17248482  0.33841924  1  0.052285  0.000678  0.096337  0.105609  0.000367  1.013726  0.0
H  H35  1  0.47498920  0.02726473  0.15039397  1  0.060378  0.000941  0.107684  0.11057  0.000475  1.007694  0.0
H  H36  1  0.25531588  0.02320079  0.14729087  1  0.117447  0.001432  0.121113  0.097838  0.000304  0.991425  0.001
H  H37  1  0.20590531  0.83501842  0.00660390  1  0.134844  0.001385  0.117461  0.090947  0.000295  1.021611  0.001
H  H38  1  0.42114167  0.82757530  0.00557976  1  0.072175  0.000949  0.108366  0.11255  0.000476  1.004892  0.0
H  H39  1  0.64283628  0.00377901  0.17377791  1  0.067338  0.000933  0.110344  0.114413  0.000495  1.002113  0.0
H  H40  1  0.85834096  0.99766271  0.17131617  1  0.1247  0.001409  0.121551  0.091469  0.000209  0.998865  0.001
H  H41  1  0.81735940  0.84269295  0.99572887  1  0.080398  0.001632  0.119964  0.089911  0.000303  0.999744  0.001
H  H42  1  0.60159560  0.84434520  0.98741053  1  0.0795  0.000975  0.108428  0.111644  0.0005  1.004805  0.0
H  H43  1  0.01202612  0.27766237  0.51258290  1  0.51815  2.3e-05  0.298193  0.316692  -9.1e-05  0.997195  0.0
H  H44  1  0.00800260  0.18593609  0.54816534  1  0.408662  0.000124  0.310104  0.304733  5.7e-05  0.936773  0.0
H  H45  1  0.95386165  0.42261603  0.73344815  1  0.083493  0.000287  0.104736  0.114338  6.6e-05  0.997055  0.0
H  H46  1  0.00384339  0.15480394  0.67696133  1  0.105436  0.000856  0.101318  0.117603  0.000477  1.005234  0.0
H  H47  1  0.95668329  0.32751928  0.83841568  1  0.052086  0.000678  0.096349  0.105687  0.000367  1.013696  0.0
H  H48  1  0.52500896  0.47273955  0.65039328  1  0.06045  0.000942  0.107647  0.110545  0.000475  1.007746  0.0
H  H49  1  0.74468202  0.47679546  0.64728673  1  0.117375  0.001432  0.121097  0.097828  0.000304  0.991393  0.001
H  H50  1  0.79409201  0.66498291  0.50660502  1  0.135594  0.001385  0.11749  0.091025  0.000295  1.021626  0.001
H  H51  1  0.57885843  0.67243004  0.50558432  1  0.072151  0.000949  0.108381  0.112637  0.000476  1.004765  0.0
H  H52  1  0.35716656  0.49622296  0.67378176  1  0.067309  0.000934  0.110339  0.114454  0.000495  1.002009  0.0
H  H53  1  0.14165676  0.50233732  0.67131879  1  0.124604  0.001409  0.121578  0.091473  0.000209  0.998722  0.001
H  H54  1  0.18264290  0.65730909  0.49573126  1  0.080407  0.001632  0.119968  0.089898  0.000304  0.999836  0.001
H  H55  1  0.39840685  0.65565743  0.48741844  1  0.079509  0.000975  0.108405  0.111596  0.0005  1.004851  0.0
C  C56  1  0.98342862  0.84378041  0.85306234  1  -0.035882  0.008712  -0.040218  -0.174662  0.004419  3.959708  0.007
C  C57  1  0.99906483  0.76724897  0.87109376  1  0.441285  0.002253  0.104296  0.302834  0.000915  4.075802  0.001
C  C58  1  0.99487812  0.71429207  0.81142674  1  -0.091592  -0.000339  -0.103895  -0.230018  -0.00077  3.932975  0.0
C  C59  1  0.98076408  0.73583519  0.73740879  1  -0.012396  0.003581  -0.01929  0.005728  0.001884  4.019024  0.003
C  C60  1  0.96745039  0.81167851  0.71986055  1  0.046806  0.001457  -0.114542  -0.152716  0.000745  4.045864  0.001
C  C61  1  0.96678146  0.86378617  0.77774451  1  -0.042114  0.000932  -0.096615  -0.091121  0.000135  4.043497  0.001
C  C62  1  0.98458299  0.90393145  0.91071423  1  1.49235  -0.000236  0.208419  0.573033  -0.00179  4.214932  0.002
C  C63  1  0.97872678  0.67754573  0.67678773  1  1.505336  -0.005571  0.191363  0.548627  -0.007303  4.202921  -0.006
C  C64  1  0.52961165  0.07288294  0.92171632  1  0.00625  -0.014036  0.005972  0.098937  -0.015038  3.99293  -0.008
C  C65  1  0.58027418  0.01752663  0.88182507  1  -0.012496  0.000213  -0.086649  -0.182666  -0.00076  3.964642  0.001
C  C66  1  0.70295246  0.01878502  0.88334747  1  0.467643  -0.008261  0.049323  0.100593  -0.008963  3.950644  -0.005
C  C67  1  0.73107912  0.12381370  0.96181100  1  0.480276  -0.00807  0.048068  0.10439  -0.008635  3.937494  -0.005
C  C68  1  0.60960860  0.12684803  0.96251842  1  -0.055571  0.000447  -0.086586  -0.182135  -0.000592  3.953648  0.002
C  C69  1  0.40006310  0.07478724  0.92028642  1  -0.042858  -0.017857  0.00776  0.096972  -0.018993  3.985703  -0.011
C  C70  1  0.32333916  0.03193767  0.86818667  1  0.007785  0.002062  -0.0837  -0.173366  0.000389  3.94407  0.003
C  C71  1  0.20199925  0.03516845  0.86881729  1  0.438209  -0.011896  0.050469  0.107821  -0.012738  3.940374  -0.007
C  C72  1  0.22450803  0.12116760  0.96658689  1  0.483534  -0.010497  0.050993  0.110206  -0.011278  3.94799  -0.006
C  C73  1  0.34641452  0.12055361  0.97013058  1  -0.012558  0.001438  -0.084637  -0.17632  -1e-05  3.956501  0.002
C  C74  1  0.01657077  0.65622004  0.35306312  1  -0.035846  0.008719  -0.040237  -0.174611  0.004424  3.959695  0.007
C  C75  1  0.00093074  0.73274686  0.37109505  1  0.441757  0.002254  0.104346  0.302796  0.000916  4.075754  0.001
C  C76  1  0.00511972  0.78570554  0.31143078  1  -0.091869  -0.000337  -0.103922  -0.229988  -0.000767  3.932871  0.0
C  C77  1  0.01923150  0.76416364  0.23741565  1  -0.012419  0.003584  -0.019329  0.005642  0.001886  4.019146  0.003
C  C78  1  0.03255093  0.68832205  0.21985962  1  0.046876  0.001459  -0.11445  -0.152612  0.000746  4.045653  0.001
C  C79  1  0.03322317  0.63621378  0.27774697  1  -0.042261  0.000933  -0.09667  -0.091212  0.000136  4.043565  0.001
C  C80  1  0.01541957  0.59606780  0.41071786  1  1.493196  -0.000223  0.208507  0.573232  -0.001779  4.214919  0.002
C  C81  1  0.02127181  0.82245430  0.17679622  1  1.50523  -0.005568  0.191361  0.548728  -0.007298  4.202547  -0.006
C  C82  1  0.47039220  0.42712054  0.42172400  1  0.004088  -0.014034  0.005956  0.098945  -0.015035  3.993123  -0.008
C  C83  1  0.41973383  0.48247918  0.38183665  1  -0.010917  0.000214  -0.086713  -0.182714  -0.000759  3.964688  0.001
C  C84  1  0.29705056  0.48121849  0.38335461  1  0.467493  -0.00826  0.049321  0.100537  -0.008965  3.950752  -0.005
C  C85  1  0.26892426  0.37618457  0.46181263  1  0.480152  -0.00807  0.048213  0.104601  -0.008634  3.937213  -0.005
C  C86  1  0.39039698  0.37315196  0.46252225  1  -0.054263  0.000451  -0.086609  -0.182279  -0.00059  3.953736  0.002
C  C87  1  0.59993079  0.42521163  0.42029068  1  -0.042857  -0.017848  0.007833  0.097215  -0.018983  3.986063  -0.011
C  C88  1  0.67665567  0.46806125  0.36819367  1  0.00813  0.002061  -0.083794  -0.17348  0.000388  3.944258  0.003
C  C89  1  0.79799911  0.46483047  0.36882201  1  0.438091  -0.011891  0.050517  0.10789  -0.012733  3.940175  -0.007
C  C90  1  0.77549064  0.37882951  0.46659055  1  0.483299  -0.010497  0.051041  0.110222  -0.011278  3.947649  -0.006
C  C91  1  0.65357723  0.37944750  0.47013486  1  -0.012213  0.001439  -0.084665  -0.176508  -1e-05  3.956646  0.002
C  C92  1  0.01657868  0.15622254  0.14693493  1  -0.035952  0.008714  -0.040205  -0.174431  0.00442  3.959612  0.007
C  C93  1  0.00093485  0.23274823  0.12890687  1  0.403628  0.002257  0.10437  0.302873  0.000917  4.075804  0.001
C  C94  1  0.00512172  0.28570226  0.18856942  1  -0.053334  -0.000342  -0.103935  -0.229996  -0.00077  3.93316  0.0
C  C95  1  0.01922695  0.26415913  0.26258680  1  -0.01262  0.003585  -0.01927  0.00569  0.001886  4.018735  0.003
C  C96  1  0.03254284  0.18831409  0.28014176  1  0.046949  0.001457  -0.114479  -0.152555  0.000745  4.045494  0.001
C  C97  1  0.03322895  0.13621162  0.22225389  1  -0.041741  0.000934  -0.096687  -0.091435  0.000137  4.043574  0.001
C  C98  1  0.01541827  0.09607551  0.08927856  1  1.492579  -0.000228  0.208499  0.573102  -0.001782  4.215136  0.002
C  C99  1  0.02126644  0.32245031  0.32320955  1  1.50503  -0.005574  0.191319  0.548568  -0.007304  4.202733  -0.006
C  C100  1  0.47039444  0.92712919  0.07827478  1  0.005314  -0.014027  0.005957  0.099008  -0.015027  3.993314  -0.008
C  C101  1  0.41973867  0.98248437  0.11816603  1  -0.01128  0.000214  -0.086775  -0.182823  -0.000759  3.964711  0.001
C  C102  1  0.29705408  0.98122539  0.11665036  1  0.467633  -0.008257  0.049408  0.100685  -0.008961  3.950502  -0.005
C  C103  1  0.26892876  0.87619155  0.03818403  1  0.480942  -0.008068  0.04823  0.104678  -0.008633  3.937149  -0.005
C  C104  1  0.39040234  0.87316238  0.03747885  1  -0.055496  0.000449  -0.086586  -0.182165  -0.000591  3.95398  0.002
C  C105  1  0.59992744  0.92521912  0.07970862  1  -0.043316  -0.017844  0.007831  0.097031  -0.018979  3.98639  -0.011
C  C106  1  0.67664579  0.96807098  0.13180500  1  0.008263  0.002061  -0.083733  -0.173266  0.000389  3.94434  0.003
C  C107  1  0.79799216  0.96484136  0.13117998  1  0.438422  -0.011888  0.050502  0.107959  -0.012731  3.940292  -0.007
C  C108  1  0.77548237  0.87883475  0.03340983  1  0.482998  -0.010496  0.051111  0.110275  -0.011277  3.947515  -0.006
C  C109  1  0.65357496  0.87945906  0.02986501  1  -0.012007  0.001438  -0.084687  -0.176424  -1e-05  3.956782  0.002
C  C110  1  0.98342215  0.34377830  0.64693303  1  -0.035919  0.008709  -0.040204  -0.174672  0.004417  3.959865  0.007
C  C111  1  0.99906321  0.26725205  0.62890335  1  0.441695  0.002254  0.104355  0.302879  0.000916  4.075969  0.001
C  C112  1  0.99488038  0.21429683  0.68856817  1  -0.091864  -0.000342  -0.103882  -0.229935  -0.000773  3.932932  0.0
C  C113  1  0.98077300  0.23584218  0.76258723  1  -0.012379  0.003585  -0.019316  0.005633  0.001886  4.018797  0.003
C  C114  1  0.96745810  0.31168779  0.78013990  1  0.047264  0.001454  -0.114528  -0.152763  0.000743  4.045468  0.001
C  C115  1  0.96677618  0.36379260  0.72225030  1  -0.042286  0.000937  -0.096701  -0.091251  0.000138  4.043531  0.001
C  C116  1  0.98457953  0.40392711  0.58927717  1  1.492445  -0.000229  0.208388  0.573051  -0.001784  4.215156  0.002
C  C117  1  0.97873636  0.17755210  0.82321226  1  1.505062  -0.005575  0.191432  0.548706  -0.007307  4.202481  -0.006
C  C118  1  0.52960925  0.57287667  0.57828000  1  0.00535  -0.014033  0.005956  0.098887  -0.015034  3.993346  -0.008
C  C119  1  0.58026776  0.51751860  0.61816791  1  -0.011258  0.000214  -0.086767  -0.182797  -0.00076  3.964752  0.001
C  C120  1  0.70294884  0.51877412  0.61664826  1  0.4676  -0.008259  0.049427  0.10068  -0.008962  3.950549  -0.005
C  C121  1  0.73107469  0.62380976  0.53818745  1  0.480145  -0.008069  0.04814  0.104419  -0.008635  3.937434  -0.005
C  C122  1  0.60960330  0.62684409  0.53748344  1  -0.055486  0.000447  -0.08654  -0.18208  -0.000592  3.954009  0.002
C  C123  1  0.40006979  0.57478214  0.57971388  1  -0.043184  -0.01785  0.007851  0.097067  -0.018986  3.986384  -0.011
C  C124  1  0.32334845  0.53192908  0.63180809  1  0.008137  0.002059  -0.083753  -0.173347  0.000388  3.944482  0.003
C  C125  1  0.20200486  0.53515928  0.63118087  1  0.438776  -0.011892  0.050489  0.107985  -0.012736  3.940339  -0.007
C  C126  1  0.22451301  0.62116597  0.53341289  1  0.483009  -0.010501  0.051062  0.110234  -0.011281  3.947506  -0.006
C  C127  1  0.34642496  0.62054569  0.52987082  1  -0.011873  0.001439  -0.084649  -0.176356  -1e-05  3.956672  0.002
N  N128  1  0.01756074  0.74308453  0.94245384  1  -1.260664  0.003593  -0.59185  -0.621065  0.001774  3.362062  0.002
N  N129  1  0.77838380  0.07082207  0.92272805  1  -1.198684  0.046016  -0.318305  -0.228094  0.024395  3.544386  0.044
N  N130  1  0.15140130  0.07826380  0.91780776  1  -1.189274  0.042708  -0.323587  -0.248082  0.022192  3.581759  0.043
N  N131  1  0.98243050  0.75690837  0.44245528  1  -1.260295  0.003596  -0.591963  -0.621106  0.001775  3.362235  0.002
N  N132  1  0.22161992  0.42917738  0.42273246  1  -1.198488  0.046019  -0.31835  -0.228041  0.024397  3.544552  0.044
N  N133  1  0.84859656  0.42173335  0.41781081  1  -1.18906  0.042705  -0.32361  -0.24805  0.022192  3.581736  0.043
N  N134  1  0.98243425  0.25691152  0.05754736  1  -1.261154  0.003597  -0.591993  -0.621261  0.001775  3.361925  0.002
N  N135  1  0.22162863  0.92918376  0.07726979  1  -1.198541  0.046019  -0.31834  -0.228153  0.024396  3.544465  0.044
N  N136  1  0.84858616  0.92174084  0.08219287  1  -1.188902  0.042696  -0.323621  -0.248143  0.022187  3.581601  0.043
N  N137  1  0.01756405  0.24308596  0.55754480  1  -1.261051  0.003594  -0.591913  -0.621049  0.001774  3.362357  0.002
N  N138  1  0.77837875  0.57081580  0.57726874  1  -1.198521  0.046016  -0.318379  -0.228105  0.024395  3.544456  0.044
N  N139  1  0.15140770  0.57825755  0.58219319  1  -1.18935  0.042698  -0.323615  -0.248115  0.022186  3.581594  0.043
O  O140  1  0.93622800  0.96247725  0.89485660  1  -1.161301  0.091759  -0.314284  -0.564441  0.048165  2.481087  0.075
O  O141  1  0.03397062  0.89443145  0.97366903  1  -1.166824  0.08695  -0.310468  -0.56148  0.046056  2.514748  0.072
O  O142  1  0.96799350  0.60632429  0.69395368  1  -1.126133  0.096291  -0.322375  -0.543387  0.04963  2.20107  0.083
O  O143  1  0.98654771  0.69819070  0.60803715  1  -1.163542  0.078364  -0.32217  -0.559971  0.040148  2.189863  0.068
O  O144  1  0.06377222  0.53752660  0.39485016  1  -1.161473  0.091759  -0.314341  -0.564523  0.048165  2.48111  0.075
O  O145  1  0.96604922  0.60556319  0.47367451  1  -1.167293  0.086953  -0.310461  -0.561599  0.046062  2.515191  0.072
O  O146  1  0.03206032  0.89367123  0.19396268  1  -1.126207  0.096256  -0.322368  -0.543328  0.049611  2.200911  0.083
O  O147  1  0.01340427  0.80180243  0.10804679  1  -1.163194  0.078386  -0.322092  -0.559932  0.040157  2.189508  0.068
O  O148  1  0.06378763  0.03753777  0.10515581  1  -1.161143  0.091751  -0.314395  -0.564638  0.048164  2.48121  0.075
O  O149  1  0.96604465  0.10556119  0.02632208  1  -1.166963  0.086961  -0.310449  -0.561493  0.046058  2.51508  0.072
O  O150  1  0.03205187  0.39367242  0.30604976  1  -1.125956  0.096287  -0.322415  -0.543289  0.049629  2.201097  0.083
O  O151  1  0.01340804  0.30180701  0.39196012  1  -1.163151  0.07839  -0.32201  -0.559826  0.040159  2.189907  0.068
O  O152  1  0.93621073  0.46246713  0.60513927  1  -1.16096  0.091767  -0.314306  -0.564481  0.048172  2.481088  0.075
O  O153  1  0.03396587  0.39443920  0.52632613  1  -1.167008  0.086958  -0.310456  -0.56149  0.046054  2.5152  0.072
O  O154  1  0.96797741  0.10632661  0.80605646  1  -1.125875  0.09631  -0.32241  -0.543331  0.049639  2.201108  0.083
O  O155  1  0.98656971  0.19819416  0.89196562  1  -1.163383  0.078386  -0.32216  -0.559993  0.040157  2.189762  0.068
