# generated using pymatgen
data_AgH6C8SN5O3
_symmetry_space_group_name_H-M   'P 1'
_cell_length_a   6.14776672
_cell_length_b   7.87393410
_cell_length_c   22.62438975
_cell_angle_alpha   90.00086860
_cell_angle_beta   89.99925058
_cell_angle_gamma   89.99843850
_symmetry_Int_Tables_number   1
_chemical_formula_structural   AgH6C8SN5O3
_chemical_formula_sum   'Ag4 H24 C32 S4 N20 O12'
_cell_volume   1095.18132231
_cell_formula_units_Z   4
loop_
 _symmetry_equiv_pos_site_id
 _symmetry_equiv_pos_as_xyz
  1  'x, y, z'
loop_
 _atom_site_type_symbol
 _atom_site_label
 _atom_site_symmetry_multiplicity
 _atom_site_fract_x
 _atom_site_fract_y
 _atom_site_fract_z
 _atom_site_occupancy
 _atom_site_hle17_bader_spin_density
 _atom_site_hle17_ddec_charge
 _atom_site_hle17_ddec_spin_density
 _atom_site_hle17_ddec_sum_bond_order
 _atom_site_hle17_magmom
 _atom_site_hse06_10hf_bader_spin_density
 _atom_site_hse06_10hf_ddec_charge
 _atom_site_hse06_10hf_ddec_spin_density
 _atom_site_hse06_10hf_ddec_sum_bond_order
 _atom_site_hse06_10hf_magmom
 _atom_site_hse06_bader_spin_density
 _atom_site_hse06_ddec_charge
 _atom_site_hse06_ddec_spin_density
 _atom_site_hse06_ddec_sum_bond_order
 _atom_site_hse06_magmom
 _atom_site_pbe_bader_spin_density
 _atom_site_pbe_cm5_charge
 _atom_site_pbe_ddec_charge
 _atom_site_pbe_ddec_spin_density
 _atom_site_pbe_ddec_sum_bond_order
 _atom_site_pbe_magmom
Ag  Ag0  1  0.39119686  0.27799192  0.42904587  1  0  0.478487  0  1.52362  0  0  0.338787  0  1.986307  0  0  0.364515  0  1.942051  0  0  0.437569  0.321581  0  2.017945  0
Ag  Ag1  1  0.10879818  0.72201887  0.92904424  1  0  0.478422  0  1.523593  0  0  0.338769  0  1.986285  0  0  0.364495  0  1.942026  0  0  0.437554  0.321565  0  2.017922  0
Ag  Ag2  1  0.60880263  0.77798857  0.07095671  1  0  0.478518  0  1.523489  0  0  0.338827  0  1.986138  0  0  0.36455  0  1.941887  0  0  0.437559  0.321621  0  2.017777  0
Ag  Ag3  1  0.89120526  0.22202015  0.57095496  1  0  0.478433  0  1.523619  0  0  0.338733  0  1.986312  0  0  0.364458  0  1.942053  0  0  0.437523  0.321529  0  2.017949  0
H  H4  1  0.42690209  0.39202315  0.29628805  1  0  0.097169  0  0.940499  0  0  0.100394  0  1.008775  0  0  0.104174  0  1.003912  0  0  0.123799  0.097588  0  1.012344  0
H  H5  1  0.07311071  0.60797555  0.79628771  1  0  0.097152  0  0.940425  0  0  0.100364  0  1.008766  0  0  0.104141  0  1.003898  0  0  0.123806  0.09756  0  1.012332  0
H  H6  1  0.57310646  0.89204282  0.20371602  1  0  0.09724  0  0.940462  0  0  0.100469  0  1.008716  0  0  0.10424  0  1.003851  0  0  0.123851  0.097667  0  1.012272  0
H  H7  1  0.92688692  0.10798562  0.70371264  1  0  0.097153  0  0.94045  0  0  0.10038  0  1.008757  0  0  0.104156  0  1.00389  0  0  0.123807  0.097576  0  1.012324  0
H  H8  1  0.18737447  0.50575488  0.21357893  1  0  0.132593  0  0.980241  0  0  0.131703  0  1.05296  0  0  0.136063  0  1.051382  0  0  0.110325  0.128529  0  1.054334  0
H  H9  1  0.31264718  0.49424151  0.71358111  1  0  0.132631  0  0.980282  0  0  0.131769  0  1.052951  0  0  0.136129  0  1.051375  0  0  0.11037  0.128613  0  1.054309  0
H  H10  1  0.81264747  0.00577097  0.28642088  1  0  0.132537  0  0.980276  0  0  0.131625  0  1.053024  0  0  0.135982  0  1.051453  0  0  0.110335  0.128466  0  1.054381  0
H  H11  1  0.68735983  0.99424199  0.78641688  1  0  0.132706  0  0.980212  0  0  0.131822  0  1.052942  0  0  0.136181  0  1.051368  0  0  0.110371  0.128678  0  1.054289  0
H  H12  1  0.77917902  0.51360526  0.23276382  1  0  0.093388  0  0.961562  0  0  0.098017  0  1.026705  0  0  0.101083  0  1.023806  0  0  0.117385  0.095686  0  1.028851  0
H  H13  1  0.72083736  0.48638634  0.73276452  1  0  0.093372  0  0.961598  0  0  0.098024  0  1.026713  0  0  0.101084  0  1.02381  0  0  0.117373  0.095694  0  1.028856  0
H  H14  1  0.22083614  0.01359128  0.26723646  1  0  0.093349  0  0.961613  0  0  0.097992  0  1.026735  0  0  0.101063  0  1.023837  0  0  0.117381  0.095661  0  1.028879  0
H  H15  1  0.27917317  0.98638076  0.76723343  1  0  0.093367  0  0.961531  0  0  0.098017  0  1.026739  0  0  0.101073  0  1.023835  0  0  0.117376  0.095686  0  1.028882  0
H  H16  1  0.96766959  0.75038723  0.35946411  1  0  0.077313  0  0.924674  0  0  0.086016  0  0.986155  0  0  0.087844  0  0.98515  0  0  0.117238  0.084602  0  0.987081  0
H  H17  1  0.53232119  0.24960095  0.85946157  1  0  0.077343  0  0.924628  0  0  0.086042  0  0.986142  0  0  0.087876  0  0.985136  0  0  0.117276  0.084628  0  0.987066  0
H  H18  1  0.03229832  0.25041119  0.14053655  1  0  0.077438  0  0.924697  0  0  0.086136  0  0.986155  0  0  0.087968  0  0.985148  0  0  0.117317  0.08472  0  0.987079  0
H  H19  1  0.46767967  0.74957823  0.64054308  1  0  0.077374  0  0.924844  0  0  0.086138  0  0.986231  0  0  0.087917  0  0.985282  0  0  0.11731  0.084723  0  0.987156  0
H  H20  1  0.94429656  0.62445523  0.46354972  1  0  0.111853  0  0.980756  0  0  0.121043  0  1.044097  0  0  0.123803  0  1.044415  0  0  0.101699  0.119137  0  1.044  0
H  H21  1  0.55567946  0.37553238  0.96354909  1  0  0.111892  0  0.980838  0  0  0.12099  0  1.044231  0  0  0.123754  0  1.044537  0  0  0.1017  0.119079  0  1.044162  0
H  H22  1  0.05566921  0.12447926  0.03645028  1  0  0.111852  0  0.980878  0  0  0.120988  0  1.04426  0  0  0.123751  0  1.044569  0  0  0.101698  0.119065  0  1.044232  0
H  H23  1  0.44430564  0.87552344  0.53646374  1  0  0.111857  0  0.980875  0  0  0.121081  0  1.044157  0  0  0.123844  0  1.044466  0  0  0.101753  0.119162  0  1.044114  0
H  H24  1  0.90973375  0.82754904  0.54796895  1  0  0.08846  0  0.972179  0  0  0.090279  0  1.046852  0  0  0.094483  0  1.041346  0  0  0.114609  0.087129  0  1.050838  0
H  H25  1  0.59025573  0.17245235  0.04796799  1  0  0.088575  0  0.972439  0  0  0.09035  0  1.047124  0  0  0.094555  0  1.041616  0  0  0.114637  0.087204  0  1.051113  0
H  H26  1  0.09024489  0.32755220  0.95202860  1  0  0.088668  0  0.972337  0  0  0.090316  0  1.047222  0  0  0.094525  0  1.041707  0  0  0.114628  0.087169  0  1.051208  0
H  H27  1  0.40976531  0.67246720  0.45203668  1  0  0.088489  0  0.972357  0  0  0.090251  0  1.047085  0  0  0.094454  0  1.04157  0  0  0.114591  0.087103  0  1.051073  0
C  C28  1  0.25043448  0.40183725  0.30049359  1  0  0.205034  0  3.611485  0  0  0.173905  0  3.85814  0  0  0.184325  0  3.87199  0  0  0.078116  0.167105  0  3.848825  0
C  C29  1  0.24957974  0.59815782  0.80049434  1  0  0.205165  0  3.611566  0  0  0.174035  0  3.858339  0  0  0.184462  0  3.872181  0  0  0.078132  0.167235  0  3.849023  0
C  C30  1  0.74957535  0.90185550  0.19950832  1  0  0.204718  0  3.611751  0  0  0.173667  0  3.858371  0  0  0.184096  0  3.872212  0  0  0.077998  0.16687  0  3.849055  0
C  C31  1  0.75041498  0.09816387  0.69950287  1  0  0.205335  0  3.611297  0  0  0.17422  0  3.858003  0  0  0.184646  0  3.871849  0  0  0.078223  0.167421  0  3.848689  0
C  C32  1  0.11808887  0.46365305  0.25541918  1  0  -0.15817  0  3.661281  0  0  -0.169217  0  3.90954  0  0  -0.179904  0  3.930537  0  0  -0.073755  -0.162479  0  3.895776  0
C  C33  1  0.38192589  0.53633753  0.75542223  1  0  -0.158203  0  3.661677  0  0  -0.16926  0  3.909905  0  0  -0.179946  0  3.930894  0  0  -0.073772  -0.162531  0  3.896121  0
C  C34  1  0.88192044  0.96365898  0.24458085  1  0  -0.15782  0  3.661399  0  0  -0.168898  0  3.909668  0  0  -0.179584  0  3.930671  0  0  -0.073698  -0.162173  0  3.895891  0
C  C35  1  0.61808074  0.03634583  0.74457643  1  0  -0.158488  0  3.661305  0  0  -0.169547  0  3.909665  0  0  -0.180237  0  3.930659  0  0  -0.073865  -0.162836  0  3.895876  0
C  C36  1  0.89491046  0.46896758  0.26603202  1  0  0.175304  0  3.644089  0  0  0.146197  0  3.901678  0  0  0.154972  0  3.917023  0  0  0.067359  0.140575  0  3.891257  0
C  C37  1  0.60510596  0.53102291  0.76603337  1  0  0.175367  0  3.643973  0  0  0.146282  0  3.901533  0  0  0.155072  0  3.916859  0  0  0.067531  0.140663  0  3.891109  0
C  C38  1  0.10510843  0.96896556  0.23396715  1  0  0.175269  0  3.644039  0  0  0.146171  0  3.901646  0  0  0.154941  0  3.916991  0  0  0.06744  0.140551  0  3.891219  0
C  C39  1  0.39489435  0.03102536  0.73396481  1  0  0.175413  0  3.643728  0  0  0.146282  0  3.901392  0  0  0.15508  0  3.916707  0  0  0.067477  0.14066  0  3.890975  0
C  C40  1  0.94825306  0.36132650  0.35808584  1  0  0.350362  0  3.76414  0  0  0.336757  0  4.037207  0  0  0.350097  0  4.053953  0  0  0.248674  0.328018  0  4.025746  0
C  C41  1  0.55175893  0.63867052  0.85808706  1  0  0.350341  0  3.764284  0  0  0.336817  0  4.037264  0  0  0.350155  0  4.054014  0  0  0.248674  0.328073  0  4.025806  0
C  C42  1  0.05175005  0.86132926  0.14191365  1  0  0.350397  0  3.764056  0  0  0.336871  0  4.037009  0  0  0.350211  0  4.053753  0  0  0.248704  0.328115  0  4.025575  0
C  C43  1  0.44823601  0.13867166  0.64191213  1  0  0.350299  0  3.764401  0  0  0.336776  0  4.037364  0  0  0.350116  0  4.054112  0  0  0.248663  0.328039  0  4.025897  0
C  C44  1  0.89852232  0.09302955  0.43656114  1  0  0.347677  0  3.814194  0  0  0.328935  0  4.097369  0  0  0.345753  0  4.108962  0  0  0.240295  0.317368  0  4.09053  0
C  C45  1  0.60147777  0.90696323  0.93656494  1  0  0.347506  0  3.81405  0  0  0.328805  0  4.097309  0  0  0.345621  0  4.108901  0  0  0.240245  0.317238  0  4.090467  0
C  C46  1  0.10147220  0.59304182  0.06343338  1  0  0.347335  0  3.814677  0  0  0.328631  0  4.097801  0  0  0.345449  0  4.109399  0  0  0.240213  0.317066  0  4.090955  0
C  C47  1  0.39852251  0.40695696  0.56343745  1  0  0.34747  0  3.814368  0  0  0.328858  0  4.097263  0  0  0.345675  0  4.108866  0  0  0.240254  0.317294  0  4.090421  0
C  C48  1  0.94401317  0.82921170  0.39858056  1  0  0.206513  0  3.651798  0  0  0.172091  0  3.917983  0  0  0.183791  0  3.930766  0  0  0.070755  0.164242  0  3.909832  0
C  C49  1  0.55598387  0.17077309  0.89858414  1  0  0.206355  0  3.65281  0  0  0.171902  0  3.919037  0  0  0.183586  0  3.931832  0  0  0.070628  0.16406  0  3.910876  0
C  C50  1  0.05596177  0.32923473  0.10141346  1  0  0.206329  0  3.653147  0  0  0.171869  0  3.919264  0  0  0.183561  0  3.932054  0  0  0.070636  0.164029  0  3.9111  0
C  C51  1  0.44402460  0.67075935  0.60142495  1  0  0.206245  0  3.652357  0  0  0.17181  0  3.918503  0  0  0.183551  0  3.931281  0  0  0.070615  0.163965  0  3.910346  0
C  C52  1  0.93287238  0.76004431  0.45510611  1  0  -0.160782  0  3.678779  0  0  -0.173598  0  3.928622  0  0  -0.184458  0  3.949104  0  0  -0.083563  -0.167067  0  3.915442  0
C  C53  1  0.56710730  0.23995054  0.95509854  1  0  -0.160737  0  3.678897  0  0  -0.17339  0  3.928689  0  0  -0.184245  0  3.949175  0  0  -0.083522  -0.166869  0  3.915501  0
C  C54  1  0.06708056  0.26006085  0.04489769  1  0  -0.160797  0  3.6794  0  0  -0.173525  0  3.929138  0  0  -0.184383  0  3.949626  0  0  -0.083596  -0.167013  0  3.915944  0
C  C55  1  0.43290202  0.73993206  0.54490120  1  0  -0.16078  0  3.679143  0  0  -0.173671  0  3.929062  0  0  -0.184525  0  3.949522  0  0  -0.083633  -0.167153  0  3.915866  0
C  C56  1  0.91189909  0.87203786  0.50220208  1  0  0.190189  0  3.650361  0  0  0.156745  0  3.899827  0  0  0.16793  0  3.914341  0  0  0.062965  0.149584  0  3.889873  0
C  C57  1  0.58810397  0.12795393  0.00220797  1  0  0.190069  0  3.650269  0  0  0.156603  0  3.89978  0  0  0.167787  0  3.914295  0  0  0.063024  0.14945  0  3.889803  0
C  C58  1  0.08808776  0.37205321  0.99779040  1  0  0.19003  0  3.650495  0  0  0.156716  0  3.900017  0  0  0.167898  0  3.914537  0  0  0.063079  0.149554  0  3.890072  0
C  C59  1  0.41192187  0.62795674  0.49780177  1  0  0.190261  0  3.650662  0  0  0.156845  0  3.900169  0  0  0.168032  0  3.914705  0  0  0.063042  0.149684  0  3.890218  0
S  S60  1  0.83886777  0.31190791  0.42930373  1  0  -0.040706  0  2.566764  0  0  -0.049277  0  2.973809  0  0  -0.049277  0  2.95602  0  0  0.056413  -0.050558  0  2.988562  0
S  S61  1  0.66112942  0.68808583  0.92930616  1  0  -0.040675  0  2.566884  0  0  -0.049251  0  2.973863  0  0  -0.049253  0  2.956074  0  0  0.056447  -0.05053  0  2.988619  0
S  S62  1  0.16111753  0.81191541  0.07069284  1  0  -0.040604  0  2.566885  0  0  -0.049199  0  2.973838  0  0  -0.049202  0  2.956051  0  0  0.056435  -0.050471  0  2.988602  0
S  S63  1  0.33886707  0.18808242  0.57069242  1  0  -0.040553  0  2.566839  0  0  -0.04916  0  2.973747  0  0  -0.04916  0  2.955956  0  0  0.056475  -0.05044  0  2.988503  0
N  N64  1  0.16574478  0.35312158  0.35277613  1  0  -0.359567  0  3.232788  0  0  -0.288637  0  3.509934  0  0  -0.308571  0  3.524076  0  0  -0.325693  -0.275217  0  3.500452  0
N  N65  1  0.33426530  0.64688082  0.85277683  1  0  -0.359634  0  3.232697  0  0  -0.288789  0  3.509951  0  0  -0.308724  0  3.524093  0  0  -0.325732  -0.275368  0  3.500471  0
N  N66  1  0.83426023  0.85312941  0.14722508  1  0  -0.359527  0  3.232623  0  0  -0.288682  0  3.509772  0  0  -0.308617  0  3.523916  0  0  -0.32572  -0.275259  0  3.5003  0
N  N67  1  0.66572773  0.14689278  0.64722152  1  0  -0.359695  0  3.232792  0  0  -0.288856  0  3.510003  0  0  -0.308791  0  3.524146  0  0  -0.325755  -0.275435  0  3.500518  0
N  N68  1  0.80792570  0.41589578  0.31762768  1  0  -0.351633  0  3.019916  0  0  -0.313399  0  3.280469  0  0  -0.328213  0  3.293484  0  0  -0.299081  -0.30342  0  3.271391  0
N  N69  1  0.69208823  0.58409821  0.81762989  1  0  -0.351668  0  3.01978  0  0  -0.313471  0  3.280349  0  0  -0.328282  0  3.293352  0  0  -0.299234  -0.303492  0  3.271273  0
N  N70  1  0.19208201  0.91588839  0.18237209  1  0  -0.351647  0  3.019939  0  0  -0.313461  0  3.280511  0  0  -0.328274  0  3.293524  0  0  -0.299129  -0.303478  0  3.27144  0
N  N71  1  0.30791186  0.08410030  0.68236946  1  0  -0.351608  0  3.019836  0  0  -0.31339  0  3.280385  0  0  -0.3282  0  3.293383  0  0  -0.299153  -0.30341  0  3.271307  0
N  N72  1  0.89619420  0.04056656  0.49319767  1  0  -0.393047  0  3.285835  0  0  -0.315223  0  3.568939  0  0  -0.337021  0  3.581438  0  0  -0.340557  -0.300379  0  3.560386  0
N  N73  1  0.60380480  0.95943122  0.99319600  1  0  -0.392989  0  3.286237  0  0  -0.315206  0  3.569392  0  0  -0.337003  0  3.581892  0  0  -0.340606  -0.300362  0  3.560842  0
N  N74  1  0.10379564  0.54057506  0.00680144  1  0  -0.392897  0  3.286536  0  0  -0.315175  0  3.569626  0  0  -0.33698  0  3.582134  0  0  -0.340619  -0.300334  0  3.561074  0
N  N75  1  0.39620016  0.45943144  0.50680269  1  0  -0.393028  0  3.286041  0  0  -0.315208  0  3.569069  0  0  -0.337018  0  3.581576  0  0  -0.340576  -0.300368  0  3.560523  0
N  N76  1  0.92577460  0.99691184  0.38894055  1  0  -0.354604  0  3.053651  0  0  -0.320859  0  3.328479  0  0  -0.33723  0  3.34257  0  0  -0.308527  -0.310097  0  3.31949  0
N  N77  1  0.57422778  0.00308777  0.88893788  1  0  -0.354492  0  3.053575  0  0  -0.320766  0  3.328353  0  0  -0.337134  0  3.342451  0  0  -0.308521  -0.310006  0  3.319364  0
N  N78  1  0.07421079  0.49691839  0.11105921  1  0  -0.354504  0  3.053958  0  0  -0.320698  0  3.328666  0  0  -0.337069  0  3.342768  0  0  -0.308508  -0.309937  0  3.319667  0
N  N79  1  0.42577350  0.50306214  0.61106192  1  0  -0.354417  0  3.053775  0  0  -0.320737  0  3.328604  0  0  -0.337104  0  3.342676  0  0  -0.308507  -0.309977  0  3.319611  0
N  N80  1  0.43822350  0.93070075  0.37207714  1  0  0.689799  0  4.138995  0  0  0.726575  0  4.41909  0  0  0.755653  0  4.425515  0  0  0.087955  0.70687  0  4.41421  0
N  N81  1  0.06178241  0.06930376  0.87207487  1  0  0.713491  0  4.10633  0  0  0.726913  0  4.418941  0  0  0.755991  0  4.425367  0  0  0.08816  0.707208  0  4.414059  0
N  N82  1  0.56177883  0.43070648  0.12792227  1  0  0.689798  0  4.138851  0  0  0.726604  0  4.418895  0  0  0.755678  0  4.425327  0  0  0.087959  0.706901  0  4.414015  0
N  N83  1  0.93822633  0.56930725  0.62792264  1  0  0.690098  0  4.13875  0  0  0.72674  0  4.418999  0  0  0.755816  0  4.425427  0  0  0.088002  0.707036  0  4.414118  0
O  O84  1  0.41864026  0.97843178  0.42664452  1  0  -0.503742  0  1.831378  0  0  -0.472124  0  2.076664  0  0  -0.494396  0  2.072591  0  0  -0.223454  -0.455817  0  2.078934  0
O  O85  1  0.08136628  0.02157001  0.92664148  1  0  -0.511438  0  1.822633  0  0  -0.472139  0  2.076619  0  0  -0.4944  0  2.072537  0  0  -0.223501  -0.455838  0  2.078897  0
O  O86  1  0.58135390  0.47843218  0.07335426  1  0  -0.503773  0  1.831401  0  0  -0.472086  0  2.076537  0  0  -0.494358  0  2.072465  0  0  -0.223437  -0.45579  0  2.078811  0
O  O87  1  0.91865062  0.52157665  0.57335488  1  0  -0.503834  0  1.831331  0  0  -0.472129  0  2.076636  0  0  -0.494389  0  2.072555  0  0  -0.223405  -0.455826  0  2.078906  0
O  O88  1  0.46884936  0.04121918  0.33262482  1  0  -0.460966  0  1.783916  0  0  -0.447794  0  2.000658  0  0  -0.463438  0  1.994497  0  0  -0.183496  -0.436558  0  2.004649  0
O  O89  1  0.03115356  0.95879379  0.83262208  1  0  -0.468882  0  1.77452  0  0  -0.447921  0  2.000827  0  0  -0.463569  0  1.994674  0  0  -0.183549  -0.43668  0  2.004812  0
O  O90  1  0.53115184  0.54122293  0.16737340  1  0  -0.460982  0  1.783996  0  0  -0.447842  0  2.000777  0  0  -0.463466  0  1.994597  0  0  -0.183512  -0.436602  0  2.004759  0
O  O91  1  0.96885468  0.45878996  0.66737484  1  0  -0.461095  0  1.783899  0  0  -0.447924  0  2.000792  0  0  -0.46357  0  1.994635  0  0  -0.183548  -0.43669  0  2.004786  0
O  O92  1  0.42662390  0.77500462  0.36006582  1  0  -0.460915  0  1.710933  0  0  -0.457323  0  1.914322  0  0  -0.471983  0  1.909325  0  0  -0.197028  -0.446426  0  1.917236  0
O  O93  1  0.07338096  0.22500572  0.86006477  1  0  -0.469027  0  1.701223  0  0  -0.457472  0  1.914071  0  0  -0.472153  0  1.909112  0  0  -0.19712  -0.446572  0  1.916981  0
O  O94  1  0.57338871  0.27500554  0.13993542  1  0  -0.4609  0  1.710737  0  0  -0.457319  0  1.914104  0  0  -0.471983  0  1.90911  0  0  -0.197022  -0.44641  0  1.916991  0
O  O95  1  0.92662075  0.72500363  0.63993400  1  0  -0.460973  0  1.710779  0  0  -0.457322  0  1.914197  0  0  -0.471994  0  1.909222  0  0  -0.197031  -0.446429  0  1.917117  0
