# generated using pymatgen
data_ZnH10C17IN3O4
_symmetry_space_group_name_H-M   'P 1'
_cell_length_a   10.89771052
_cell_length_b   15.89068413
_cell_length_c   17.25549484
_cell_angle_alpha   87.34259690
_cell_angle_beta   90.37060237
_cell_angle_gamma   88.48302385
_symmetry_Int_Tables_number   1
_chemical_formula_structural   ZnH10C17IN3O4
_chemical_formula_sum   'Zn2 H20 C34 I2 N6 O8'
_cell_volume   2983.82167731
_cell_formula_units_Z   2
loop_
 _symmetry_equiv_pos_site_id
 _symmetry_equiv_pos_as_xyz
  1  'x, y, z'
loop_
 _atom_site_type_symbol
 _atom_site_label
 _atom_site_symmetry_multiplicity
 _atom_site_fract_x
 _atom_site_fract_y
 _atom_site_fract_z
 _atom_site_occupancy
 _atom_site_pbe_bader_charge
 _atom_site_pbe_bader_spin_density
 _atom_site_pbe_cm5_charge
 _atom_site_pbe_ddec_charge
 _atom_site_pbe_ddec_spin_density
 _atom_site_pbe_ddec_sum_bond_order
 _atom_site_pbe_magmom
Zn  Zn0  1  0.49671452  0.58749443  0.50265812  1  1.282447  0  0.660121  0.807789  0  2.444096  0
Zn  Zn1  1  0.50973724  0.41263965  0.49860117  1  1.282669  0  0.659869  0.807093  0  2.439868  0
H  H2  1  0.08814077  0.57963526  0.38878412  1  0.077091  0  0.097302  0.083638  0  0.993431  0
H  H3  1  0.92819131  0.44130556  0.38000888  1  0.037796  0  0.095429  0.079928  0  0.99674  0
H  H4  1  0.51690943  0.61286402  0.74942146  1  0.11208  0  0.10579  0.112883  0  0.997121  0
H  H5  1  0.44260593  0.38830155  0.25524389  1  0.115387  0  0.106274  0.11309  0  0.995713  0
H  H6  1  0.49635935  0.60675503  0.89520005  1  0.136652  0  0.104924  0.107567  0  1.025653  0
H  H7  1  0.42673588  0.39462653  0.10899099  1  0.131804  0  0.106096  0.109455  0  1.020034  0
H  H8  1  0.49083060  0.65546002  0.25148700  1  0.104464  0  0.104076  0.121746  0  1.00279  0
H  H9  1  0.46984328  0.34582462  0.74771874  1  0.106235  0  0.103638  0.120171  0  1.004264  0
H  H10  1  0.62169844  0.72888361  0.42593779  1  0.114739  0  0.133264  0.11074  0  0.963339  0
H  H11  1  0.38396206  0.27184352  0.57449635  1  0.146343  0  0.13304  0.110808  0  0.965531  0
H  H12  1  0.61760979  0.88831753  0.42560558  1  0.136878  0  0.11897  0.126388  0  1.000314  0
H  H13  1  0.91824871  0.42005858  0.61106460  1  0.079575  0  0.097471  0.084063  0  0.992981  0
H  H14  1  0.38478691  0.11246946  0.57350962  1  0.122405  0  0.119208  0.127041  0  1.000169  0
H  H15  1  0.66675628  0.12806975  0.39953937  1  0.117159  0  0.122646  0.133081  0  0.976042  0
H  H16  1  0.33459428  0.87177471  0.59885853  1  0.097737  0  0.122564  0.132249  0  0.976404  0
H  H17  1  0.65520895  0.28734686  0.40849513  1  0.120078  0  0.13434  0.109891  0  0.959442  0
H  H18  1  0.35002399  0.71236700  0.59157375  1  0.133617  0  0.133912  0.109222  0  0.961009  0
H  H19  1  0.93253724  0.64799373  0.50370353  1  0.076123  0  0.091623  0.076545  0  1.004658  0
H  H20  1  0.07387194  0.35174376  0.49609359  1  0.072131  0  0.091742  0.076954  0  1.00392  0
H  H21  1  0.07822297  0.55838614  0.61969508  1  0.044594  0  0.095502  0.079796  0  0.996732  0
C  C22  1  0.48531397  0.51664304  0.34793128  1  1.569034  0  0.212452  0.586168  0  4.181333  0
C  C23  1  0.55992659  0.76383258  0.46297330  1  0.566488  0  0.065782  0.11411  0  3.899462  0
C  C24  1  0.44512010  0.14948550  0.53619766  1  -0.006545  0  -0.068646  -0.181076  0  3.911972  0
C  C25  1  0.55771852  0.85106120  0.46302420  1  -0.056157  0  -0.067958  -0.179771  0  3.910826  0
C  C26  1  0.52622182  0.10958539  0.48581415  1  0.302565  0  0.105933  0.201619  0  4.03112  0
C  C27  1  0.47551382  0.89075873  0.51287846  1  0.344959  0  0.105559  0.199678  0  4.030653  0
C  C28  1  0.60345476  0.15856265  0.43873644  1  -0.014358  0  -0.064327  -0.181178  0  3.909861  0
C  C29  1  0.39886370  0.84149676  0.56010947  1  -0.015788  0  -0.064349  -0.17951  0  3.909427  0
C  C30  1  0.59716171  0.24579252  0.44341105  1  0.517514  0  0.069152  0.113745  0  3.901918  0
C  C31  1  0.40724928  0.75419370  0.55634186  1  0.535743  0  0.069252  0.113844  0  3.902463  0
C  C32  1  0.74201544  0.50613489  0.49586087  1  1.535632  0  0.214076  0.59792  0  4.176365  0
C  C33  1  0.50463731  0.48413433  0.65360728  1  1.583245  0  0.213773  0.589471  0  4.175867  0
C  C34  1  0.26391285  0.49333261  0.50456503  1  1.523604  0  0.213052  0.596516  0  4.176897  0
C  C35  1  0.96478809  0.58232778  0.50200968  1  -0.054424  0  -0.082575  -0.07138  0  3.658264  0
C  C36  1  0.04138981  0.41734791  0.49777749  1  -0.053349  0  -0.083168  -0.072528  0  3.659771  0
C  C37  1  0.04836603  0.54444061  0.43808148  1  -0.037153  0  -0.074901  -0.063388  0  3.634196  0
C  C38  1  0.95787773  0.45522263  0.56172600  1  -0.037835  0  -0.074721  -0.063527  0  3.633601  0
C  C39  1  0.12755692  0.49402277  0.50240357  1  0.027588  0  -0.009211  -0.026215  0  3.648457  0
C  C40  1  0.87849029  0.50562226  0.49739279  1  0.025621  0  -0.008778  -0.025793  0  3.642967  0
C  C41  1  0.04318383  0.53264634  0.56639200  1  -0.018685  0  -0.074994  -0.064235  0  3.637166  0
C  C42  1  0.96298912  0.46701798  0.43340084  1  -0.010503  0  -0.075438  -0.06535  0  3.637931  0
C  C43  1  0.47010598  0.52128599  0.26116480  1  -0.01629  0  -0.00803  -0.002245  0  3.931227  0
C  C44  1  0.45286641  0.52807093  0.09854547  1  0.418241  0  0.084645  0.139024  0  4.031093  0
C  C45  1  0.49385588  0.47978574  0.74054380  1  0.050053  0  -0.007965  -0.004671  0  3.935547  0
C  C46  1  0.45029732  0.44752689  0.22146820  1  -0.014406  0  -0.083058  -0.088098  0  3.979992  0
C  C47  1  0.50103810  0.55373380  0.78178839  1  -0.099646  0  -0.083962  -0.089066  0  3.984776  0
C  C48  1  0.44150097  0.45089113  0.14132779  1  -0.070583  0  -0.079696  -0.127673  0  3.949323  0
C  C49  1  0.48943894  0.55055554  0.86165592  1  -0.024551  0  -0.079775  -0.125499  0  3.946556  0
C  C50  1  0.46972833  0.47330774  0.90275024  1  0.481744  0  0.083534  0.136244  0  4.028211  0
C  C51  1  0.46808032  0.60223873  0.13903680  1  -0.216411  0  -0.039507  0.016725  0  3.858484  0
C  C52  1  0.46283331  0.39937251  0.86091729  1  -0.297231  0  -0.039633  0.016043  0  3.85815  0
C  C53  1  0.47712267  0.59882751  0.21968482  1  0.019175  0  -0.090418  -0.130379  0  3.962784  0
C  C54  1  0.47490225  0.40255205  0.78051369  1  -0.00483  0  -0.090702  -0.127936  0  3.963464  0
C  C55  1  0.44478046  0.23665305  0.53707189  1  0.515211  0  0.065831  0.113731  0  3.898316  0
I  I56  1  0.48444503  0.71949811  0.07827442  1  0.08884  0  0.024586  -0.084862  0  1.305018  0
I  I57  1  0.43016896  0.28268383  0.91904193  1  0.090433  0  0.024645  -0.083891  0  1.302264  0
N  N58  1  0.45036151  0.53510013  0.01709144  1  -0.501315  0  -0.14727  -0.110819  0  3.304863  0
N  N59  1  0.46435701  0.46587896  0.98409756  1  -0.551307  0  -0.145975  -0.109422  0  3.303989  0
N  N60  1  0.51938625  0.28370551  0.49167082  1  -1.215568  0  -0.308639  -0.179997  0  3.489976  0
N  N61  1  0.48624820  0.71649662  0.50873846  1  -1.25023  0  -0.30867  -0.180456  0  3.491235  0
N  N62  1  0.53792565  0.02109856  0.47881365  1  -0.462524  0  -0.129999  -0.117285  0  3.232273  0
N  N63  1  0.46296506  0.97927520  0.51956828  1  -0.486444  0  -0.130005  -0.115984  0  3.229339  0
O  O64  1  0.48925878  0.58592942  0.38191687  1  -1.162141  0  -0.318457  -0.546345  0  2.305377  0
O  O65  1  0.51092576  0.41483656  0.61951548  1  -1.161793  0  -0.318893  -0.547477  0  2.30033  0
O  O66  1  0.49369951  0.44301087  0.38024730  1  -1.172692  0  -0.318538  -0.553538  0  2.324973  0
O  O67  1  0.50550500  0.55774663  0.62112959  1  -1.167933  0  -0.318979  -0.554645  0  2.325283  0
O  O68  1  0.68452810  0.57691904  0.49725900  1  -1.171344  0  -0.32035  -0.550444  0  2.315084  0
O  O69  1  0.32119531  0.42240725  0.50407938  1  -1.161167  0  -0.320584  -0.551039  0  2.312813  0
O  O70  1  0.69317940  0.43402231  0.49392055  1  -1.166066  0  -0.325953  -0.559591  0  2.313385  0
O  O71  1  0.31278507  0.56543766  0.50624434  1  -1.164427  0  -0.325948  -0.559659  0  2.313903  0
