# generated using pymatgen
data_Ag2GeH14(C3O4)4
_symmetry_space_group_name_H-M   'P 1'
_cell_length_a   6.24817746
_cell_length_b   8.04325523
_cell_length_c   9.36316291
_cell_angle_alpha   107.00111953
_cell_angle_beta   77.88103828
_cell_angle_gamma   94.61309769
_symmetry_Int_Tables_number   1
_chemical_formula_structural   Ag2GeH14(C3O4)4
_chemical_formula_sum   'Ag2 Ge1 H14 C12 O16'
_cell_volume   439.86881441
_cell_formula_units_Z   1
loop_
 _symmetry_equiv_pos_site_id
 _symmetry_equiv_pos_as_xyz
  1  'x, y, z'
loop_
 _atom_site_type_symbol
 _atom_site_label
 _atom_site_symmetry_multiplicity
 _atom_site_fract_x
 _atom_site_fract_y
 _atom_site_fract_z
 _atom_site_occupancy
 _atom_site_hle17_bader_spin_density
 _atom_site_hle17_ddec_charge
 _atom_site_hle17_ddec_spin_density
 _atom_site_hle17_ddec_sum_bond_order
 _atom_site_hle17_magmom
 _atom_site_hse06_10hf_bader_spin_density
 _atom_site_hse06_10hf_ddec_charge
 _atom_site_hse06_10hf_ddec_spin_density
 _atom_site_hse06_10hf_ddec_sum_bond_order
 _atom_site_hse06_10hf_magmom
 _atom_site_hse06_bader_spin_density
 _atom_site_hse06_ddec_charge
 _atom_site_hse06_ddec_spin_density
 _atom_site_hse06_ddec_sum_bond_order
 _atom_site_hse06_magmom
 _atom_site_pbe_bader_spin_density
 _atom_site_pbe_cm5_charge
 _atom_site_pbe_ddec_charge
 _atom_site_pbe_ddec_spin_density
 _atom_site_pbe_ddec_sum_bond_order
 _atom_site_pbe_magmom
Ag  Ag0  1  0.28619005  0.08999292  0.53143522  1  0  0.664562  0  1.215263  0  0  0.540622  0  1.645739  0  0  0.577833  0  1.586833  0  0  0.434751  0.513548  0  1.687144  0
Ag  Ag1  1  0.71379448  0.91001716  0.46857464  1  0  0.664622  0  1.215306  0  0  0.540681  0  1.645779  0  0  0.577887  0  1.586876  0  0  0.434788  0.513606  0  1.687184  0
Ge  Ge2  1  0.49999675  0.49999900  0.50000647  1  0  1.709265  0  3.045929  0  0  1.529404  0  3.505024  0  0  1.597308  0  3.455378  0  0  0.582256  1.482043  0  3.539201  0
H  H3  1  0.26593131  0.79943904  0.02930269  1  0  0.414796  0  0.877222  0  0  0.381122  0  0.957689  0  0  0.39375  0  0.941558  0  0  0.311658  0.372272  0  0.967141  0
H  H4  1  0.73407195  0.20056397  0.97069813  1  0  0.414799  0  0.877234  0  0  0.38113  0  0.957707  0  0  0.393781  0  0.941514  0  0  0.311681  0.372281  0  0.967158  0
H  H5  1  0.11815689  0.16047432  0.83778623  1  0  0.407041  0  0.893408  0  0  0.378855  0  0.95394  0  0  0.388396  0  0.940102  0  0  0.290109  0.372095  0  0.963716  0
H  H6  1  0.88181226  0.83951668  0.16222386  1  0  0.406905  0  0.893414  0  0  0.378772  0  0.954026  0  0  0.388302  0  0.940203  0  0  0.290048  0.372006  0  0.963815  0
H  H7  1  0.36942851  0.12996599  0.81916964  1  0  0.420466  0  0.880581  0  0  0.390526  0  0.943786  0  0  0.400819  0  0.928764  0  0  0.288981  0.383234  0  0.95437  0
H  H8  1  0.63055154  0.87004437  0.18082429  1  0  0.420468  0  0.880561  0  0  0.390547  0  0.943751  0  0  0.400825  0  0.928743  0  0  0.288977  0.383259  0  0.954326  0
H  H9  1  0.20118456  0.54620919  0.16399926  1  0  0.154538  0  0.899516  0  0  0.169644  0  0.950139  0  0  0.173269  0  0.948279  0  0  0.119313  0.166714  0  0.95204  0
H  H10  1  0.79881908  0.45379252  0.83599905  1  0  0.154607  0  0.899474  0  0  0.16972  0  0.95009  0  0  0.173352  0  0.948215  0  0  0.119355  0.166788  0  0.951994  0
H  H11  1  0.98718000  0.52184025  0.31254803  1  0  0.161302  0  0.943289  0  0  0.168658  0  1.008225  0  0  0.173186  0  1.005087  0  0  0.116001  0.165304  0  1.010736  0
H  H12  1  0.01281822  0.47815648  0.68744279  1  0  0.161406  0  0.943263  0  0  0.168744  0  1.008214  0  0  0.173273  0  1.005076  0  0  0.116038  0.165388  0  1.010725  0
H  H13  1  0.98912347  0.19349143  0.27875010  1  0  0.14917  0  0.897138  0  0  0.161578  0  0.955837  0  0  0.164845  0  0.953686  0  0  0.118863  0.159324  0  0.95735  0
H  H14  1  0.01088090  0.80651028  0.72124494  1  0  0.149223  0  0.897174  0  0  0.161618  0  0.955876  0  0  0.164886  0  0.95372  0  0  0.118898  0.159349  0  0.957408  0
H  H15  1  0.10390135  0.22543740  0.10124020  1  0  0.145253  0  0.918704  0  0  0.156257  0  0.978349  0  0  0.159694  0  0.976282  0  0  0.117681  0.153876  0  0.979782  0
H  H16  1  0.89611389  0.77456135  0.89875472  1  0  0.145292  0  0.918771  0  0  0.15632  0  0.978366  0  0  0.159756  0  0.976301  0  0  0.117697  0.15394  0  0.979796  0
C  C17  1  0.27144534  0.36689684  0.28272616  1  0  0.246888  0  3.643537  0  0  0.2435  0  3.885537  0  0  0.247928  0  3.899174  0  0  0.071552  0.240169  0  3.876361  0
C  C18  1  0.72855897  0.63310098  0.71726683  1  0  0.246702  0  3.643829  0  0  0.243322  0  3.885658  0  0  0.247743  0  3.899296  0  0  0.071511  0.240064  0  3.876353  0
C  C19  1  0.51322689  0.37053198  0.19984078  1  0  0.614733  0  3.782685  0  0  0.557489  0  4.09039  0  0  0.590877  0  4.082086  0  0  0.237746  0.534633  0  4.095593  0
C  C20  1  0.48678126  0.62946827  0.80015806  1  0  0.614586  0  3.783123  0  0  0.557458  0  4.090632  0  0  0.590852  0  4.082327  0  0  0.237651  0.534599  0  4.095799  0
C  C21  1  0.16583596  0.53294282  0.28057303  1  0  -0.371258  0  3.596694  0  0  -0.410747  0  3.832411  0  0  -0.419534  0  3.837523  0  0  -0.159922  -0.404477  0  3.829338  0
C  C22  1  0.83417076  0.46705359  0.71942275  1  0  -0.371379  0  3.59689  0  0  -0.410921  0  3.83264  0  0  -0.419703  0  3.837743  0  0  -0.159993  -0.404662  0  3.829535  0
C  C23  1  0.23712050  0.70089857  0.38333093  1  0  0.756873  0  3.720714  0  0  0.702312  0  4.013796  0  0  0.739403  0  4.005194  0  0  0.23564  0.676546  0  4.01918  0
C  C24  1  0.76286571  0.29912327  0.61667100  1  0  0.756945  0  3.720127  0  0  0.702448  0  4.01311  0  0  0.739547  0  4.004503  0  0  0.23571  0.676675  0  4.018507  0
C  C25  1  0.14646391  0.20733640  0.20353551  1  0  -0.339191  0  3.618753  0  0  -0.384478  0  3.86427  0  0  -0.391434  0  3.869874  0  0  -0.155937  -0.37938  0  3.859577  0
C  C26  1  0.85354718  0.79265984  0.79646220  1  0  -0.339305  0  3.618702  0  0  -0.384529  0  3.864262  0  0  -0.391472  0  3.86986  0  0  -0.156034  -0.379447  0  3.859551  0
C  C27  1  0.26980553  0.04037999  0.15625220  1  0  0.736543  0  3.720518  0  0  0.680947  0  4.030139  0  0  0.714325  0  4.021159  0  0  0.240536  0.658448  0  4.035051  0
C  C28  1  0.73019174  0.95961674  0.84374299  1  0  0.736652  0  3.720369  0  0  0.680773  0  4.030372  0  0  0.714174  0  4.021392  0  0  0.240476  0.658296  0  4.035256  0
O  O29  1  0.26520884  0.36614073  0.43633359  1  0  -0.654583  0  2.015478  0  0  -0.582282  0  2.276289  0  0  -0.608203  0  2.270429  0  0  -0.294718  -0.563939  0  2.279944  0
O  O30  1  0.73479684  0.63385703  0.56366041  1  0  -0.654455  0  2.015423  0  0  -0.582159  0  2.276278  0  0  -0.608073  0  2.270412  0  0  -0.294633  -0.563828  0  2.27989  0
O  O31  1  0.65253232  0.42628102  0.29027597  1  0  -0.576901  0  2.090523  0  0  -0.507308  0  2.332587  0  0  -0.535255  0  2.324268  0  0  -0.230203  -0.487887  0  2.337941  0
O  O32  1  0.34746552  0.57371559  0.70973103  1  0  -0.57675  0  2.090683  0  0  -0.507263  0  2.332723  0  0  -0.53523  0  2.324427  0  0  -0.230119  -0.487849  0  2.338074  0
O  O33  1  0.56323448  0.33257530  0.05854611  1  0  -0.546427  0  2.023899  0  0  -0.501865  0  2.253411  0  0  -0.523967  0  2.243007  0  0  -0.290691  -0.486507  0  2.260017  0
O  O34  1  0.43678667  0.66743492  0.94145790  1  0  -0.546431  0  2.023989  0  0  -0.501799  0  2.253305  0  0  -0.523897  0  2.242917  0  0  -0.290585  -0.486458  0  2.259931  0
O  O35  1  0.38487673  0.70410187  0.46451265  1  0  -0.681536  0  2.194592  0  0  -0.59871  0  2.462849  0  0  -0.631143  0  2.450492  0  0  -0.25496  -0.575954  0  2.470727  0
O  O36  1  0.61511499  0.29589624  0.53549392  1  0  -0.681434  0  2.19478  0  0  -0.598657  0  2.463064  0  0  -0.631084  0  2.4507  0  0  -0.254918  -0.575909  0  2.470962  0
O  O37  1  0.15353397  0.83942083  0.38794619  1  0  -0.603888  0  2.090656  0  0  -0.534051  0  2.373049  0  0  -0.565886  0  2.360568  0  0  -0.302097  -0.512075  0  2.381212  0
O  O38  1  0.84648106  0.16055707  0.61204461  1  0  -0.604124  0  2.089895  0  0  -0.534212  0  2.372118  0  0  -0.566058  0  2.359626  0  0  -0.302227  -0.512227  0  2.380279  0
O  O39  1  0.45268508  0.03162047  0.18332218  1  0  -0.575374  0  2.013264  0  0  -0.526085  0  2.247347  0  0  -0.548867  0  2.237156  0  0  -0.27134  -0.510254  0  2.25349  0
O  O40  1  0.54731366  0.96837607  0.81668801  1  0  -0.575347  0  2.013287  0  0  -0.5259  0  2.247434  0  0  -0.548688  0  2.237244  0  0  -0.271278  -0.510079  0  2.253576  0
O  O41  1  0.16321964  0.90468705  0.07914480  1  0  -0.57526  0  2.117367  0  0  -0.510284  0  2.33406  0  0  -0.53471  0  2.317894  0  0  -0.322429  -0.493364  0  2.343347  0
O  O42  1  0.83677893  0.09531098  0.92084526  1  0  -0.575402  0  2.117553  0  0  -0.510278  0  2.334221  0  0  -0.5348  0  2.318097  0  0  -0.322425  -0.493365  0  2.343496  0
O  O43  1  0.26449417  0.19687481  0.79301912  1  0  -0.802344  0  1.887563  0  0  -0.740487  0  2.080167  0  0  -0.764038  0  2.047325  0  0  -0.591736  -0.723427  0  2.102921  0
O  O44  1  0.73548355  0.80313418  0.20699184  1  0  -0.802251  0  1.88755  0  0  -0.740433  0  2.080026  0  0  -0.76397  0  2.047245  0  0  -0.591672  -0.723369  0  2.102783  0
