# generated using pymatgen
data_H15Pb4C19NO11
_symmetry_space_group_name_H-M   'P 1'
_cell_length_a   10.74894053
_cell_length_b   12.19764937
_cell_length_c   22.17614424
_cell_angle_alpha   90.00013192
_cell_angle_beta   90.00027975
_cell_angle_gamma   89.99998148
_symmetry_Int_Tables_number   1
_chemical_formula_structural   H15Pb4C19NO11
_chemical_formula_sum   'H60 Pb16 C76 N4 O44'
_cell_volume   2907.55435744
_cell_formula_units_Z   4
loop_
 _symmetry_equiv_pos_site_id
 _symmetry_equiv_pos_as_xyz
  1  'x, y, z'
loop_
 _atom_site_type_symbol
 _atom_site_label
 _atom_site_symmetry_multiplicity
 _atom_site_fract_x
 _atom_site_fract_y
 _atom_site_fract_z
 _atom_site_occupancy
 _atom_site_pbe_bader_charge
 _atom_site_pbe_bader_spin_density
 _atom_site_pbe_cm5_charge
 _atom_site_pbe_ddec_charge
 _atom_site_pbe_ddec_spin_density
 _atom_site_pbe_ddec_sum_bond_order
 _atom_site_pbe_magmom
H  H0  1  0.42325016  0.82221081  0.78102633  1  0.064902  0  0.105952  0.108792  0  1.009433  0
H  H1  1  0.07674755  0.17778647  0.28102426  1  0.064918  0  0.105965  0.108824  0  1.009447  0
H  H2  1  0.92324732  0.67778829  0.21897511  1  0.064929  0  0.105961  0.108792  0  1.009463  0
H  H3  1  0.57675250  0.32221760  0.71897484  1  0.065014  0  0.105981  0.108861  0  1.009316  0
H  H4  1  0.46662511  0.93498398  0.68841613  1  0.080945  0  0.10532  0.107401  0  1.003527  0
H  H5  1  0.03337260  0.06501455  0.18841381  1  0.080847  0  0.105328  0.107517  0  1.003606  0
H  H6  1  0.96662883  0.56501511  0.31158452  1  0.080869  0  0.105342  0.107517  0  1.003588  0
H  H7  1  0.53337472  0.43499117  0.81158338  1  0.080941  0  0.105332  0.107448  0  1.003522  0
H  H8  1  0.18647325  0.16573509  0.74204862  1  0.082336  0  0.102503  0.100087  0  1.027012  0
H  H9  1  0.31352778  0.83426448  0.24204343  1  0.082242  0  0.102461  0.100048  0  1.027031  0
H  H10  1  0.68647355  0.33426484  0.25795615  1  0.081972  0  0.102466  0.100072  0  1.027045  0
H  H11  1  0.81353318  0.66573793  0.75795551  1  0.082165  0  0.102445  0.100028  0  1.02708  0
H  H12  1  0.13316242  0.04697470  0.83113656  1  0.100813  0  0.104925  0.111206  0  0.999005  0
H  H13  1  0.36683951  0.95302443  0.33113344  1  0.100855  0  0.104975  0.111294  0  0.998965  0
H  H14  1  0.63315806  0.45302361  0.16886718  1  0.100934  0  0.104977  0.11128  0  0.998941  0
H  H15  1  0.86684499  0.54697715  0.66886652  1  0.100873  0  0.104945  0.111228  0  0.99898  0
H  H16  1  0.73238075  0.21351582  0.87769731  1  0.093879  0  0.104255  0.107442  0  1.006642  0
H  H17  1  0.76761602  0.78647188  0.37769826  1  0.093927  0  0.104286  0.107465  0  1.006715  0
H  H18  1  0.23238254  0.28647919  0.12229899  1  0.093906  0  0.104284  0.107468  0  1.006712  0
H  H19  1  0.26761543  0.71352071  0.62230056  1  0.093952  0  0.104282  0.107456  0  1.006689  0
H  H20  1  0.78684939  0.41263698  0.88716398  1  0.05779  0  0.099322  0.09732  0  1.042749  0
H  H21  1  0.71314190  0.58735158  0.38716681  1  0.057804  0  0.099297  0.097292  0  1.042843  0
H  H22  1  0.28685580  0.08735965  0.11283065  1  0.05784  0  0.099334  0.097331  0  1.042934  0
H  H23  1  0.21314300  0.91264103  0.61283370  1  0.057875  0  0.099328  0.097325  0  1.042909  0
H  H24  1  0.10469528  0.32805216  0.99530591  1  0.111353  0  0.103215  0.109495  0  1.011295  0
H  H25  1  0.39529343  0.67194766  0.49530115  1  0.111216  0  0.103214  0.109455  0  1.011315  0
H  H26  1  0.60470889  0.17195272  0.00469551  1  0.111203  0  0.103196  0.109461  0  1.011278  0
H  H27  1  0.89529714  0.82804899  0.50469392  1  0.111224  0  0.103203  0.109452  0  1.011253  0
H  H28  1  0.04838739  0.12929664  0.98661980  1  0.070367  0  0.096904  0.077643  0  1.069954  0
H  H29  1  0.45160774  0.87070232  0.48661814  1  0.070148  0  0.09691  0.07764  0  1.069967  0
H  H30  1  0.54839079  0.37070826  0.01338148  1  0.070319  0  0.0969  0.077629  0  1.069924  0
H  H31  1  0.95161161  0.62929349  0.51337796  1  0.070304  0  0.096911  0.077697  0  1.069945  0
H  H32  1  0.00773042  0.50853003  0.82695112  1  0.0874  0  0.113059  0.037637  0  1.013552  0
H  H33  1  0.49227240  0.49146498  0.32694817  1  0.087437  0  0.113042  0.037647  0  1.013522  0
H  H34  1  0.50772701  0.99146591  0.17304890  1  0.087408  0  0.113029  0.037608  0  1.013567  0
H  H35  1  0.99227607  0.00854307  0.67305326  1  0.087244  0  0.113037  0.037678  0  1.013562  0
H  H36  1  0.20303578  0.35400825  0.74207040  1  0.085587  0  0.105103  0.122938  0  1.004102  0
H  H37  1  0.29696153  0.64599132  0.24207530  1  0.085545  0  0.105114  0.122994  0  1.004156  0
H  H38  1  0.70303242  0.14599496  0.25792538  1  0.085521  0  0.105069  0.122908  0  1.004134  0
H  H39  1  0.79695942  0.85401273  0.75792089  1  0.085565  0  0.105069  0.122938  0  1.004172  0
H  H40  1  0.09857129  0.42933826  0.69593562  1  0.062175  0  0.101202  0.107762  0  1.034606  0
H  H41  1  0.40142370  0.57067014  0.19593661  1  0.061892  0  0.101221  0.107825  0  1.03452  0
H  H42  1  0.59857214  0.07066908  0.30406308  1  0.061869  0  0.101245  0.107804  0  1.034531  0
H  H43  1  0.90141924  0.92932897  0.80406163  1  0.061961  0  0.101197  0.107797  0  1.034563  0
H  H44  1  0.04587251  0.37582319  0.76668497  1  0.076616  0  0.108648  0.121967  0  0.992548  0
H  H45  1  0.45412692  0.62417813  0.26668841  1  0.076559  0  0.108677  0.122016  0  0.992562  0
H  H46  1  0.54586891  0.12417679  0.23331270  1  0.076514  0  0.108647  0.121958  0  0.992548  0
H  H47  1  0.95412548  0.87582506  0.73331041  1  0.076792  0  0.108681  0.122014  0  0.992575  0
H  H48  1  0.28847224  0.64247701  0.77761654  1  0.101662  0  0.107403  0.125424  0  1.019119  0
H  H49  1  0.21152730  0.35751779  0.27761411  1  0.101644  0  0.107384  0.125423  0  1.019106  0
H  H50  1  0.78847030  0.85751967  0.22238594  1  0.101685  0  0.107403  0.125453  0  1.019038  0
H  H51  1  0.71152583  0.14248378  0.72238575  1  0.101592  0  0.107405  0.125477  0  1.019084  0
H  H52  1  0.26599896  0.58502644  0.70327488  1  0.119756  0  0.103603  0.129287  0  1.020156  0
H  H53  1  0.23399983  0.41497625  0.20327213  1  0.119691  0  0.103633  0.129329  0  1.02013  0
H  H54  1  0.76599869  0.91497926  0.29672755  1  0.119712  0  0.103638  0.129348  0  1.020095  0
H  H55  1  0.73399541  0.08502696  0.79672689  1  0.119696  0  0.103638  0.129367  0  1.0201  0
H  H56  1  0.35540155  0.51265604  0.75768972  1  0.023637  0  0.10077  0.112067  0  1.010026  0
H  H57  1  0.14459872  0.48734196  0.25768910  1  0.023674  0  0.100771  0.112082  0  1.010086  0
H  H58  1  0.85539977  0.98734390  0.24230977  1  0.023665  0  0.100778  0.112107  0  1.010027  0
H  H59  1  0.64459657  0.01266045  0.74230835  1  0.023645  0  0.100776  0.112119  0  1.010041  0
Pb  Pb60  1  0.15816710  0.90192132  0.00993666  1  1.341915  0  0.570866  1.015288  0  2.148748  0
Pb  Pb61  1  0.34183624  0.09807975  0.50993672  1  1.341878  0  0.570866  1.015225  0  2.148771  0
Pb  Pb62  1  0.65816743  0.59808196  0.99006326  1  1.341754  0  0.570872  1.015279  0  2.148756  0
Pb  Pb63  1  0.84183420  0.40192014  0.49006435  1  1.341941  0  0.570878  1.015267  0  2.148785  0
Pb  Pb64  1  0.92536637  0.76628138  0.91422363  1  1.375623  0  0.578015  1.058819  0  2.069723  0
Pb  Pb65  1  0.57464194  0.23371384  0.41422297  1  1.375555  0  0.577968  1.058761  0  2.069738  0
Pb  Pb66  1  0.42537339  0.73372181  0.08577918  1  1.375466  0  0.578028  1.05884  0  2.06981  0
Pb  Pb67  1  0.07464654  0.26628449  0.58577477  1  1.375604  0  0.577995  1.058769  0  2.069725  0
Pb  Pb68  1  0.82299751  0.86732776  0.05441901  1  1.374146  0  0.59128  1.064725  0  2.042612  0
Pb  Pb69  1  0.67700903  0.13266924  0.55441827  1  1.374213  0  0.591272  1.064695  0  2.042619  0
Pb  Pb70  1  0.32299649  0.63267547  0.94558536  1  1.374213  0  0.591283  1.064741  0  2.042588  0
Pb  Pb71  1  0.17700381  0.36732906  0.44557745  1  1.374129  0  0.591268  1.064698  0  2.042634  0
Pb  Pb72  1  0.08167063  0.64311504  0.07396918  1  1.375133  0  0.585051  1.055089  0  2.034196  0
Pb  Pb73  1  0.41833336  0.35688383  0.57396614  1  1.37487  0  0.585031  1.055025  0  2.034177  0
Pb  Pb74  1  0.58166928  0.85688744  0.92603282  1  1.375084  0  0.585032  1.055081  0  2.034206  0
Pb  Pb75  1  0.91833356  0.14311358  0.42603241  1  1.374988  0  0.585036  1.055051  0  2.034205  0
C  C76  1  0.25195835  0.86396660  0.86758945  1  1.561887  0  0.221344  0.58397  0  4.203634  0
C  C77  1  0.24804395  0.13603104  0.36758863  1  1.56199  0  0.221338  0.583994  0  4.203502  0
C  C78  1  0.75195373  0.63603091  0.13241385  1  1.56209  0  0.221282  0.583859  0  4.203767  0
C  C79  1  0.74804615  0.36396888  0.63241223  1  1.561991  0  0.221269  0.583814  0  4.203722  0
C  C80  1  0.27564691  0.92838299  0.81138994  1  -0.017586  0  -0.015935  -0.034499  0  3.976532  0
C  C81  1  0.22434832  0.07161524  0.31138853  1  -0.01751  0  -0.015971  -0.034662  0  3.9765  0
C  C82  1  0.77564567  0.57161697  0.18861297  1  -0.017553  0  -0.015919  -0.034721  0  3.976609  0
C  C83  1  0.72435478  0.42838305  0.68861317  1  -0.017466  0  -0.015918  -0.034664  0  3.976571  0
C  C84  1  0.37013509  0.89637427  0.77145973  1  -0.086239  0  -0.083396  -0.102096  0  3.986114  0
C  C85  1  0.12986066  0.10362461  0.27145769  1  -0.086155  0  -0.08341  -0.102082  0  3.986183  0
C  C86  1  0.87013517  0.60362649  0.22854159  1  -0.086185  0  -0.083354  -0.101917  0  3.986088  0
C  C87  1  0.62986568  0.39637780  0.72854198  1  -0.086172  0  -0.083417  -0.102117  0  3.986245  0
C  C88  1  0.39556803  0.95955026  0.72075126  1  0.007584  0  -0.084962  -0.097825  0  3.986924  0
C  C89  1  0.10442721  0.04044840  0.22074907  1  0.007567  0  -0.084969  -0.098034  0  3.987222  0
C  C90  1  0.89557144  0.54045131  0.27925013  1  0.007557  0  -0.085023  -0.098085  0  3.987016  0
C  C91  1  0.60443365  0.45955402  0.77925054  1  0.007498  0  -0.08493  -0.097818  0  3.986943  0
C  C92  1  0.33125017  0.05798966  0.71074166  1  -0.050116  0  -0.016017  -0.024378  0  3.958998  0
C  C93  1  0.16874683  0.94201143  0.21073761  1  -0.05046  0  -0.015951  -0.02423  0  3.95902  0
C  C94  1  0.83125540  0.44201270  0.28926165  1  -0.050506  0  -0.015927  -0.024179  0  3.958861  0
C  C95  1  0.66874886  0.55799021  0.78926143  1  -0.050242  0  -0.016031  -0.024336  0  3.958972  0
C  C96  1  0.23640102  0.08953190  0.75050456  1  -0.038124  0  -0.085804  -0.1018  0  3.984693  0
C  C97  1  0.26359731  0.91046853  0.25050025  1  -0.039077  0  -0.085925  -0.101881  0  3.984638  0
C  C98  1  0.73640213  0.41046966  0.24950032  1  -0.038733  0  -0.085965  -0.101985  0  3.984662  0
C  C99  1  0.76360172  0.58953307  0.74950037  1  -0.037911  0  -0.085876  -0.10188  0  3.984606  0
C  C100  1  0.20707095  0.02404234  0.79989630  1  -0.02689  0  -0.084132  -0.092808  0  3.967223  0
C  C101  1  0.29292788  0.97595748  0.29989304  1  -0.025723  0  -0.084077  -0.092779  0  3.967173  0
C  C102  1  0.70706875  0.47595759  0.20010806  1  -0.025847  0  -0.084019  -0.092632  0  3.96713  0
C  C103  1  0.79293368  0.52404412  0.70010674  1  -0.027015  0  -0.084017  -0.092623  0  3.966947  0
C  C104  1  0.36534907  0.12817438  0.65762791  1  1.560058  0  0.211804  0.576809  0  4.212307  0
C  C105  1  0.13465484  0.87182403  0.15762505  1  1.559738  0  0.211829  0.576862  0  4.212278  0
C  C106  1  0.86535020  0.37182633  0.34237457  1  1.559297  0  0.211779  0.576804  0  4.212495  0
C  C107  1  0.63465459  0.62817680  0.84237347  1  1.560186  0  0.211684  0.576748  0  4.212244  0
C  C108  1  0.85123368  0.04029646  0.92832878  1  1.557453  0  0.210266  0.572731  0  4.22009  0
C  C109  1  0.64877104  0.95969718  0.42833102  1  1.556773  0  0.210363  0.573033  0  4.219724  0
C  C110  1  0.35123024  0.45970425  0.07167232  1  1.556872  0  0.210296  0.572656  0  4.219868  0
C  C111  1  0.14877001  0.54030118  0.57166933  1  1.556795  0  0.210278  0.572879  0  4.220078  0
C  C112  1  0.88677486  0.15938007  0.93177584  1  -0.032816  0  -0.015858  -0.023169  0  3.949232  0
C  C113  1  0.61321874  0.84061606  0.43177379  1  -0.032757  0  -0.015872  -0.023281  0  3.949271  0
C  C114  1  0.38677608  0.34062063  0.06822489  1  -0.032897  0  -0.015905  -0.023208  0  3.949318  0
C  C115  1  0.11322507  0.65938068  0.56822332  1  -0.032958  0  -0.015926  -0.023261  0  3.949535  0
C  C116  1  0.81388286  0.23942495  0.90322170  1  -0.034037  0  -0.085656  -0.095062  0  3.972581  0
C  C117  1  0.68611324  0.76056860  0.40322198  1  -0.033793  0  -0.085673  -0.095032  0  3.972724  0
C  C118  1  0.31388347  0.26057249  0.09677570  1  -0.033902  0  -0.085695  -0.095067  0  3.972824  0
C  C119  1  0.18611424  0.73942565  0.59677576  1  -0.033895  0  -0.085654  -0.095024  0  3.972719  0
C  C120  1  0.84408864  0.34999216  0.90862536  1  -0.056173  0  -0.089271  -0.109132  0  3.996745  0
C  C121  1  0.65590380  0.64999977  0.40862678  1  -0.056239  0  -0.089256  -0.109077  0  3.996907  0
C  C122  1  0.34409109  0.15000937  0.09137121  1  -0.056143  0  -0.089274  -0.109136  0  3.997138  0
C  C123  1  0.15590750  0.84999285  0.59137224  1  -0.056185  0  -0.089266  -0.109135  0  3.996879  0
C  C124  1  0.94871586  0.38212709  0.94224677  1  -0.040485  0  -0.021702  -0.046233  0  3.990828  0
C  C125  1  0.55127319  0.61786743  0.44224429  1  -0.040614  0  -0.021778  -0.046432  0  3.99099  0
C  C126  1  0.44871984  0.11786949  0.05775321  1  -0.040539  0  -0.021656  -0.046288  0  3.990929  0
C  C127  1  0.05127934  0.88212932  0.55775177  1  -0.040473  0  -0.021678  -0.046255  0  3.990888  0
C  C128  1  0.02357739  0.30203645  0.96951231  1  -0.019979  0  -0.085485  -0.089112  0  3.960791  0
C  C129  1  0.47641199  0.69795834  0.46950959  1  -0.020059  0  -0.085491  -0.089038  0  3.960656  0
C  C130  1  0.52358474  0.19796190  0.03048846  1  -0.019891  0  -0.085469  -0.089047  0  3.960616  0
C  C131  1  0.97641783  0.80203501  0.53048613  1  -0.019916  0  -0.085436  -0.088996  0  3.960657  0
C  C132  1  0.99220122  0.19183063  0.96456618  1  -0.058242  0  -0.086529  -0.092494  0  3.983018  0
C  C133  1  0.50779271  0.80816563  0.46456339  1  -0.057827  0  -0.086521  -0.092485  0  3.983009  0
C  C134  1  0.49220026  0.30817085  0.03543390  1  -0.05819  0  -0.086518  -0.09249  0  3.982973  0
C  C135  1  0.00780055  0.69182786  0.53543167  1  -0.058262  0  -0.08655  -0.092602  0  3.98318  0
C  C136  1  0.97827694  0.50117792  0.95123041  1  1.55582  0  0.214221  0.569254  0  4.22626  0
C  C137  1  0.52171407  0.49881911  0.45122996  1  1.555829  0  0.214275  0.569391  0  4.226379  0
C  C138  1  0.47828534  0.99882445  0.04876937  1  1.555789  0  0.214247  0.569328  0  4.22641  0
C  C139  1  0.02171654  0.00117596  0.54876991  1  1.555806  0  0.214225  0.569245  0  4.226399  0
C  C140  1  0.09171631  0.55780835  0.81667535  1  1.362451  0  0.165373  0.288467  0  4.155866  0
C  C141  1  0.40828734  0.44218744  0.31667304  1  1.362432  0  0.165393  0.28844  0  4.155862  0
C  C142  1  0.59171210  0.94218839  0.18332667  1  1.362436  0  0.165435  0.288482  0  4.155804  0
C  C143  1  0.90828737  0.05782145  0.68332820  1  1.362745  0  0.165376  0.288281  0  4.156099  0
C  C144  1  0.12513787  0.41243756  0.74289872  1  0.228287  0  -0.13026  -0.283616  0  3.930695  0
C  C145  1  0.37486039  0.58756530  0.24290102  1  0.228687  0  -0.130296  -0.283735  0  3.930744  0
C  C146  1  0.62513545  0.08756650  0.25709959  1  0.228709  0  -0.130272  -0.283596  0  3.930641  0
C  C147  1  0.87485732  0.91243709  0.75709761  1  0.228467  0  -0.13027  -0.28366  0  3.93073  0
C  C148  1  0.27482612  0.56707145  0.75166201  1  0.23162  0  -0.135484  -0.268306  0  3.871805  0
C  C149  1  0.22517408  0.43292653  0.25166016  1  0.231635  0  -0.135516  -0.268351  0  3.871863  0
C  C150  1  0.77482349  0.93292934  0.24833954  1  0.231659  0  -0.135541  -0.268448  0  3.871734  0
C  C151  1  0.72517198  0.06707586  0.74833884  1  0.231864  0  -0.135559  -0.268478  0  3.871828  0
N  N152  1  0.16232957  0.51311193  0.77308441  1  -1.197387  0  -0.28314  0.030544  0  3.708569  0
N  N153  1  0.33767085  0.48688613  0.27308335  1  -1.197337  0  -0.283161  0.030415  0  3.708855  0
N  N154  1  0.66232671  0.98688889  0.22691552  1  -1.197325  0  -0.283137  0.0305  0  3.708712  0
N  N155  1  0.83767041  0.01311786  0.72691636  1  -1.197556  0  -0.283175  0.030419  0  3.708848  0
O  O156  1  0.15091133  0.88063792  0.89603207  1  -1.201169  0  -0.291836  -0.586176  0  2.334236  0
O  O157  1  0.34908940  0.11935984  0.39603281  1  -1.201169  0  -0.29181  -0.586113  0  2.334092  0
O  O158  1  0.65091015  0.61936126  0.10397054  1  -1.201189  0  -0.29182  -0.586103  0  2.334331  0
O  O159  1  0.84908945  0.38064333  0.60396783  1  -1.201228  0  -0.291829  -0.586051  0  2.33411  0
O  O160  1  0.33858653  0.79928449  0.88504024  1  -1.200793  0  -0.290332  -0.59255  0  2.366384  0
O  O161  1  0.16141223  0.20071158  0.38503705  1  -1.200858  0  -0.290352  -0.592496  0  2.366321  0
O  O162  1  0.83858450  0.70070890  0.11496101  1  -1.200933  0  -0.290399  -0.592534  0  2.366304  0
O  O163  1  0.66141893  0.29928672  0.61496315  1  -1.200782  0  -0.290351  -0.592494  0  2.366375  0
O  O164  1  0.42973103  0.08264748  0.61605761  1  -1.206903  0  -0.308772  -0.606698  0  2.274909  0
O  O165  1  0.07026595  0.91734829  0.11605556  1  -1.206475  0  -0.308822  -0.606836  0  2.274981  0
O  O166  1  0.92973349  0.41735321  0.38394457  1  -1.205978  0  -0.30881  -0.606787  0  2.275086  0
O  O167  1  0.57027172  0.58265255  0.88394416  1  -1.206967  0  -0.308775  -0.606765  0  2.274958  0
O  O168  1  0.32811933  0.22744187  0.65691229  1  -1.189059  0  -0.300437  -0.585842  0  2.222136  0
O  O169  1  0.17188736  0.77255735  0.15691120  1  -1.189017  0  -0.300378  -0.585768  0  2.222122  0
O  O170  1  0.82812423  0.27255721  0.34308830  1  -1.189014  0  -0.300362  -0.585776  0  2.222186  0
O  O171  1  0.67187871  0.72744592  0.84308876  1  -1.189192  0  -0.300289  -0.585729  0  2.222014  0
O  O172  1  0.91449294  0.97348616  0.96146821  1  -1.21507  0  -0.301285  -0.620499  0  2.36394  0
O  O173  1  0.58551305  0.02650681  0.46147137  1  -1.215024  0  -0.301301  -0.620567  0  2.363788  0
O  O174  1  0.41449583  0.52651950  0.03853728  1  -1.214933  0  -0.301276  -0.620448  0  2.363872  0
O  O175  1  0.08551618  0.47348578  0.53853045  1  -1.214975  0  -0.301276  -0.620545  0  2.364036  0
O  O176  1  0.76351324  0.01099568  0.89408149  1  -1.186069  0  -0.306552  -0.585302  0  2.211737  0
O  O177  1  0.73648928  0.98899455  0.39408037  1  -1.18548  0  -0.306553  -0.585384  0  2.211478  0
O  O178  1  0.26350549  0.48899604  0.10591985  1  -1.185627  0  -0.306573  -0.585243  0  2.211553  0
O  O179  1  0.23648953  0.51100215  0.60591703  1  -1.185487  0  -0.306536  -0.585328  0  2.211642  0
O  O180  1  0.89512725  0.57006248  0.93402718  1  -1.202867  0  -0.293987  -0.586248  0  2.344919  0
O  O181  1  0.60486638  0.42993448  0.43402775  1  -1.202798  0  -0.294019  -0.58632  0  2.344906  0
O  O182  1  0.39513492  0.92994073  0.06597420  1  -1.202717  0  -0.293992  -0.586264  0  2.344829  0
O  O183  1  0.10486527  0.07006221  0.56597322  1  -1.202754  0  -0.294011  -0.586245  0  2.344887  0
O  O184  1  0.08072255  0.52671171  0.97614938  1  -1.203454  0  -0.299154  -0.598436  0  2.304432  0
O  O185  1  0.41927061  0.47328393  0.47614624  1  -1.203584  0  -0.299139  -0.598419  0  2.304562  0
O  O186  1  0.58073160  0.97328913  0.02385351  1  -1.203565  0  -0.299202  -0.598478  0  2.304534  0
O  O187  1  0.91927277  0.02671266  0.52385141  1  -1.203552  0  -0.299175  -0.598434  0  2.304466  0
O  O188  1  0.99552594  0.78091346  0.01203397  1  -1.151148  0  -0.458365  -0.829479  0  1.96915  0
O  O189  1  0.50448110  0.21908173  0.51203429  1  -1.150922  0  -0.458335  -0.829487  0  1.969209  0
O  O190  1  0.49552811  0.71908808  0.98796855  1  -1.151092  0  -0.458386  -0.829539  0  1.969274  0
O  O191  1  0.00447913  0.28091662  0.48796283  1  -1.151139  0  -0.458339  -0.829493  0  1.969224  0
O  O192  1  0.74379901  0.76936574  0.97409451  1  -1.156642  0  -0.455211  -0.832663  0  1.973721  0
O  O193  1  0.75620618  0.23063548  0.47409383  1  -1.156754  0  -0.455186  -0.83261  0  1.973685  0
O  O194  1  0.24379891  0.73063915  0.02590832  1  -1.156733  0  -0.455191  -0.832695  0  1.973753  0
O  O195  1  0.25620646  0.26936608  0.52590209  1  -1.156693  0  -0.455189  -0.832591  0  1.973656  0
O  O196  1  0.11508525  0.64511129  0.84376986  1  -1.179845  0  -0.30085  -0.507724  0  2.325256  0
O  O197  1  0.38491681  0.35488297  0.34376829  1  -1.179891  0  -0.300828  -0.507628  0  2.325121  0
O  O198  1  0.61508637  0.85488298  0.15623176  1  -1.179895  0  -0.300854  -0.507663  0  2.325104  0
O  O199  1  0.88491747  0.14512265  0.65623334  1  -1.180065  0  -0.300764  -0.507495  0  2.325162  0
