# generated using pymatgen
data_AlH8C14Cl2O5
_symmetry_space_group_name_H-M   'P 1'
_cell_length_a   6.87781774
_cell_length_b   11.15708444
_cell_length_c   15.13429915
_cell_angle_alpha   84.38930482
_cell_angle_beta   79.91142918
_cell_angle_gamma   71.29054921
_symmetry_Int_Tables_number   1
_chemical_formula_structural   AlH8C14Cl2O5
_chemical_formula_sum   'Al2 H16 C28 Cl4 O10'
_cell_volume   1081.89780956
_cell_formula_units_Z   2
loop_
 _symmetry_equiv_pos_site_id
 _symmetry_equiv_pos_as_xyz
  1  'x, y, z'
loop_
 _atom_site_type_symbol
 _atom_site_label
 _atom_site_symmetry_multiplicity
 _atom_site_fract_x
 _atom_site_fract_y
 _atom_site_fract_z
 _atom_site_occupancy
 _atom_site_pbe_bader_charge
 _atom_site_pbe_bader_spin_density
 _atom_site_pbe_cm5_charge
 _atom_site_pbe_ddec_charge
 _atom_site_pbe_ddec_spin_density
 _atom_site_pbe_ddec_sum_bond_order
 _atom_site_pbe_magmom
Al  Al0  1  0.50197295  0.50131250  0.50017503  1  2.505935  0  0.402251  1.640248  0  2.538691  0
Al  Al1  1  0.00360600  0.49891097  0.50061563  1  2.506917  0  0.403055  1.633304  0  2.552185  0
H  H2  1  0.30819352  0.35389459  0.56276545  1  0.608529  0  0.328971  0.405498  0  0.901309  0
H  H3  1  0.70446439  0.64880909  0.44277124  1  0.584577  0  0.332918  0.40771  0  0.896233  0
H  H4  1  0.84827783  0.49247662  0.95277113  1  0.053227  0  0.096917  0.097228  0  1.0318  0
H  H5  1  0.15717357  0.49730729  0.04834232  1  0.0361  0  0.097627  0.09954  0  1.028677  0
H  H6  1  0.65133212  0.50274424  0.24512571  1  0.10431  0  0.106157  0.109667  0  1.063792  0
H  H7  1  0.76391627  0.50256275  0.08113387  1  0.072835  0  0.095399  0.08773  0  1.05908  0
H  H8  1  0.34500351  0.50926159  0.75450999  1  0.102915  0  0.107372  0.111916  0  1.058732  0
H  H9  1  0.23132673  0.50927086  0.91852942  1  0.075028  0  0.095704  0.087173  0  1.059026  0
H  H10  1  0.19276857  0.23753851  0.37641774  1  0.121911  0  0.114993  0.140592  0  1.014655  0
H  H11  1  0.41691412  0.76676343  0.37969859  1  0.117485  0  0.113635  0.129919  0  1.025646  0
H  H12  1  0.03456507  0.58646341  0.80374489  1  0.054228  0  0.096938  0.136775  0  0.989992  0
H  H13  1  0.06488754  0.48755484  0.71461299  1  0.108322  0  0.101259  0.156609  0  1.035506  0
H  H14  1  0.12035403  0.41979460  0.82276702  1  0.023458  0  0.093137  0.130578  0  1.002526  0
H  H15  1  0.88304085  0.57792948  0.17960821  1  0.036655  0  0.08872  0.12514  0  1.024528  0
H  H16  1  0.93935467  0.50794097  0.28674152  1  0.08744  0  0.099437  0.153924  0  1.038667  0
H  H17  1  0.96717539  0.41094737  0.19634752  1  0.038388  0  0.096589  0.139264  0  0.983678  0
C  C18  1  0.86116767  0.27652186  0.49362902  1  1.627185  0  0.273939  0.666003  0  4.073993  0
C  C19  1  0.69781464  0.50395714  0.66038251  1  1.509902  0  0.268296  0.651917  0  4.06346  0
C  C20  1  0.14078297  0.72447226  0.50455503  1  1.64412  0  0.27386  0.668771  0  4.074861  0
C  C21  1  0.30525581  0.49716521  0.33988555  1  1.512235  0  0.267448  0.648737  0  4.063899  0
C  C22  1  0.65276285  0.50430817  0.76058751  1  0.021192  0  -0.02023  -0.115986  0  3.926167  0
C  C23  1  0.34817394  0.49832730  0.23978461  1  -0.00412  0  -0.023726  -0.124067  0  3.949471  0
C  C24  1  0.79671769  0.49996734  0.81759837  1  -0.021532  0  0.005213  0.186728  0  3.940318  0
C  C25  1  0.73231640  0.49746517  0.91065905  1  -0.048971  0  -0.092855  -0.195058  0  3.917983  0
C  C26  1  0.20617980  0.49747707  0.18324192  1  0.043148  0  0.003836  0.184842  0  3.944741  0
C  C27  1  0.27084099  0.49783842  0.09015063  1  -0.116827  0  -0.093014  -0.193958  0  3.913651  0
C  C28  1  0.54667877  0.50080781  0.19989718  1  -0.045626  0  -0.08934  -0.090746  0  4.028004  0
C  C29  1  0.60751757  0.50071966  0.10784920  1  -0.028688  0  -0.097605  -0.143662  0  4.000596  0
C  C30  1  0.45155276  0.50669098  0.80007791  1  -0.049711  0  -0.087819  -0.091273  0  4.020075  0
C  C31  1  0.39038809  0.50595808  0.89216420  1  -0.030939  0  -0.097107  -0.144703  0  4.002769  0
C  C32  1  0.53107598  0.50080318  0.95076503  1  -0.04529  0  -0.000571  0.087431  0  4.000576  0
C  C33  1  0.46955684  0.49933015  0.04963318  1  0.028791  0  -0.00092  0.087721  0  3.996045  0
C  C34  1  0.93330082  0.13451048  0.49480716  1  0.017297  0  -0.007018  -0.123719  0  3.911938  0
C  C35  1  0.11905954  0.06912718  0.43807400  1  0.051651  0  0.001849  0.077982  0  3.967369  0
C  C36  1  0.82165134  0.06719282  0.55269389  1  0.022638  0  0.015954  0.067154  0  4.030456  0
C  C37  1  0.23955923  0.13454581  0.37928427  1  0.065052  0  -0.090066  -0.180991  0  3.92204  0
C  C38  1  0.42092676  0.06974003  0.32639924  1  0.093987  0  0.010046  0.092534  0  4.062833  0
C  C39  1  0.06760821  0.86656517  0.50042602  1  0.027896  0  -0.008662  -0.127273  0  3.915822  0
C  C40  1  0.88965257  0.93224547  0.55594575  1  0.143828  0  0.015989  0.066395  0  4.046432  0
C  C41  1  0.18565222  0.93334982  0.44023924  1  -0.020432  0  0.001876  0.081477  0  3.967418  0
C  C42  1  0.36759470  0.86942090  0.38213797  1  0.044607  0  -0.093703  -0.190726  0  3.944916  0
C  C43  1  0.48562875  0.93501781  0.32776456  1  0.051063  0  0.010242  0.091224  0  4.067675  0
C  C44  1  0.01648594  0.49736108  0.78670384  1  -0.080637  0  -0.247302  -0.436672  0  3.969444  0
C  C45  1  0.98707335  0.49893061  0.21454676  1  -0.051517  0  -0.251095  -0.441876  0  3.975416  0
Cl  Cl46  1  0.75491129  0.85237475  0.63281567  1  -0.152298  0  0.020497  -0.026579  0  1.575058  0
Cl  Cl47  1  0.60655621  0.14410255  0.62678954  1  -0.169446  0  0.022301  -0.038698  0  1.581776  0
Cl  Cl48  1  0.56647477  0.15318394  0.25903729  1  -0.185045  0  0.003842  -0.054764  0  1.517692  0
Cl  Cl49  1  0.71185188  0.85194436  0.26248068  1  -0.189745  0  0.00395  -0.05495  0  1.504907  0
O  O50  1  0.67777182  0.33200961  0.47760233  1  -1.253335  0  -0.228469  -0.582559  0  2.352038  0
O  O51  1  0.86674057  0.52192253  0.62066213  1  -1.269705  0  -0.236951  -0.597444  0  2.402194  0
O  O52  1  0.01478343  0.66962906  0.48961194  1  -1.253213  0  -0.227089  -0.590103  0  2.368667  0
O  O53  1  0.43671757  0.52215359  0.37959239  1  -1.268849  0  -0.241564  -0.603721  0  2.355563  0
O  O54  1  0.32550371  0.67163012  0.52042789  1  -1.252394  0  -0.227452  -0.575286  0  2.323047  0
O  O55  1  0.14218068  0.47214800  0.38021750  1  -1.275698  0  -0.236822  -0.592459  0  2.386893  0
O  O56  1  0.99084142  0.32856069  0.50907605  1  -1.252342  0  -0.225343  -0.578052  0  2.332645  0
O  O57  1  0.56216570  0.48423443  0.62051022  1  -1.265861  0  -0.241292  -0.6097  0  2.371675  0
O  O58  1  0.26851211  0.44188436  0.54088074  1  -1.417677  0  -0.451844  -0.973582  0  2.130583  0
O  O59  1  0.73840669  0.55896572  0.45932609  1  -1.39295  0  -0.452357  -0.97313  0  2.119427  0
