# generated using pymatgen
data_BaH12C10(N3O8)2
_symmetry_space_group_name_H-M   'P 1'
_cell_length_a   6.48645269
_cell_length_b   12.19923219
_cell_length_c   13.48754400
_cell_angle_alpha   86.33829921
_cell_angle_beta   76.10230609
_cell_angle_gamma   74.58715543
_symmetry_Int_Tables_number   1
_chemical_formula_structural   BaH12C10(N3O8)2
_chemical_formula_sum   'Ba2 H24 C20 N12 O32'
_cell_volume   998.76321448
_cell_formula_units_Z   2
loop_
 _symmetry_equiv_pos_site_id
 _symmetry_equiv_pos_as_xyz
  1  'x, y, z'
loop_
 _atom_site_type_symbol
 _atom_site_label
 _atom_site_symmetry_multiplicity
 _atom_site_fract_x
 _atom_site_fract_y
 _atom_site_fract_z
 _atom_site_occupancy
 _atom_site_hle17_bader_spin_density
 _atom_site_hle17_ddec_charge
 _atom_site_hle17_ddec_spin_density
 _atom_site_hle17_ddec_sum_bond_order
 _atom_site_hle17_magmom
 _atom_site_hse06_10hf_bader_spin_density
 _atom_site_hse06_10hf_ddec_charge
 _atom_site_hse06_10hf_ddec_spin_density
 _atom_site_hse06_10hf_ddec_sum_bond_order
 _atom_site_hse06_10hf_magmom
 _atom_site_hse06_bader_spin_density
 _atom_site_hse06_ddec_charge
 _atom_site_hse06_ddec_spin_density
 _atom_site_hse06_ddec_sum_bond_order
 _atom_site_hse06_magmom
 _atom_site_pbe_bader_spin_density
 _atom_site_pbe_cm5_charge
 _atom_site_pbe_ddec_charge
 _atom_site_pbe_ddec_spin_density
 _atom_site_pbe_ddec_sum_bond_order
 _atom_site_pbe_magmom
Ba  Ba0  1  0.67404531  0.50009895  0.49980806  1  0  1.604056  0  1.157645  0  0  1.445445  0  1.571382  0  0  1.484102  0  1.525439  0  0  0.899084  1.41713  0  1.603909  0
Ba  Ba1  1  0.92376177  0.00007314  0.00022231  1  0  1.604129  0  1.157622  0  0  1.445642  0  1.571486  0  0  1.484264  0  1.525554  0  0  0.899547  1.417319  0  1.604002  0
H  H2  1  0.67594756  0.21033482  0.52048663  1  0  0.437126  0  0.859569  0  0  0.406238  0  0.923857  0  0  0.416865  0  0.908289  0  0  0.294331  0.398738  0  0.934833  0
H  H3  1  0.40585861  0.78954149  0.47918473  1  0  0.437535  0  0.858892  0  0  0.406835  0  0.922863  0  0  0.41744  0  0.907328  0  0  0.294712  0.399363  0  0.933796  0
H  H4  1  0.94703730  0.71025554  0.97938333  1  0  0.437029  0  0.859798  0  0  0.406548  0  0.923293  0  0  0.417167  0  0.90774  0  0  0.294762  0.399045  0  0.934273  0
H  H5  1  0.63585701  0.28969437  0.02085738  1  0  0.437453  0  0.85911  0  0  0.406859  0  0.922871  0  0  0.417467  0  0.907332  0  0  0.294865  0.399366  0  0.933842  0
H  H6  1  0.61223298  0.26205045  0.62905892  1  0  0.428237  0  0.828715  0  0  0.411946  0  0.882219  0  0  0.419193  0  0.872226  0  0  0.319656  0.406866  0  0.888072  0
H  H7  1  0.50175654  0.73822200  0.37047755  1  0  0.429191  0  0.827882  0  0  0.412671  0  0.881732  0  0  0.419933  0  0.871369  0  0  0.320163  0.407559  0  0.887678  0
H  H8  1  0.99092047  0.76203032  0.87080359  1  0  0.428199  0  0.82903  0  0  0.411787  0  0.882844  0  0  0.41904  0  0.87256  0  0  0.319616  0.4067  0  0.888722  0
H  H9  1  0.62242417  0.23824001  0.12955104  1  0  0.428851  0  0.828696  0  0  0.412414  0  0.882494  0  0  0.419684  0  0.871815  0  0  0.319701  0.407297  0  0.888433  0
H  H10  1  0.15226058  0.58220392  0.55992503  1  0  0.406401  0  0.907242  0  0  0.377169  0  0.970401  0  0  0.388446  0  0.954076  0  0  0.291321  0.369195  0  0.98193  0
H  H11  1  0.29449270  0.41759739  0.43998856  1  0  0.406459  0  0.907139  0  0  0.376616  0  0.971153  0  0  0.387898  0  0.954824  0  0  0.291169  0.368643  0  0.982676  0
H  H12  1  0.46218612  0.08220528  0.93998092  1  0  0.406976  0  0.906356  0  0  0.377668  0  0.969704  0  0  0.388927  0  0.953406  0  0  0.291512  0.369677  0  0.981262  0
H  H13  1  0.48417612  0.91775719  0.06024946  1  0  0.405099  0  0.908512  0  0  0.375904  0  0.971682  0  0  0.387179  0  0.955367  0  0  0.291243  0.367934  0  0.983198  0
H  H14  1  0.18719722  0.51753089  0.66167964  1  0  0.407098  0  0.894516  0  0  0.370123  0  0.970254  0  0  0.380914  0  0.953981  0  0  0.290396  0.362534  0  0.981673  0
H  H15  1  0.36633994  0.48229414  0.33821801  1  0  0.407237  0  0.893573  0  0  0.370545  0  0.969366  0  0  0.381304  0  0.95314  0  0  0.290595  0.362926  0  0.980832  0
H  H16  1  0.59912320  0.01745683  0.83831302  1  0  0.407355  0  0.894188  0  0  0.370708  0  0.969275  0  0  0.381487  0  0.953019  0  0  0.290742  0.363097  0  0.980735  0
H  H17  1  0.45442077  0.98251321  0.16198947  1  0  0.405749  0  0.895364  0  0  0.369122  0  0.971255  0  0  0.379909  0  0.954996  0  0  0.290155  0.361533  0  0.982676  0
H  H18  1  0.22164106  0.25016247  0.37992728  1  0  0.144677  0  0.930658  0  0  0.14692  0  0.997453  0  0  0.151637  0  0.99047  0  0  0.149888  0.143472  0  1.002437  0
H  H19  1  0.85240953  0.74974171  0.62020633  1  0  0.144285  0  0.930655  0  0  0.14676  0  0.997571  0  0  0.151514  0  0.99052  0  0  0.149941  0.143284  0  1.002634  0
H  H20  1  0.35101259  0.75029630  0.12017439  1  0  0.143774  0  0.931611  0  0  0.14613  0  0.998467  0  0  0.150878  0  0.991423  0  0  0.149811  0.142698  0  1.003452  0
H  H21  1  0.22170883  0.24970348  0.87966641  1  0  0.145  0  0.93084  0  0  0.147154  0  0.997858  0  0  0.151876  0  0.990853  0  0  0.149821  0.143682  0  1.002865  0
H  H22  1  0.05862012  0.26888824  0.69622704  1  0  0.14856  0  0.926905  0  0  0.150266  0  0.995784  0  0  0.154972  0  0.988943  0  0  0.148658  0.146802  0  1.000731  0
H  H23  1  0.02378628  0.73124735  0.30386949  1  0  0.148933  0  0.925836  0  0  0.150284  0  0.995075  0  0  0.155083  0  0.988081  0  0  0.148606  0.146791  0  1.000065  0
H  H24  1  0.50443548  0.76897852  0.80383701  1  0  0.148674  0  0.927082  0  0  0.150258  0  0.995863  0  0  0.154917  0  0.989077  0  0  0.148687  0.146835  0  1.00079  0
H  H25  1  0.07741332  0.23116432  0.19598688  1  0  0.148612  0  0.926236  0  0  0.1505  0  0.994506  0  0  0.155183  0  0.987697  0  0  0.148656  0.14708  0  0.999414  0
C  C26  1  0.20820772  0.20282898  0.45113593  1  0  0.042867  0  3.544426  0  0  -0.012628  0  3.809989  0  0  0.005886  0  3.814039  0  0  0.074464  -0.024042  0  3.807022  0
C  C27  1  0.86268661  0.79713126  0.54901270  1  0  0.044484  0  3.542928  0  0  -0.011022  0  3.806832  0  0  0.007327  0  3.811124  0  0  0.074814  -0.022407  0  3.803828  0
C  C28  1  0.40909565  0.70294071  0.04896195  1  0  0.045141  0  3.543258  0  0  -0.009598  0  3.806105  0  0  0.00853  0  3.810906  0  0  0.075066  -0.021025  0  3.803162  0
C  C29  1  0.16114867  0.29709728  0.95085043  1  0  0.042011  0  3.545185  0  0  -0.012857  0  3.808555  0  0  0.005639  0  3.812709  0  0  0.074549  -0.02425  0  3.805546  0
C  C30  1  0.26044604  0.08580400  0.45406834  1  0  -0.062952  0  3.6336  0  0  -0.080318  0  3.894199  0  0  -0.094628  0  3.913743  0  0  0.07348  -0.071658  0  3.881377  0
C  C31  1  0.80041985  0.91413645  0.54612397  1  0  -0.072671  0  3.62301  0  0  -0.080778  0  3.890524  0  0  -0.095091  0  3.910011  0  0  0.073372  -0.07209  0  3.877754  0
C  C32  1  0.46472959  0.58590735  0.04603367  1  0  -0.072486  0  3.625252  0  0  -0.080994  0  3.89245  0  0  -0.095287  0  3.911902  0  0  0.073184  -0.072348  0  3.879757  0
C  C33  1  0.09643937  0.41411088  0.95373179  1  0  -0.072158  0  3.626991  0  0  -0.080402  0  3.894301  0  0  -0.094785  0  3.913884  0  0  0.073355  -0.071708  0  3.881462  0
C  C34  1  0.24188146  0.01970295  0.54898021  1  0  0.340986  0  3.867747  0  0  0.307793  0  4.159545  0  0  0.330846  0  4.170444  0  0  0.122951  0.292913  0  4.151669  0
C  C35  1  0.80939439  0.98030530  0.45125534  1  0  0.340973  0  3.867396  0  0  0.307548  0  4.159064  0  0  0.330691  0  4.169865  0  0  0.122965  0.292601  0  4.151228  0
C  C36  1  0.54105060  0.51979305  0.95113004  1  0  0.340701  0  3.867041  0  0  0.308186  0  4.157485  0  0  0.331331  0  4.168307  0  0  0.122913  0.293233  0  4.149672  0
C  C37  1  0.01108845  0.48025132  0.04860266  1  0  0.341774  0  3.869749  0  0  0.308327  0  4.161376  0  0  0.331467  0  4.172229  0  0  0.124232  0.293386  0  4.153501  0
C  C38  1  0.16185439  0.09606809  0.63753519  1  0  -0.070746  0  3.614529  0  0  -0.081491  0  3.885874  0  0  -0.095883  0  3.905531  0  0  0.072463  -0.072728  0  3.872989  0
C  C39  1  0.89543642  0.90401768  0.36266010  1  0  -0.072462  0  3.618138  0  0  -0.083519  0  3.89029  0  0  -0.098015  0  3.910005  0  0  0.071456  -0.074671  0  3.877338  0
C  C40  1  0.54927822  0.59613160  0.86255098  1  0  -0.071009  0  3.61762  0  0  -0.082548  0  3.889321  0  0  -0.097122  0  3.909125  0  0  0.072315  -0.073633  0  3.876331  0
C  C41  1  0.00804593  0.40395456  0.13721585  1  0  -0.070186  0  3.615546  0  0  -0.081454  0  3.887932  0  0  -0.095933  0  3.907626  0  0  0.071772  -0.072597  0  3.874964  0
C  C42  1  0.11695671  0.21314513  0.62999674  1  0  0.028855  0  3.550161  0  0  -0.03197  0  3.827452  0  0  -0.013204  0  3.830833  0  0  0.068101  -0.043705  0  3.825244  0
C  C43  1  0.96020377  0.78694194  0.37015342  1  0  0.028923  0  3.552044  0  0  -0.031005  0  3.828537  0  0  -0.012309  0  3.831954  0  0  0.069033  -0.042696  0  3.826281  0
C  C44  1  0.49662505  0.71321092  0.87006235  1  0  0.028238  0  3.553137  0  0  -0.031125  0  3.828756  0  0  -0.012281  0  3.83222  0  0  0.068738  -0.042884  0  3.826384  0
C  C45  1  0.08015650  0.28689269  0.12973068  1  0  0.028378  0  3.552284  0  0  -0.031922  0  3.829366  0  0  -0.013128  0  3.832794  0  0  0.069065  -0.043646  0  3.826961  0
N  N46  1  0.13740244  0.26588692  0.53781638  1  0  0.26994  0  3.727077  0  0  0.319583  0  4.00014  0  0  0.312353  0  4.021196  0  0  -0.117786  0.323192  0  3.985842  0
N  N47  1  0.94109569  0.73414066  0.46229969  1  0  0.269086  0  3.722618  0  0  0.319388  0  3.995741  0  0  0.312145  0  4.016815  0  0  -0.117358  0.32301  0  3.981426  0
N  N48  1  0.42497329  0.76597321  0.96225444  1  0  0.268261  0  3.725093  0  0  0.317757  0  3.998464  0  0  0.310526  0  4.019416  0  0  -0.118485  0.321387  0  3.984154  0
N  N49  1  0.15322220  0.23410493  0.03757910  1  0  0.270197  0  3.723985  0  0  0.319992  0  3.997019  0  0  0.312727  0  4.018097  0  0  -0.117683  0.323621  0  3.982727  0
N  N50  1  0.33045410  0.03057750  0.35616017  1  0  0.495403  0  3.944974  0  0  0.548899  0  4.198511  0  0  0.572391  0  4.207345  0  0  0.048954  0.533306  0  4.192529  0
N  N51  1  0.71662781  0.96921722  0.64410054  1  0  0.526337  0  3.893261  0  0  0.547697  0  4.19752  0  0  0.571156  0  4.20635  0  0  0.048366  0.532072  0  4.191606  0
N  N52  1  0.43653742  0.53068413  0.14392235  1  0  0.527161  0  3.891277  0  0  0.548028  0  4.196107  0  0  0.571482  0  4.205005  0  0  0.048886  0.532432  0  4.190114  0
N  N53  1  0.11042584  0.46930741  0.85582292  1  0  0.528278  0  3.891631  0  0  0.548783  0  4.196795  0  0  0.572234  0  4.205659  0  0  0.048769  0.533216  0  4.19081  0
N  N54  1  0.12116947  0.05183656  0.73997304  1  0  0.529847  0  3.886755  0  0  0.553201  0  4.186234  0  0  0.57693  0  4.194647  0  0  0.050372  0.537369  0  4.180613  0
N  N55  1  0.91318426  0.94826569  0.26020851  1  0  0.529276  0  3.890826  0  0  0.552613  0  4.190562  0  0  0.576355  0  4.19898  0  0  0.050058  0.536794  0  4.18489  0
N  N56  1  0.61112041  0.55177876  0.76017753  1  0  0.53002  0  3.889657  0  0  0.553026  0  4.189907  0  0  0.57683  0  4.198298  0  0  0.050403  0.537172  0  4.18424  0
N  N57  1  0.92315734  0.44821681  0.23964766  1  0  0.527341  0  3.88997  0  0  0.550667  0  4.189902  0  0  0.574399  0  4.198348  0  0  0.049485  0.534826  0  4.184256  0
O  O58  1  0.08430045  0.37820201  0.53246086  1  0  -0.587054  0  1.786247  0  0  -0.547616  0  2.023869  0  0  -0.574471  0  2.023986  0  0  -0.267078  -0.52806  0  2.023362  0
O  O59  1  0.99465035  0.62181028  0.46756077  1  0  -0.586928  0  1.782936  0  0  -0.548448  0  2.021243  0  0  -0.575387  0  2.021386  0  0  -0.268205  -0.528809  0  2.020737  0
O  O60  1  0.36650223  0.87831021  0.96755584  1  0  -0.586285  0  1.784517  0  0  -0.547607  0  2.022866  0  0  -0.574481  0  2.022975  0  0  -0.267349  -0.527956  0  2.022328  0
O  O61  1  0.21222491  0.12178495  0.03231438  1  0  -0.587739  0  1.785178  0  0  -0.54878  0  2.023327  0  0  -0.575684  0  2.023507  0  0  -0.268426  -0.529159  0  2.022708  0
O  O62  1  0.28509334  0.91373933  0.55538069  1  0  -0.497679  0  2.025437  0  0  -0.472205  0  2.256713  0  0  -0.495869  0  2.255963  0  0  -0.286515  -0.455731  0  2.256755  0
O  O63  1  0.75052383  0.08622009  0.44497313  1  0  -0.496633  0  2.026925  0  0  -0.47048  0  2.258339  0  0  -0.494225  0  2.25758  0  0  -0.285225  -0.453902  0  2.258357  0
O  O64  1  0.59095611  0.41383747  0.94477043  1  0  -0.497322  0  2.026684  0  0  -0.471935  0  2.257786  0  0  -0.495624  0  2.25701  0  0  -0.285785  -0.455385  0  2.257849  0
O  O65  1  0.94701111  0.58618369  0.05492299  1  0  -0.497912  0  2.028216  0  0  -0.472124  0  2.259888  0  0  -0.495782  0  2.259037  0  0  -0.286181  -0.455595  0  2.259942  0
O  O66  1  0.28646895  0.08725976  0.27939413  1  0  -0.37648  0  1.774723  0  0  -0.360263  0  1.970702  0  0  -0.374939  0  1.965186  0  0  -0.125298  -0.350802  0  1.974922  0
O  O67  1  0.65388185  0.91221534  0.72084129  1  0  -0.387727  0  1.758942  0  0  -0.36047  0  1.97015  0  0  -0.375094  0  1.964533  0  0  -0.125615  -0.350814  0  1.974244  0
O  O68  1  0.31526410  0.58728454  0.22061251  1  0  -0.387789  0  1.756944  0  0  -0.360501  0  1.968392  0  0  -0.37493  0  1.962694  0  0  -0.12592  -0.350944  0  1.972523  0
O  O69  1  0.12379224  0.41248258  0.77905797  1  0  -0.388958  0  1.759333  0  0  -0.360519  0  1.970227  0  0  -0.375205  0  1.964749  0  0  -0.125768  -0.35103  0  1.974386  0
O  O70  1  0.43302598  0.92861775  0.35089952  1  0  -0.370402  0  1.838285  0  0  -0.36382  0  2.049971  0  0  -0.374963  0  2.0461  0  0  -0.125549  -0.356373  0  2.052797  0
O  O71  1  0.70996078  0.07142918  0.64944083  1  0  -0.379789  0  1.82207  0  0  -0.362484  0  2.049214  0  0  -0.373722  0  2.045515  0  0  -0.124927  -0.355  0  2.051951  0
O  O72  1  0.53409697  0.42877196  0.14926211  1  0  -0.381603  0  1.822068  0  0  -0.363487  0  2.048849  0  0  -0.374697  0  2.045071  0  0  -0.125337  -0.356029  0  2.05165  0
O  O73  1  0.10953400  0.57146670  0.85053724  1  0  -0.380492  0  1.820714  0  0  -0.362899  0  2.048041  0  0  -0.374087  0  2.044268  0  0  -0.12507  -0.355436  0  2.050771  0
O  O74  1  0.09820065  0.95365343  0.75470396  1  0  -0.353788  0  1.742043  0  0  -0.332854  0  1.950404  0  0  -0.342171  0  1.945166  0  0  -0.110382  -0.326664  0  1.954146  0
O  O75  1  0.80680435  0.04643478  0.24543570  1  0  -0.353894  0  1.745282  0  0  -0.33299  0  1.954031  0  0  -0.342351  0  1.94882  0  0  -0.11066  -0.326785  0  1.957733  0
O  O76  1  0.60224763  0.45368047  0.74557735  1  0  -0.354047  0  1.74326  0  0  -0.332686  0  1.951579  0  0  -0.342095  0  1.946388  0  0  -0.110834  -0.326532  0  1.955381  0
O  O77  1  0.80254237  0.54650513  0.25432619  1  0  -0.352068  0  1.745112  0  0  -0.331216  0  1.953587  0  0  -0.34054  0  1.948372  0  0  -0.110245  -0.325012  0  1.957304  0
O  O78  1  0.10595841  0.11629294  0.81197575  1  0  -0.424102  0  1.777872  0  0  -0.395517  0  1.998015  0  0  -0.410637  0  1.992204  0  0  -0.147858  -0.38557  0  2.002247  0
O  O79  1  0.03478402  0.88386015  0.18824936  1  0  -0.423291  0  1.778332  0  0  -0.394729  0  1.998386  0  0  -0.409806  0  1.992525  0  0  -0.147584  -0.384785  0  2.002613  0
O  O80  1  0.66867249  0.61603537  0.68815678  1  0  -0.423453  0  1.777204  0  0  -0.394948  0  1.997543  0  0  -0.410003  0  1.991639  0  0  -0.147225  -0.385015  0  2.001799  0
O  O81  1  0.97204560  0.38369820  0.31167756  1  0  -0.423819  0  1.778419  0  0  -0.395135  0  1.998488  0  0  -0.410263  0  1.992636  0  0  -0.147714  -0.385172  0  2.002736  0
O  O82  1  0.63479261  0.28361284  0.55742651  1  0  -0.863578  0  1.775673  0  0  -0.810365  0  1.945601  0  0  -0.829357  0  1.920215  0  0  -0.627923  -0.796816  0  1.96206  0
O  O83  1  0.47302398  0.71631679  0.44201742  1  0  -0.864943  0  1.774126  0  0  -0.811698  0  1.943449  0  0  -0.830637  0  1.917729  0  0  -0.628547  -0.798195  0  1.959962  0
O  O84  1  0.94255693  0.78355359  0.94245021  1  0  -0.86361  0  1.776505  0  0  -0.810589  0  1.946325  0  0  -0.829534  0  1.920678  0  0  -0.628494  -0.79705  0  1.962797  0
O  O85  1  0.66588578  0.21643092  0.05798165  1  0  -0.864579  0  1.774833  0  0  -0.811493  0  1.944271  0  0  -0.830445  0  1.918261  0  0  -0.628395  -0.797987  0  1.960793  0
O  O86  1  0.24566350  0.56895615  0.61043122  1  0  -0.875472  0  1.831877  0  0  -0.825974  0  2.006153  0  0  -0.846324  0  1.97449  0  0  -0.646402  -0.811161  0  2.028064  0
O  O87  1  0.42506089  0.43078484  0.38941045  1  0  -0.875779  0  1.830442  0  0  -0.825869  0  2.005601  0  0  -0.846264  0  1.973998  0  0  -0.646333  -0.811081  0  2.027592  0
O  O88  1  0.60612922  0.06896783  0.88955198  1  0  -0.876345  0  1.830924  0  0  -0.827117  0  2.005014  0  0  -0.847385  0  1.973329  0  0  -0.647078  -0.812368  0  2.027011  0
O  O89  1  0.56422751  0.93095388  0.11081167  1  0  -0.872943  0  1.832545  0  0  -0.823545  0  2.006711  0  0  -0.843892  0  1.975104  0  0  -0.645987  -0.80879  0  2.028621  0
