# generated using pymatgen
data_Zn4H8C28S2Cl4O13F2
_symmetry_space_group_name_H-M   'P 1'
_cell_length_a   18.45783404
_cell_length_b   19.66328564
_cell_length_c   32.84264784
_cell_angle_alpha   85.85620272
_cell_angle_beta   73.54452416
_cell_angle_gamma   61.81948515
_symmetry_Int_Tables_number   1
_chemical_formula_structural   Zn4H8C28S2Cl4O13F2
_chemical_formula_sum   'Zn16 H32 C112 S8 Cl16 O52 F8'
_cell_volume   10049.94153029
_cell_formula_units_Z   4
loop_
 _symmetry_equiv_pos_site_id
 _symmetry_equiv_pos_as_xyz
  1  'x, y, z'
loop_
 _atom_site_type_symbol
 _atom_site_label
 _atom_site_symmetry_multiplicity
 _atom_site_fract_x
 _atom_site_fract_y
 _atom_site_fract_z
 _atom_site_occupancy
 _atom_site_pbe_bader_charge
 _atom_site_pbe_bader_spin_density
 _atom_site_pbe_cm5_charge
 _atom_site_pbe_ddec_charge
 _atom_site_pbe_ddec_spin_density
 _atom_site_pbe_ddec_sum_bond_order
 _atom_site_pbe_magmom
Zn  Zn0  1  0.87190714  0.55187463  0.51876445  1  1.304309  0  0.674563  0.969446  0  2.314158  0
Zn  Zn1  1  0.04227544  0.48218203  0.43884731  1  1.321826  0  0.678817  0.974865  0  2.390568  0
Zn  Zn2  1  0.04641081  0.40113608  0.52569532  1  1.315404  0  0.674716  0.968992  0  2.37753  0
Zn  Zn3  1  0.04259954  0.56567921  0.51574828  1  1.318188  0  0.673668  0.965463  0  2.376492  0
Zn  Zn4  1  0.62518295  0.18715177  0.73649169  1  1.318177  0  0.676893  0.972499  0  2.355673  0
Zn  Zn5  1  0.47029703  0.35144589  0.72706507  1  1.317005  0  0.675396  0.964581  0  2.373986  0
Zn  Zn6  1  0.45211084  0.26574013  0.81276164  1  1.316777  0  0.673544  0.967893  0  2.362047  0
Zn  Zn7  1  0.45049500  0.19959245  0.72624186  1  1.320358  0  0.673752  0.96797  0  2.370287  0
Zn  Zn8  1  0.46606043  0.75576467  0.31441308  1  1.301428  0  0.673691  0.965905  0  2.330849  0
Zn  Zn9  1  0.46041869  0.68907597  0.22959063  1  1.324864  0  0.678821  0.974955  0  2.393477  0
Zn  Zn10  1  0.62624682  0.70145837  0.22922386  1  1.318802  0  0.674187  0.968724  0  2.369175  0
Zn  Zn11  1  0.45041152  0.85263091  0.22945121  1  1.318094  0  0.673322  0.966685  0  2.365915  0
Zn  Zn12  1  0.02876416  0.90147176  0.02619164  1  1.319554  0  0.677  0.971039  0  2.362343  0
Zn  Zn13  1  0.06263933  0.05034259  0.01674495  1  1.318586  0  0.674207  0.965925  0  2.322424  0
Zn  Zn14  1  0.87855790  0.06709557  0.02144684  1  1.323096  0  0.67586  0.969538  0  2.402827  0
Zn  Zn15  1  0.03014119  0.98673446  0.93861709  1  1.314079  0  0.673242  0.968138  0  2.364286  0
H  H16  1  0.55254562  0.47041853  0.62470188  1  0.078861  0  0.098582  0.111572  0  0.983516  0
H  H17  1  0.55973413  0.50993000  0.66953652  1  0.057833  0  0.101417  0.114257  0  0.972921  0
H  H18  1  0.65512409  0.55894568  0.62038151  1  0.064568  0  0.101079  0.112458  0  0.975934  0
H  H19  1  0.64770155  0.51945725  0.57558252  1  0.064277  0  0.100169  0.111744  0  0.97793  0
H  H20  1  0.35920412  0.66514329  0.42511893  1  0.078173  0  0.099891  0.110942  0  0.979561  0
H  H21  1  0.26927117  0.75637124  0.42476603  1  0.072992  0  0.101145  0.113136  0  0.974895  0
H  H22  1  0.17083774  0.71057607  0.47370425  1  0.084691  0  0.100447  0.113332  0  0.976096  0
H  H23  1  0.26089470  0.61956772  0.47445862  1  0.047804  0  0.097429  0.108446  0  0.985092  0
H  H24  1  0.55612608  0.76138480  0.42372516  1  0.051601  0  0.101061  0.112974  0  0.975208  0
H  H25  1  0.54967660  0.67349690  0.42738500  1  0.072974  0  0.099876  0.111459  0  0.979649  0
H  H26  1  0.64579766  0.62575257  0.47586284  1  0.05002  0  0.099657  0.111192  0  0.979936  0
H  H27  1  0.65257622  0.71339498  0.47227067  1  0.039308  0  0.100681  0.111689  0  0.976203  0
H  H28  1  0.33447490  0.19454878  0.63143939  1  0.081307  0  0.100411  0.113667  0  0.976789  0
H  H29  1  0.24243951  0.23792688  0.67617604  1  0.047716  0  0.100358  0.113289  0  0.977285  0
H  H30  1  0.14729135  0.28630488  0.62702434  1  0.078624  0  0.100868  0.114479  0  0.97656  0
H  H31  1  0.23952921  0.24243537  0.58237322  1  0.053021  0  0.100305  0.112416  0  0.976063  0
H  H32  1  0.94113905  0.08945236  0.82773313  1  0.062025  0  0.099625  0.111134  0  0.97848  0
H  H33  1  0.94398835  0.99770837  0.82691620  1  0.091973  0  0.100791  0.113477  0  0.977192  0
H  H34  1  0.84628873  0.04530516  0.77934500  1  0.068076  0  0.10195  0.1159  0  0.973275  0
H  H35  1  0.84282000  0.13738421  0.78025202  1  0.062757  0  0.100488  0.112944  0  0.977348  0
H  H36  1  0.16551979  0.20837991  0.97006645  1  0.079807  0  0.101281  0.113475  0  0.975589  0
H  H37  1  0.25819001  0.12023452  0.97156710  1  0.07029  0  0.101644  0.114563  0  0.976173  0
H  H38  1  0.35220309  0.17077239  0.92289467  1  0.08947  0  0.098526  0.112929  0  0.982204  0
H  H39  1  0.25953730  0.25886586  0.92115293  1  0.029259  0  0.100752  0.113125  0  0.975696  0
H  H40  1  0.26009379  0.01854682  0.07197688  1  0.056112  0  0.1004  0.112063  0  0.978864  0
H  H41  1  0.16804839  0.06336073  0.11658884  1  0.061869  0  0.100932  0.112469  0  0.975007  0
H  H42  1  0.26280866  0.01689208  0.16568661  1  0.061724  0  0.101226  0.114466  0  0.975902  0
H  H43  1  0.35497363  0.97327257  0.12099691  1  0.046745  0  0.097437  0.109537  0  0.984818  0
H  H44  1  0.93915137  0.74165469  0.08533252  1  0.059332  0  0.101581  0.115865  0  0.974026  0
H  H45  1  0.93815573  0.78757853  0.13050484  1  0.05025  0  0.100592  0.114314  0  0.976949  0
H  H46  1  0.84014254  0.74015951  0.17839047  1  0.071782  0  0.101494  0.115835  0  0.974564  0
H  H47  1  0.84157896  0.69407825  0.13321850  1  0.077452  0  0.100583  0.112966  0  0.976494  0
C  C48  1  0.86847526  0.56827286  0.42986644  1  1.5667  0  0.228825  0.625146  0  4.154548  0
C  C49  1  0.11971143  0.31468368  0.44150540  1  1.590235  0  0.217066  0.629787  0  4.214281  0
C  C50  1  0.87090838  0.42342546  0.56974359  1  1.587685  0  0.228125  0.622984  0  4.156479  0
C  C51  1  0.14573848  0.44198702  0.56439359  1  1.583041  0  0.227999  0.620317  0  4.159864  0
C  C52  1  0.86683328  0.68228607  0.56178037  1  1.580578  0  0.218015  0.632287  0  4.212389  0
C  C53  1  0.13635808  0.56911002  0.43036883  1  1.578719  0  0.227406  0.62364  0  4.150285  0
C  C54  1  0.64850723  0.30910909  0.68422106  1  1.580465  0  0.227863  0.619915  0  4.155226  0
C  C55  1  0.37814291  0.43521161  0.81139913  1  1.619415  0  0.218408  0.63242  0  4.211351  0
C  C56  1  0.62573617  0.17956716  0.82522388  1  1.592282  0  0.228506  0.622901  0  4.159189  0
C  C57  1  0.35654921  0.18235406  0.81331337  1  1.532198  0  0.228399  0.62346  0  4.154734  0
C  C58  1  0.62153226  0.06763684  0.68861347  1  1.626434  0  0.217746  0.631948  0  4.213927  0
C  C59  1  0.36560085  0.33103644  0.67975885  1  1.581117  0  0.229698  0.623147  0  4.158343  0
C  C60  1  0.36022123  0.68135308  0.31615136  1  1.584271  0  0.230259  0.624642  0  4.156271  0
C  C61  1  0.63447553  0.56489390  0.19209754  1  1.558143  0  0.217132  0.629358  0  4.219626  0
C  C62  1  0.64436106  0.68070933  0.31670435  1  1.580881  0  0.228493  0.624293  0  4.154139  0
C  C63  1  0.62261373  0.83050151  0.17825019  1  1.573208  0  0.228827  0.622632  0  4.157095  0
C  C64  1  0.37690235  0.92715756  0.31716927  1  1.583205  0  0.218517  0.634628  0  4.211663  0
C  C65  1  0.36352269  0.81408878  0.18187695  1  1.590667  0  0.227522  0.622449  0  4.154681  0
C  C66  1  0.13468007  0.92543766  0.07096760  1  1.574135  0  0.228119  0.623974  0  4.153433  0
C  C67  1  0.89962225  0.18464132  0.06102367  1  1.611938  0  0.217527  0.62958  0  4.21797  0
C  C68  1  0.85004620  0.94297193  0.06743728  1  1.571934  0  0.228577  0.62286  0  4.156328  0
C  C69  1  0.85347532  0.07068455  0.93649190  1  1.573182  0  0.228854  0.622951  0  4.15232  0
C  C70  1  0.12306661  0.81734761  0.94115091  1  1.584814  0  0.218539  0.633253  0  4.210957  0
C  C71  1  0.13507454  0.06645071  0.92714564  1  1.566149  0  0.228162  0.624151  0  4.152622  0
C  C72  1  0.72922513  0.80508231  0.60084567  1  0.54649  0  0.10287  0.255579  0  4.070066  0
C  C73  1  0.75725918  0.94414241  0.65020361  1  0.6495  0  0.103731  0.25564  0  4.070237  0
C  C74  1  0.81699456  0.75708349  0.58695781  1  -0.050983  0  -0.034837  -0.246571  0  3.964429  0
C  C75  1  0.66952608  0.99246276  0.66395345  1  -0.154636  0  -0.034132  -0.243048  0  3.961997  0
C  C76  1  0.77969634  0.87584497  0.62713053  1  -0.145027  0  -0.030762  -0.122191  0  4.122931  0
C  C77  1  0.70655593  0.87357024  0.62388554  1  -0.148914  0  -0.029692  -0.117744  0  4.114968  0
C  C78  1  0.19624537  0.22207181  0.37386682  1  0.605183  0  0.105215  0.257421  0  4.067642  0
C  C79  1  0.30043312  0.01857300  0.38605631  1  0.600522  0  0.101684  0.252556  0  4.072422  0
C  C80  1  0.16937604  0.23897314  0.41757529  1  -0.071484  0  -0.034808  -0.243768  0  3.966155  0
C  C81  1  0.32710914  0.00193961  0.34235865  1  -0.08211  0  -0.034603  -0.246009  0  3.96245  0
C  C82  1  0.25289922  0.09868848  0.39803559  1  -0.180186  0  -0.030022  -0.119223  0  4.117412  0
C  C83  1  0.24432796  0.14199622  0.36211659  1  -0.119727  0  -0.029446  -0.120058  0  4.123608  0
C  C84  1  0.71009821  0.33120326  0.65380901  1  -0.010308  0  -0.01492  -0.123697  0  3.934811  0
C  C85  1  0.81974008  0.38769132  0.59696922  1  0.02868  0  -0.012914  -0.120259  0  3.931061  0
C  C86  1  0.67830991  0.40399870  0.63772629  1  0.063648  0  -0.003947  0.071214  0  3.900929  0
C  C87  1  0.85404803  0.31180731  0.61144457  1  0.144475  0  0.016242  0.06856  0  3.975757  0
C  C88  1  0.73069809  0.43099210  0.61061412  1  -0.060929  0  -0.004824  0.065545  0  3.907168  0
C  C89  1  0.80058787  0.28435732  0.63926234  1  0.095666  0  0.015835  0.067672  0  3.983385  0
C  C90  1  0.59658421  0.47763027  0.63835090  1  -0.025561  0  -0.149114  -0.196562  0  3.871392  0
C  C91  1  0.65609071  0.50833229  0.60761844  1  -0.028338  0  -0.148759  -0.194644  0  3.876457  0
C  C92  1  0.30141493  0.65229890  0.34250978  1  0.019  0  -0.014564  -0.125877  0  3.931441  0
C  C93  1  0.18920144  0.59876885  0.39920100  1  0.072285  0  -0.013033  -0.116907  0  3.949113  0
C  C94  1  0.27941583  0.66186369  0.38678589  1  -0.0007  0  -0.004684  0.067614  0  3.903607  0
C  C95  1  0.20872615  0.58941306  0.35427848  1  0.085369  0  0.016743  0.06674  0  3.986317  0
C  C96  1  0.22530248  0.63665628  0.41391757  1  -0.020891  0  -0.005881  0.065147  0  3.910908  0
C  C97  1  0.26407278  0.61494101  0.32646531  1  0.097426  0  0.018144  0.070899  0  3.976677  0
C  C98  1  0.29297508  0.69351662  0.42313603  1  -0.037872  0  -0.148561  -0.194723  0  3.876446  0
C  C99  1  0.23147543  0.66484270  0.45392067  1  -0.036827  0  -0.14951  -0.196771  0  3.874422  0
C  C100  1  0.70591994  0.64661588  0.34299445  1  0.06932  0  -0.013451  -0.121834  0  3.936705  0
C  C101  1  0.81662607  0.59139558  0.39887438  1  0.014772  0  -0.013879  -0.123581  0  3.94167  0
C  C102  1  0.67466112  0.65999364  0.38715055  1  0.002156  0  -0.005353  0.06701  0  3.905892  0
C  C103  1  0.85044320  0.57390587  0.35403536  1  0.098271  0  0.017717  0.069807  0  3.980477  0
C  C104  1  0.72766424  0.63361191  0.41385786  1  -0.006246  0  -0.005323  0.067636  0  3.907396  0
C  C105  1  0.79629383  0.60094102  0.32676639  1  0.111562  0  0.015445  0.067047  0  3.9818  0
C  C106  1  0.59332459  0.69824534  0.42360515  1  -0.023835  0  -0.148191  -0.196834  0  3.875813  0
C  C107  1  0.65361245  0.66824568  0.45394190  1  0.010245  0  -0.148849  -0.195698  0  3.878346  0
C  C108  1  0.31050737  0.36460368  0.65033907  1  0.05815  0  -0.013834  -0.12294  0  3.938476  0
C  C109  1  0.20147779  0.41981319  0.59350662  1  0.049501  0  -0.013556  -0.122553  0  3.936232  0
C  C110  1  0.27633047  0.32205855  0.63826490  1  -0.008638  0  -0.004211  0.069203  0  3.905369  0
C  C111  1  0.23501655  0.46491901  0.60533173  1  0.107888  0  0.015233  0.066891  0  3.979981  0
C  C112  1  0.22407978  0.34849771  0.61120414  1  -0.03767  0  -0.004454  0.068774  0  3.90397  0
C  C113  1  0.28847635  0.43782287  0.63296499  1  0.097029  0  0.016276  0.068731  0  3.980507  0
C  C114  1  0.27265546  0.24647840  0.64363735  1  -0.017  0  -0.149225  -0.197675  0  3.876156  0
C  C115  1  0.21324281  0.27653403  0.61291854  1  -0.021894  0  -0.14923  -0.195991  0  3.875314  0
C  C116  1  0.30372722  0.58390313  0.82286339  1  0.573921  0  0.103675  0.257058  0  4.070568  0
C  C117  1  0.19897272  0.66843584  0.92986849  1  0.565017  0  0.104507  0.258082  0  4.06704  0
C  C118  1  0.32825918  0.50985477  0.83654392  1  -0.115509  0  -0.034634  -0.245042  0  3.965679  0
C  C119  1  0.17381158  0.74254135  0.91615412  1  -0.13038  0  -0.034278  -0.245782  0  3.962531  0
C  C120  1  0.24577947  0.61021481  0.89611036  1  -0.117761  0  -0.029755  -0.119543  0  4.11836  0
C  C121  1  0.25596178  0.64221303  0.85654223  1  -0.178164  0  -0.02874  -0.119348  0  4.12012  0
C  C122  1  0.79097107  0.09674387  0.91084163  1  0.080047  0  -0.013217  -0.119533  0  3.940627  0
C  C123  1  0.67818319  0.15075485  0.85601091  1  -0.018337  0  -0.015103  -0.124324  0  3.939312  0
C  C124  1  0.82123796  0.08924596  0.86659421  1  0.012675  0  -0.003566  0.068282  0  3.906102  0
C  C125  1  0.64539738  0.15676357  0.90110657  1  0.096066  0  0.01585  0.068643  0  3.982495  0
C  C126  1  0.76726455  0.11528373  0.84037041  1  0.048311  0  -0.004595  0.067511  0  3.902765  0
C  C127  1  0.70049768  0.13041733  0.92785196  1  0.097003  0  0.016337  0.06796  0  3.988356  0
C  C128  1  0.90205275  0.06046561  0.82960433  1  -0.064006  0  -0.148052  -0.195241  0  3.872142  0
C  C129  1  0.84073968  0.09024406  0.79982054  1  -0.026337  0  -0.148955  -0.197341  0  3.870331  0
C  C130  1  0.19338637  0.09086684  0.89574819  1  0.066398  0  -0.012596  -0.119589  0  3.935684  0
C  C131  1  0.30218597  0.14862417  0.83940796  1  0.065809  0  -0.013881  -0.12389  0  3.933664  0
C  C132  1  0.22625517  0.13186774  0.91057747  1  0.00873  0  -0.004344  0.068249  0  3.90693  0
C  C133  1  0.27167924  0.10493139  0.82324634  1  0.097824  0  0.016627  0.06891  0  3.978263  0
C  C134  1  0.27814578  0.15955248  0.88367743  1  -0.05963  0  -0.004452  0.068989  0  3.902952  0
C  C135  1  0.21873174  0.07664948  0.85078633  1  0.107163  0  0.014862  0.066354  0  3.981852  0
C  C136  1  0.22781077  0.16411147  0.95065354  1  -0.048405  0  -0.149305  -0.198034  0  3.875412  0
C  C137  1  0.28668354  0.19563167  0.92014994  1  -0.002968  0  -0.148669  -0.19588  0  3.871792  0
C  C138  1  0.66172113  0.44321756  0.15272267  1  0.611866  0  0.104868  0.257733  0  4.071116  0
C  C139  1  0.87830178  0.30570070  0.10048926  1  0.563347  0  0.101897  0.253395  0  4.073099  0
C  C140  1  0.68774239  0.49054599  0.16687575  1  -0.08501  0  -0.034138  -0.242382  0  3.965105  0
C  C141  1  0.85142128  0.25898032  0.08647315  1  -0.118765  0  -0.034388  -0.245887  0  3.969285  0
C  C142  1  0.80976361  0.37344125  0.12467079  1  -0.150301  0  -0.03011  -0.12112  0  4.114829  0
C  C143  1  0.73066240  0.37609854  0.12849507  1  -0.143334  0  -0.029143  -0.120494  0  4.131414  0
C  C144  1  0.19192945  0.89222864  0.09946415  1  0.021484  0  -0.013204  -0.122704  0  3.9331  0
C  C145  1  0.30318827  0.83847872  0.15511731  1  0.021676  0  -0.012294  -0.115731  0  3.938416  0
C  C146  1  0.22633091  0.93534096  0.11073962  1  0.038385  0  -0.003881  0.068669  0  3.903699  0
C  C147  1  0.26862998  0.79323534  0.14464076  1  0.104146  0  0.015892  0.064843  0  3.985165  0
C  C148  1  0.27899440  0.90992523  0.13760847  1  -0.002146  0  -0.006003  0.063875  0  3.908196  0
C  C149  1  0.21495495  0.81909261  0.11715273  1  0.094931  0  0.017291  0.069879  0  3.978861  0
C  C150  1  0.22971277  0.01106971  0.10471246  1  -0.017461  0  -0.147116  -0.192859  0  3.873567  0
C  C151  1  0.28933344  0.98222734  0.13533435  1  -0.020139  0  -0.150223  -0.197729  0  3.872626  0
C  C152  1  0.78696617  0.91859044  0.09386461  1  -0.006703  0  -0.012608  -0.120341  0  3.938894  0
C  C153  1  0.67424605  0.86343380  0.14872656  1  0.062655  0  -0.014523  -0.125428  0  3.937042  0
C  C154  1  0.81729896  0.84768964  0.11193695  1  -0.006644  0  -0.005241  0.067462  0  3.906958  0
C  C155  1  0.64120574  0.93541143  0.13000415  1  0.076587  0  0.016806  0.069672  0  3.981588  0
C  C156  1  0.76340055  0.82147239  0.13826572  1  0.007166  0  -0.003069  0.071265  0  3.904127  0
C  C157  1  0.69626071  0.96233821  0.10325214  1  0.146014  0  0.015268  0.065807  0  3.984976  0
C  C158  1  0.89819382  0.77669604  0.11540784  1  0.001425  0  -0.148595  -0.199288  0  3.874554  0
C  C159  1  0.83696613  0.74699824  0.14535460  1  -0.047034  0  -0.148853  -0.197349  0  3.877853  0
S  S160  1  0.87379602  0.79585611  0.60224591  1  0.315298  0  0.099365  0.181571  0  2.760904  0
S  S161  1  0.61253337  0.95399202  0.64860341  1  0.302876  0  0.096382  0.174865  0  2.751299  0
S  S162  1  0.20351630  0.15558487  0.44516205  1  0.293899  0  0.095988  0.174693  0  2.747183  0
S  S163  1  0.29390591  0.08555588  0.31493086  1  0.319121  0  0.102609  0.185127  0  2.760377  0
S  S164  1  0.29247799  0.51082130  0.89172820  1  0.336333  0  0.100105  0.180133  0  2.746997  0
S  S165  1  0.20793221  0.74168580  0.86089356  1  0.371117  0  0.097984  0.178165  0  2.75312  0
S  S166  1  0.79883739  0.45267049  0.15029498  1  0.309877  0  0.096173  0.174887  0  2.739947  0
S  S167  1  0.74026058  0.29788253  0.10290366  1  0.338586  0  0.104527  0.189439  0  2.77208  0
Cl  Cl168  1  0.96217142  0.24861361  0.59466892  1  -0.162197  0  -0.010024  -0.05748  0  1.606362  0
Cl  Cl169  1  0.84886884  0.19105642  0.65386436  1  -0.161822  0  -0.006861  -0.052684  0  1.60459  0
Cl  Cl170  1  0.16176188  0.54998137  0.33208897  1  -0.160614  0  -0.004197  -0.050842  0  1.611955  0
Cl  Cl171  1  0.28469409  0.59792593  0.27275190  1  -0.143235  0  -0.002586  -0.043829  0  1.631637  0
Cl  Cl172  1  0.95832536  0.51625548  0.33114173  1  -0.149527  0  -0.002619  -0.045011  0  1.614622  0
Cl  Cl173  1  0.84345121  0.57368405  0.27325157  1  -0.165509  0  -0.007666  -0.055489  0  1.599239  0
Cl  Cl174  1  0.21211937  0.55487641  0.58682397  1  -0.160142  0  -0.008626  -0.056721  0  1.615159  0
Cl  Cl175  1  0.32749966  0.49628899  0.64393714  1  -0.15774  0  -0.006528  -0.053602  0  1.613292  0
Cl  Cl176  1  0.53711702  0.19396252  0.92523495  1  -0.172792  0  -0.008093  -0.056826  0  1.602344  0
Cl  Cl177  1  0.65489456  0.13670220  0.98181622  1  -0.157299  0  -0.008094  -0.054084  0  1.658127  0
Cl  Cl178  1  0.29903179  0.08285763  0.76944309  1  -0.166841  0  -0.009251  -0.055619  0  1.605647  0
Cl  Cl179  1  0.18870204  0.02153561  0.82795019  1  -0.166512  0  -0.009198  -0.057386  0  1.602597  0
Cl  Cl180  1  0.28749741  0.70659589  0.16679372  1  -0.152389  0  -0.004028  -0.048272  0  1.621541  0
Cl  Cl181  1  0.18071254  0.75747986  0.10508130  1  -0.163981  0  -0.005333  -0.051683  0  1.601512  0
Cl  Cl182  1  0.53264849  0.99303476  0.13853717  1  -0.159804  0  -0.007594  -0.055464  0  1.613746  0
Cl  Cl183  1  0.64932559  0.04895916  0.08130017  1  -0.160201  0  -0.007322  -0.05043  0  1.663777  0
O  O184  1  0.99774277  0.50096097  0.50107110  1  -1.220546  0  -0.574287  -1.033506  0  2.536263  0
O  O185  1  0.82721573  0.57026784  0.46872046  1  -1.160318  0  -0.307232  -0.536458  0  2.30471  0
O  O186  1  0.09128710  0.37359774  0.42012971  1  -1.154417  0  -0.312103  -0.530439  0  2.326235  0
O  O187  1  0.95081157  0.39127723  0.56552932  1  -1.170642  0  -0.316904  -0.550754  0  2.422752  0
O  O188  1  0.94741323  0.55051191  0.41603787  1  -1.17174  0  -0.318049  -0.553639  0  2.411233  0
O  O189  1  0.82790378  0.48593632  0.55368101  1  -1.161486  0  -0.307125  -0.536575  0  2.307024  0
O  O190  1  0.10971126  0.31415668  0.48173972  1  -1.169193  0  -0.319173  -0.5482  0  2.320184  0
O  O191  1  0.12191095  0.39240775  0.55944220  1  -1.162286  0  -0.306369  -0.530511  0  2.333675  0
O  O192  1  0.94814411  0.65458405  0.55339913  1  -1.16512  0  -0.319243  -0.54328  0  2.340008  0
O  O193  1  0.12663833  0.50561709  0.54695433  1  -1.177329  0  -0.315298  -0.549492  0  2.426646  0
O  O194  1  0.82648761  0.65232241  0.55086159  1  -1.160683  0  -0.313378  -0.538552  0  2.297189  0
O  O195  1  0.13600482  0.50861149  0.41930835  1  -1.163272  0  -0.317591  -0.552439  0  2.382523  0
O  O196  1  0.09751490  0.60612958  0.46704724  1  -1.151487  0  -0.306361  -0.529912  0  2.286382  0
O  O197  1  0.50007910  0.25002239  0.75056367  1  -1.230059  0  -0.57317  -1.033042  0  2.535959  0
O  O198  1  0.67666500  0.25059374  0.70562659  1  -1.176974  0  -0.314625  -0.549486  0  2.406667  0
O  O199  1  0.41356157  0.43571819  0.77201672  1  -1.159763  0  -0.313472  -0.533185  0  2.31663  0
O  O200  1  0.54701709  0.22882820  0.83858828  1  -1.18246  0  -0.313955  -0.547897  0  2.409143  0
O  O201  1  0.56952584  0.35418774  0.68658374  1  -1.155922  0  -0.306402  -0.531772  0  2.325847  0
O  O202  1  0.66708660  0.15224865  0.78662655  1  -1.166203  0  -0.307758  -0.534147  0  2.318039  0
O  O203  1  0.38142206  0.37633013  0.83189592  1  -1.167759  0  -0.31973  -0.546165  0  2.31594  0
O  O204  1  0.38522119  0.21098223  0.83476412  1  -1.15551  0  -0.307471  -0.535486  0  2.32494  0
O  O205  1  0.53991587  0.09902701  0.69648310  1  -1.175448  0  -0.319612  -0.546728  0  2.327462  0
O  O206  1  0.36929308  0.18166855  0.77324519  1  -1.142554  0  -0.315521  -0.550142  0  2.419174  0
O  O207  1  0.66453691  0.09429175  0.69977486  1  -1.156631  0  -0.312798  -0.535533  0  2.316117  0
O  O208  1  0.38376045  0.37421374  0.69721266  1  -1.172481  0  -0.314496  -0.547033  0  2.419091  0
O  O209  1  0.38923158  0.25928270  0.68536448  1  -1.165598  0  -0.308311  -0.534629  0  2.322966  0
O  O210  1  0.50110941  0.75048871  0.25186748  1  -1.21889  0  -0.573721  -1.033743  0  2.535487  0
O  O211  1  0.39277167  0.70645375  0.33708250  1  -1.159924  0  -0.308148  -0.537815  0  2.318416  0
O  O212  1  0.55402217  0.58782176  0.20457468  1  -1.139367  0  -0.312522  -0.530566  0  2.329929  0
O  O213  1  0.67262439  0.68951624  0.27775858  1  -1.173919  0  -0.316028  -0.549583  0  2.404126  0
O  O214  1  0.37306667  0.68000446  0.27603366  1  -1.177975  0  -0.316016  -0.549426  0  2.431443  0
O  O215  1  0.56609442  0.70059619  0.33683837  1  -1.163529  0  -0.30841  -0.537055  0  2.30832  0
O  O216  1  0.67407660  0.59956370  0.19911461  1  -1.166587  0  -0.318752  -0.548176  0  2.321629  0
O  O217  1  0.66702166  0.76256409  0.18886967  1  -1.167428  0  -0.306341  -0.532049  0  2.334235  0
O  O218  1  0.39078336  0.93233157  0.27690059  1  -1.150444  0  -0.318173  -0.542895  0  2.337873  0
O  O219  1  0.54151780  0.87041093  0.19069011  1  -1.158094  0  -0.31426  -0.548457  0  2.421842  0
O  O220  1  0.40098886  0.86566179  0.33698890  1  -1.168834  0  -0.31488  -0.540431  0  2.303068  0
O  O221  1  0.41094757  0.74220949  0.18370108  1  -1.173802  0  -0.316773  -0.551134  0  2.391146  0
O  O222  1  0.36456019  0.86903868  0.19997223  1  -1.15644  0  -0.306322  -0.531831  0  2.295463  0
O  O223  1  0.00262914  0.00086738  0.00068357  1  -1.233558  0  -0.573782  -1.033598  0  2.535358  0
O  O224  1  0.08880375  0.89504610  0.06804581  1  -1.162662  0  -0.316334  -0.551168  0  2.414148  0
O  O225  1  0.98128430  0.15238732  0.04893346  1  -1.150162  0  -0.313067  -0.53825  0  2.295071  0
O  O226  1  0.82408694  0.01401121  0.06060505  1  -1.163076  0  -0.313193  -0.545706  0  2.416754  0
O  O227  1  0.13590793  0.98440200  0.05213842  1  -1.1608  0  -0.308273  -0.537702  0  2.316327  0
O  O228  1  0.92731529  0.88870530  0.05446936  1  -1.162915  0  -0.306657  -0.533572  0  2.315864  0
O  O229  1  0.85174188  0.15935073  0.05368249  1  -1.167319  0  -0.317494  -0.537413  0  2.354151  0
O  O230  1  0.82821584  0.10206277  0.97383955  1  -1.166338  0  -0.313077  -0.544941  0  2.394944  0
O  O231  1  0.10653595  0.87695480  0.91934154  1  -1.162588  0  -0.320633  -0.548193  0  2.322197  0
O  O232  1  0.92966013  0.01928224  0.91752679  1  -1.164319  0  -0.307768  -0.533439  0  2.303052  0
O  O233  1  0.10042873  0.81615017  0.98150433  1  -1.140602  0  -0.312367  -0.534269  0  2.31948  0
O  O234  1  0.13863127  0.06621848  0.96550165  1  -1.153114  0  -0.305738  -0.53341  0  2.30914  0
O  O235  1  0.08591524  0.05021300  0.91422643  1  -1.166173  0  -0.318318  -0.553394  0  2.400159  0
F  F236  1  0.67038405  0.78953347  0.59340759  1  -0.617094  0  -0.088546  -0.107503  0  1.342665  0
F  F237  1  0.81642365  0.95917159  0.65757766  1  -0.617083  0  -0.084831  -0.101862  0  1.348076  0
F  F238  1  0.17992471  0.27492785  0.34489217  1  -0.626679  0  -0.081186  -0.097855  0  1.351709  0
F  F239  1  0.31730011  0.96501296  0.41473952  1  -0.624838  0  -0.088186  -0.106555  0  1.345485  0
F  F240  1  0.32190366  0.60023605  0.78196248  1  -0.618543  0  -0.086224  -0.10454  0  1.34792  0
F  F241  1  0.18103440  0.65206661  0.97074708  1  -0.617488  0  -0.084775  -0.102613  0  1.349028  0
F  F242  1  0.58007042  0.45802301  0.16050069  1  -0.613026  0  -0.081207  -0.097722  0  1.351882  0
F  F243  1  0.96067193  0.28952561  0.09219270  1  -0.618625  0  -0.088527  -0.107351  0  1.341539  0
