# generated using pymatgen
data_ZnH18C20(NO)4
_symmetry_space_group_name_H-M   'P 1'
_cell_length_a   8.06850291
_cell_length_b   14.33149849
_cell_length_c   18.26537302
_cell_angle_alpha   91.01377533
_cell_angle_beta   89.99932925
_cell_angle_gamma   90.00047479
_symmetry_Int_Tables_number   1
_chemical_formula_structural   ZnH18C20(NO)4
_chemical_formula_sum   'Zn4 H72 C80 N16 O16'
_cell_volume   2111.76273935
_cell_formula_units_Z   4
loop_
 _symmetry_equiv_pos_site_id
 _symmetry_equiv_pos_as_xyz
  1  'x, y, z'
loop_
 _atom_site_type_symbol
 _atom_site_label
 _atom_site_symmetry_multiplicity
 _atom_site_fract_x
 _atom_site_fract_y
 _atom_site_fract_z
 _atom_site_occupancy
 _atom_site_pbe_bader_charge
 _atom_site_pbe_bader_spin_density
 _atom_site_pbe_cm5_charge
 _atom_site_pbe_ddec_charge
 _atom_site_pbe_ddec_spin_density
 _atom_site_pbe_ddec_sum_bond_order
 _atom_site_pbe_magmom
Zn  Zn0  1  0.07169867  0.24879452  0.97437748  1  1.258167  0  0.700054  0.809753  0  2.367813  0
Zn  Zn1  1  0.57170691  0.25120729  0.52562345  1  1.258025  0  0.70008  0.809763  0  2.367827  0
Zn  Zn2  1  0.92830003  0.75120656  0.02562030  1  1.258157  0  0.700052  0.809711  0  2.36777  0
Zn  Zn3  1  0.42828932  0.74879103  0.47437869  1  1.257804  0  0.700069  0.809759  0  2.367809  0
H  H4  1  0.65549547  0.27556277  0.08539748  1  0.568004  0  0.309936  0.307493  0  0.996549  0
H  H5  1  0.15550085  0.22443605  0.41460168  1  0.567981  0  0.309927  0.30746  0  0.996503  0
H  H6  1  0.34450199  0.72443622  0.91460137  1  0.56798  0  0.309935  0.307433  0  0.99656  0
H  H7  1  0.84449413  0.77556366  0.58539882  1  0.567941  0  0.309931  0.307395  0  0.996527  0
H  H8  1  0.24909156  0.18949935  0.70643557  1  0.551814  0  0.303963  0.29229  0  1.015293  0
H  H9  1  0.74908492  0.31050607  0.79356502  1  0.551842  0  0.30394  0.292253  0  1.015339  0
H  H10  1  0.75091086  0.81050175  0.29356495  1  0.551829  0  0.303938  0.2923  0  1.015186  0
H  H11  1  0.25090883  0.68949296  0.20643766  1  0.551886  0  0.303938  0.29218  0  1.015395  0
H  H12  1  0.66787202  0.15548282  0.95652653  1  0.061706  0  0.088032  0.127027  0  1.025811  0
H  H13  1  0.16787779  0.34451315  0.54347440  1  0.061835  0  0.088054  0.127069  0  1.025723  0
H  H14  1  0.33212792  0.84451201  0.04347558  1  0.06187  0  0.088039  0.127064  0  1.025795  0
H  H15  1  0.83212339  0.65548448  0.45652827  1  0.061837  0  0.088057  0.127082  0  1.025718  0
H  H16  1  0.48405676  0.16374948  0.90429847  1  0.040712  0  0.083542  0.115307  0  1.022905  0
H  H17  1  0.98405571  0.33624657  0.59570302  1  0.040627  0  0.083576  0.115373  0  1.02288  0
H  H18  1  0.51594566  0.83624395  0.09570253  1  0.040582  0  0.083578  0.115312  0  1.022873  0
H  H19  1  0.01594051  0.66375176  0.40429912  1  0.04071  0  0.083551  0.115326  0  1.022947  0
H  H20  1  0.54828801  0.05362356  0.93719678  1  0.031549  0  0.089072  0.121667  0  1.012309  0
H  H21  1  0.04829476  0.44637466  0.56280479  1  0.031595  0  0.089048  0.121656  0  1.012229  0
H  H22  1  0.45171193  0.94637129  0.06280697  1  0.031608  0  0.089077  0.121665  0  1.012274  0
H  H23  1  0.95170643  0.55362507  0.43719845  1  0.031583  0  0.089058  0.121659  0  1.012223  0
H  H24  1  0.31645957  0.11229724  0.01545040  1  0.096477  0  0.102798  0.10903  0  1.003646  0
H  H25  1  0.81646637  0.38769956  0.48455175  1  0.096569  0  0.102789  0.109063  0  1.003754  0
H  H26  1  0.68354037  0.88770037  0.98455064  1  0.096494  0  0.1028  0.109065  0  1.003667  0
H  H27  1  0.18353729  0.61230295  0.51544987  1  0.096572  0  0.1028  0.109077  0  1.003707  0
H  H28  1  0.50187369  0.11052445  0.06709811  1  0.063243  0  0.102291  0.106598  0  0.987667  0
H  H29  1  0.00188224  0.38947647  0.43290296  1  0.063166  0  0.102285  0.106635  0  0.987649  0
H  H30  1  0.49812377  0.88947666  0.93290350  1  0.063245  0  0.102285  0.106623  0  0.987673  0
H  H31  1  0.99812142  0.61052396  0.56710029  1  0.063125  0  0.102252  0.106586  0  0.98767  0
H  H32  1  0.67647179  0.47291721  0.12439202  1  0.067004  0  0.111394  0.12642  0  0.984883  0
H  H33  1  0.17647036  0.02707960  0.37560593  1  0.067134  0  0.111388  0.126395  0  0.984912  0
H  H34  1  0.32352567  0.52707969  0.87560737  1  0.067107  0  0.11138  0.126381  0  0.984938  0
H  H35  1  0.82352338  0.97291941  0.62439512  1  0.067026  0  0.111376  0.12634  0  0.984939  0
H  H36  1  0.50020720  0.61793106  0.12306326  1  0.074054  0  0.0998  0.099782  0  1.02506  0
H  H37  1  0.00019853  0.88206736  0.37693794  1  0.074061  0  0.099782  0.099804  0  1.025033  0
H  H38  1  0.49979398  0.38206795  0.87693778  1  0.074044  0  0.099779  0.099771  0  1.025077  0
H  H39  1  0.99979150  0.11793305  0.62306312  1  0.074207  0  0.099794  0.099813  0  1.025178  0
H  H40  1  0.08890795  0.46379442  0.03029989  1  0.153443  0  0.108745  0.132513  0  1.045769  0
H  H41  1  0.58890382  0.03620620  0.46970074  1  0.153392  0  0.108707  0.132396  0  1.045845  0
H  H42  1  0.91109199  0.53620875  0.96969736  1  0.153444  0  0.108751  0.132507  0  1.045788  0
H  H43  1  0.41108869  0.96379630  0.53029979  1  0.153403  0  0.108756  0.132508  0  1.045802  0
H  H44  1  0.40810187  0.36064043  0.75299147  1  0.042132  0  0.083979  0.111738  0  1.045902  0
H  H45  1  0.90811254  0.13936781  0.74700832  1  0.041689  0  0.083953  0.111702  0  1.045906  0
H  H46  1  0.59189684  0.63936066  0.24700795  1  0.04211  0  0.084009  0.111768  0  1.045922  0
H  H47  1  0.09188864  0.86063050  0.25299217  1  0.04168  0  0.08395  0.111741  0  1.045882  0
H  H48  1  0.26497947  0.45300433  0.74280273  1  0.003148  0  0.093308  0.127142  0  0.988839  0
H  H49  1  0.76499101  0.04700117  0.75719832  1  0.003296  0  0.093338  0.127177  0  0.988875  0
H  H50  1  0.73501675  0.54699607  0.25719723  1  0.003159  0  0.093302  0.127145  0  0.988872  0
H  H51  1  0.23500893  0.95299644  0.24280271  1  0.003331  0  0.093325  0.127148  0  0.988947  0
H  H52  1  0.24144343  0.34838326  0.69050408  1  0.066754  0  0.094664  0.139295  0  1.011847  0
H  H53  1  0.74145016  0.15162074  0.80949764  1  0.066658  0  0.094676  0.139346  0  1.011841  0
H  H54  1  0.75855403  0.65161645  0.30949643  1  0.066751  0  0.094687  0.139347  0  1.011903  0
H  H55  1  0.25854978  0.84837619  0.19050449  1  0.066653  0  0.094684  0.139392  0  1.011828  0
H  H56  1  0.03822472  0.35470605  0.79528522  1  0.097877  0  0.103488  0.113344  0  0.989438  0
H  H57  1  0.53823536  0.14528932  0.70471474  1  0.097859  0  0.103473  0.11335  0  0.989264  0
H  H58  1  0.96177398  0.64529085  0.20471362  1  0.097932  0  0.103479  0.113338  0  0.989458  0
H  H59  1  0.46176334  0.85470830  0.29528684  1  0.097955  0  0.103517  0.113373  0  0.98926  0
H  H60  1  0.19829459  0.37197914  0.85867883  1  0.038649  0  0.103936  0.10777  0  0.992863  0
H  H61  1  0.69831161  0.12802535  0.64132256  1  0.038659  0  0.103953  0.107759  0  0.992982  0
H  H62  1  0.80170039  0.62802196  0.14132223  1  0.038649  0  0.103933  0.107779  0  0.992946  0
H  H63  1  0.30168709  0.87197366  0.35867848  1  0.038671  0  0.10396  0.107789  0  0.993051  0
H  H64  1  0.30544616  0.98768395  0.70391702  1  0.094264  0  0.101343  0.115268  0  1.030309  0
H  H65  1  0.80543262  0.51232755  0.79607636  1  0.094047  0  0.101356  0.115232  0  1.030345  0
H  H66  1  0.69455874  0.01231851  0.29607913  1  0.093966  0  0.101381  0.11525  0  1.030327  0
H  H67  1  0.19456608  0.48767496  0.20392526  1  0.093935  0  0.101374  0.115285  0  1.030336  0
H  H68  1  0.24971879  0.84935251  0.78170778  1  0.110503  0  0.104696  0.113169  0  0.99799  0
H  H69  1  0.74970437  0.65065310  0.71828146  1  0.110085  0  0.104777  0.113241  0  0.997981  0
H  H70  1  0.75028363  0.15064644  0.21828670  1  0.110126  0  0.104738  0.113202  0  0.997999  0
H  H71  1  0.25031169  0.34934658  0.28171631  1  0.110304  0  0.104749  0.113202  0  0.99789  0
H  H72  1  0.07511176  0.02638750  0.95918900  1  0.150936  0  0.108073  0.1294  0  1.053444  0
H  H73  1  0.57510549  0.47360313  0.54080854  1  0.1509  0  0.108082  0.12938  0  1.053411  0
H  H74  1  0.92489438  0.97361080  0.04080986  1  0.150857  0  0.10806  0.129353  0  1.05347  0
H  H75  1  0.42491056  0.52639656  0.45919032  1  0.150835  0  0.108108  0.129464  0  1.053414  0
C  C76  1  0.54146060  0.12840850  0.95065694  1  -0.065308  0  -0.245374  -0.343636  0  3.915178  0
C  C77  1  0.04146536  0.37158829  0.54934465  1  -0.065201  0  -0.245406  -0.343714  0  3.915024  0
C  C78  1  0.45853811  0.87158704  0.04934627  1  -0.065216  0  -0.24543  -0.343657  0  3.915054  0
C  C79  1  0.95853582  0.62841003  0.45065748  1  -0.065216  0  -0.245384  -0.343654  0  3.91506  0
C  C80  1  0.43971432  0.14428639  0.02089769  1  -0.049857  0  -0.151538  -0.209179  0  3.969732  0
C  C81  1  0.93971955  0.35571096  0.47910163  1  -0.050012  0  -0.151488  -0.209244  0  3.969872  0
C  C82  1  0.56028314  0.85571192  0.97910335  1  -0.050028  0  -0.151505  -0.209256  0  3.96975  0
C  C83  1  0.06027915  0.64428945  0.52089942  1  -0.049995  0  -0.151445  -0.209205  0  3.969822  0
C  C84  1  0.41666344  0.24499980  0.03966119  1  1.030981  0  0.242781  0.387615  0  3.918792  0
C  C85  1  0.91667142  0.25499813  0.46033717  1  1.030993  0  0.242764  0.387591  0  3.91882  0
C  C86  1  0.58333154  0.75499920  0.96033767  1  1.030944  0  0.242788  0.387573  0  3.918799  0
C  C87  1  0.08332480  0.74500367  0.53966335  1  1.031005  0  0.242734  0.387612  0  3.918863  0
C  C88  1  0.47699611  0.38867473  0.07859555  1  0.332482  0  0.102479  0.159056  0  4.026003  0
C  C89  1  0.97699806  0.11132349  0.42140414  1  0.332675  0  0.102515  0.159137  0  4.025838  0
C  C90  1  0.52300135  0.61132359  0.92140659  1  0.332663  0  0.102381  0.159031  0  4.02587  0
C  C91  1  0.02299444  0.88867689  0.57859363  1  0.332717  0  0.102431  0.159071  0  4.025956  0
C  C92  1  0.54886844  0.47134011  0.10496910  1  0.05597  0  -0.089409  -0.163047  0  3.995811  0
C  C93  1  0.04886776  0.02865821  0.39503006  1  0.055872  0  -0.089359  -0.162957  0  3.99575  0
C  C94  1  0.45112903  0.52865819  0.89503084  1  0.055847  0  -0.089353  -0.162982  0  3.995739  0
C  C95  1  0.95112227  0.97134149  0.60496989  1  0.055764  0  -0.089408  -0.162979  0  3.995822  0
C  C96  1  0.45097727  0.55106130  0.10390490  1  -0.00245  0  -0.092591  -0.107962  0  4.020875  0
C  C97  1  0.95096994  0.94893641  0.39609616  1  -0.002428  0  -0.09271  -0.108172  0  4.020941  0
C  C98  1  0.54902516  0.44893769  0.89609451  1  -0.00247  0  -0.092636  -0.108016  0  4.020926  0
C  C99  1  0.04901637  0.05106329  0.60390380  1  -0.002654  0  -0.092555  -0.107975  0  4.021028  0
C  C100  1  0.28640928  0.54894786  0.07732028  1  0.030425  0  -0.032273  -0.06487  0  4.033579  0
C  C101  1  0.78640376  0.95105190  0.42268274  1  0.03037  0  -0.032184  -0.064751  0  4.033664  0
C  C102  1  0.71359067  0.45105253  0.92267914  1  0.030418  0  -0.032225  -0.064823  0  4.03358  0
C  C103  1  0.21358255  0.04895060  0.57731834  1  0.030713  0  -0.032228  -0.064911  0  4.033651  0
C  C104  1  0.21527563  0.46597337  0.05087359  1  -0.093466  0  -0.086088  -0.16936  0  3.936547  0
C  C105  1  0.71527324  0.03402644  0.44912801  1  -0.093494  0  -0.085972  -0.169042  0  3.936482  0
C  C106  1  0.78472556  0.53402841  0.94912583  1  -0.093465  0  -0.086065  -0.169297  0  3.936459  0
C  C107  1  0.28471679  0.96597743  0.55087034  1  -0.093618  0  -0.086143  -0.169293  0  3.93656  0
C  C108  1  0.31248761  0.38570824  0.05145488  1  0.343866  0  0.084592  0.14361  0  4.056478  0
C  C109  1  0.81248889  0.11429062  0.44854511  1  0.343974  0  0.084548  0.143393  0  4.056582  0
C  C110  1  0.68750985  0.61429284  0.94854290  1  0.343711  0  0.084579  0.143457  0  4.056609  0
C  C111  1  0.18750361  0.88571187  0.55145487  1  0.343951  0  0.084595  0.143464  0  4.05642  0
C  C112  1  0.18642606  0.63662886  0.07766572  1  1.533667  0  0.206577  0.567984  0  4.212445  0
C  C113  1  0.68642175  0.86337319  0.42233345  1  1.533087  0  0.206574  0.567918  0  4.212706  0
C  C114  1  0.81357388  0.36337292  0.92233261  1  1.533583  0  0.206641  0.568035  0  4.212508  0
C  C115  1  0.31357448  0.13662929  0.57766543  1  1.533631  0  0.206646  0.56814  0  4.212503  0
C  C116  1  0.27684479  0.37683381  0.74436183  1  -0.037044  0  -0.246172  -0.350685  0  3.921511  0
C  C117  1  0.77685252  0.12317244  0.75563863  1  -0.036932  0  -0.246204  -0.350744  0  3.921628  0
C  C118  1  0.72315392  0.62316659  0.25563868  1  -0.037031  0  -0.246211  -0.350775  0  3.921656  0
C  C119  1  0.22314742  0.87682588  0.24436241  1  -0.036936  0  -0.246232  -0.350834  0  3.921706  0
C  C120  1  0.16939378  0.33813894  0.80565343  1  -0.031847  0  -0.151535  -0.201788  0  3.972613  0
C  C121  1  0.66940245  0.16186192  0.69434754  1  -0.031477  0  -0.151501  -0.201778  0  3.972623  0
C  C122  1  0.83060617  0.66186005  0.19434597  1  -0.031906  0  -0.151533  -0.201798  0  3.972639  0
C  C123  1  0.33059501  0.83813779  0.30565406  1  -0.031607  0  -0.151507  -0.201803  0  3.972672  0
C  C124  1  0.18182023  0.23526274  0.81565831  1  1.04567  0  0.238164  0.372116  0  3.932785  0
C  C125  1  0.68182076  0.26473958  0.68434260  1  1.045666  0  0.238145  0.372204  0  3.932861  0
C  C126  1  0.81818467  0.76473695  0.18434110  1  1.045982  0  0.238135  0.372135  0  3.932753  0
C  C127  1  0.31817423  0.73526014  0.31565900  1  1.046001  0  0.238097  0.372172  0  3.932763  0
C  C128  1  0.22146128  0.08452227  0.78958199  1  0.363236  0  0.093987  0.140824  0  4.036839  0
C  C129  1  0.72145216  0.41548162  0.71041764  1  0.363924  0  0.094025  0.140821  0  4.036834  0
C  C130  1  0.77854734  0.91547950  0.21041579  1  0.363819  0  0.093983  0.14074  0  4.036867  0
C  C131  1  0.27854530  0.58452021  0.28958562  1  0.363881  0  0.094041  0.140903  0  4.036741  0
C  C132  1  0.25798687  0.99648754  0.75938873  1  -0.068815  0  -0.098159  -0.170525  0  4.010852  0
C  C133  1  0.75797467  0.50352305  0.74060598  1  -0.068718  0  -0.098205  -0.170444  0  4.010928  0
C  C134  1  0.74201927  0.00351353  0.24060905  1  -0.068643  0  -0.09816  -0.17041  0  4.010675  0
C  C135  1  0.24202527  0.49647945  0.25939400  1  -0.068483  0  -0.098224  -0.170641  0  4.010812  0
C  C136  1  0.22623016  0.91975072  0.80277884  1  0.041758  0  -0.091849  -0.103449  0  4.002707  0
C  C137  1  0.72621650  0.58025414  0.69721544  1  0.042054  0  -0.091948  -0.103563  0  4.002671  0
C  C138  1  0.77377350  0.08025035  0.19721784  1  0.042391  0  -0.091919  -0.103513  0  4.002681  0
C  C139  1  0.27379212  0.41974768  0.30278673  1  0.04227  0  -0.091869  -0.103395  0  4.002379  0
C  C140  1  0.15797748  0.92970134  0.87382529  1  -0.026498  0  -0.02921  -0.053761  0  4.011544  0
C  C141  1  0.65796183  0.57030110  0.62616823  1  -0.026567  0  -0.029222  -0.053971  0  4.01138  0
C  C142  1  0.84202494  0.07029765  0.12617302  1  -0.026722  0  -0.02923  -0.053857  0  4.011494  0
C  C143  1  0.34205918  0.42970416  0.37383013  1  -0.02743  0  -0.029241  -0.053901  0  4.011368  0
C  C144  1  0.12743564  0.01807331  0.90463336  1  -0.117975  0  -0.085914  -0.166375  0  3.921039  0
C  C145  1  0.62743176  0.48192525  0.59536561  1  -0.118065  0  -0.085953  -0.166316  0  3.92131  0
C  C146  1  0.87257546  0.98192778  0.09536551  1  -0.117969  0  -0.085921  -0.166351  0  3.921116  0
C  C147  1  0.37258305  0.51807796  0.40463602  1  -0.117946  0  -0.08599  -0.166517  0  3.921401  0
C  C148  1  0.16187314  0.09556349  0.86210399  1  0.393184  0  0.086156  0.145278  0  4.05351  0
C  C149  1  0.66186453  0.40444080  0.63789376  1  0.392695  0  0.086171  0.14526  0  4.053632  0
C  C150  1  0.83813176  0.90443551  0.13789541  1  0.392611  0  0.086115  0.145254  0  4.053636  0
C  C151  1  0.33813789  0.59556029  0.36210621  1  0.392571  0  0.086183  0.145316  0  4.053725  0
C  C152  1  0.11217351  0.84376269  0.91492631  1  1.550537  0  0.208408  0.577928  0  4.207811  0
C  C153  1  0.61215400  0.65623324  0.58506575  1  1.550453  0  0.208346  0.578133  0  4.20751  0
C  C154  1  0.88782767  0.15623628  0.08507036  1  1.550723  0  0.208559  0.578328  0  4.207404  0
C  C155  1  0.38785709  0.34376573  0.41493146  1  1.551027  0  0.208334  0.578077  0  4.207474  0
N  N156  1  0.53727069  0.29912597  0.07049291  1  -1.292527  0  -0.364763  -0.305124  0  3.525221  0
N  N157  1  0.03727533  0.20087299  0.42950523  1  -1.292643  0  -0.364776  -0.305106  0  3.524935  0
N  N158  1  0.46272678  0.70087301  0.92950540  1  -1.292605  0  -0.364735  -0.305003  0  3.524978  0
N  N159  1  0.96271965  0.79912882  0.57049639  1  -1.292753  0  -0.364699  -0.304943  0  3.525109  0
N  N160  1  0.27906595  0.29476327  0.02720474  1  -1.227753  0  -0.353757  -0.412494  0  3.451108  0
N  N161  1  0.77907288  0.20523614  0.47279598  1  -1.227762  0  -0.353763  -0.412463  0  3.451187  0
N  N162  1  0.72092903  0.70523573  0.97279521  1  -1.227642  0  -0.353728  -0.412377  0  3.45123  0
N  N163  1  0.22092211  0.79476635  0.52720400  1  -1.227394  0  -0.353778  -0.412544  0  3.451224  0
N  N164  1  0.23078992  0.17385335  0.76204325  1  -1.319547  0  -0.374475  -0.324183  0  3.556556  0
N  N165  1  0.73078497  0.32615408  0.73795745  1  -1.319541  0  -0.374426  -0.324158  0  3.556674  0
N  N166  1  0.76921498  0.82614774  0.23795563  1  -1.319722  0  -0.37444  -0.324208  0  3.55627  0
N  N167  1  0.26921001  0.67384704  0.26204525  1  -1.319835  0  -0.374447  -0.324125  0  3.55664  0
N  N168  1  0.14204096  0.19073646  0.87709251  1  -1.226341  0  -0.356244  -0.415946  0  3.486745  0
N  N169  1  0.64204004  0.30926218  0.62290803  1  -1.226348  0  -0.356264  -0.416025  0  3.486826  0
N  N170  1  0.85796518  0.80926323  0.12290580  1  -1.226418  0  -0.356163  -0.415853  0  3.486863  0
N  N171  1  0.35795990  0.69073543  0.37709246  1  -1.226474  0  -0.356266  -0.416022  0  3.486813  0
O  O172  1  0.22639750  0.70511627  0.11851598  1  -1.197833  0  -0.322197  -0.572229  0  2.243019  0
O  O173  1  0.72639946  0.79488044  0.38148897  1  -1.19783  0  -0.322231  -0.572297  0  2.242974  0
O  O174  1  0.77359748  0.29488275  0.88148616  1  -1.197821  0  -0.322229  -0.572295  0  2.24297  0
O  O175  1  0.27359800  0.20511997  0.61851154  1  -1.197838  0  -0.322258  -0.57237  0  2.242988  0
O  O176  1  0.05957286  0.63664108  0.03468529  1  -1.169553  0  -0.322975  -0.541484  0  2.384941  0
O  O177  1  0.55955998  0.86335892  0.46530686  1  -1.169063  0  -0.322965  -0.54144  0  2.385132  0
O  O178  1  0.94042956  0.36335998  0.96531084  1  -1.169519  0  -0.323019  -0.541513  0  2.385044  0
O  O179  1  0.44043501  0.13664006  0.53469091  1  -1.169604  0  -0.322993  -0.541515  0  2.385096  0
O  O180  1  0.16137690  0.76472121  0.89307400  1  -1.190761  0  -0.333716  -0.567262  0  2.164457  0
O  O181  1  0.66135921  0.73527701  0.60691453  1  -1.190187  0  -0.333684  -0.56729  0  2.164432  0
O  O182  1  0.83862057  0.23527706  0.10692211  1  -1.190651  0  -0.333789  -0.567452  0  2.164349  0
O  O183  1  0.33864321  0.26472477  0.39308380  1  -1.190373  0  -0.333703  -0.567345  0  2.164475  0
O  O184  1  0.01953857  0.85762528  0.97203560  1  -1.174626  0  -0.32805  -0.556001  0  2.371346  0
O  O185  1  0.51951417  0.64236955  0.52795967  1  -1.174902  0  -0.327974  -0.556018  0  2.371348  0
O  O186  1  0.98046385  0.14237438  0.02796053  1  -1.174742  0  -0.328074  -0.556164  0  2.371339  0
O  O187  1  0.48049320  0.35762874  0.47203918  1  -1.174883  0  -0.327971  -0.555946  0  2.371243  0
