# generated using pymatgen
data_CdH16C26S2(N7O3)2
_symmetry_space_group_name_H-M   'P 1'
_cell_length_a   7.46075906
_cell_length_b   8.67500437
_cell_length_c   13.05738362
_cell_angle_alpha   104.22026031
_cell_angle_beta   101.64756782
_cell_angle_gamma   102.43354359
_symmetry_Int_Tables_number   1
_chemical_formula_structural   CdH16C26S2(N7O3)2
_chemical_formula_sum   'Cd1 H16 C26 S2 N14 O6'
_cell_volume   770.47247620
_cell_formula_units_Z   1
loop_
 _symmetry_equiv_pos_site_id
 _symmetry_equiv_pos_as_xyz
  1  'x, y, z'
loop_
 _atom_site_type_symbol
 _atom_site_label
 _atom_site_symmetry_multiplicity
 _atom_site_fract_x
 _atom_site_fract_y
 _atom_site_fract_z
 _atom_site_occupancy
 _atom_site_hle17_bader_spin_density
 _atom_site_hle17_ddec_charge
 _atom_site_hle17_ddec_spin_density
 _atom_site_hle17_ddec_sum_bond_order
 _atom_site_hle17_magmom
 _atom_site_hse06_10hf_bader_spin_density
 _atom_site_hse06_10hf_ddec_charge
 _atom_site_hse06_10hf_ddec_spin_density
 _atom_site_hse06_10hf_ddec_sum_bond_order
 _atom_site_hse06_10hf_magmom
 _atom_site_hse06_bader_spin_density
 _atom_site_hse06_ddec_charge
 _atom_site_hse06_ddec_spin_density
 _atom_site_hse06_ddec_sum_bond_order
 _atom_site_hse06_magmom
 _atom_site_pbe_bader_spin_density
 _atom_site_pbe_cm5_charge
 _atom_site_pbe_ddec_charge
 _atom_site_pbe_ddec_spin_density
 _atom_site_pbe_ddec_sum_bond_order
 _atom_site_pbe_magmom
Cd  Cd0  1  0.99999981  0.00000119  0.49999978  1  0  1.050261  0  1.73234  0  0  0.832949  0  2.188457  0  0  0.889796  0  2.140264  0  0  0.790487  0.792645  0  2.22133  0
H  H1  1  0.50186599  0.46787038  0.30364213  1  0  0.112072  0  0.946652  0  0  0.118396  0  1.014911  0  0  0.121934  0  1.011171  0  0  0.111434  0.115841  0  1.017498  0
H  H2  1  0.49813363  0.53212894  0.69635922  1  0  0.112007  0  0.946696  0  0  0.11838  0  1.014896  0  0  0.121917  0  1.011158  0  0  0.111423  0.115824  0  1.017484  0
H  H3  1  0.60678052  0.23452919  0.34984501  1  0  0.118423  0  0.95018  0  0  0.12223  0  1.017714  0  0  0.125783  0  1.016086  0  0  0.109149  0.11965  0  1.019057  0
H  H4  1  0.39321553  0.76546762  0.65015170  1  0  0.118432  0  0.950182  0  0  0.122232  0  1.017732  0  0  0.125783  0  1.016115  0  0  0.109128  0.119653  0  1.019074  0
H  H5  1  0.42187848  0.06896672  0.44621830  1  0  0.082597  0  0.949254  0  0  0.088446  0  1.020399  0  0  0.09109  0  1.017427  0  0  0.111413  0.086437  0  1.022631  0
H  H6  1  0.57811623  0.93103010  0.55378057  1  0  0.082616  0  0.949222  0  0  0.088483  0  1.020338  0  0  0.091126  0  1.017366  0  0  0.111421  0.086441  0  1.022607  0
H  H7  1  0.03786817  0.35102494  0.44973456  1  0  0.089005  0  0.976948  0  0  0.088388  0  1.056057  0  0  0.092287  0  1.051875  0  0  0.117386  0.085541  0  1.05896  0
H  H8  1  0.96213400  0.64897809  0.55026691  1  0  0.089074  0  0.976953  0  0  0.088414  0  1.056116  0  0  0.092329  0  1.051919  0  0  0.117401  0.085566  0  1.059021  0
H  H9  1  0.13556276  0.88792542  0.98911362  1  0  0.100439  0  0.944062  0  0  0.114924  0  0.997713  0  0  0.118097  0  0.99629  0  0  0.10414  0.112591  0  0.998953  0
H  H10  1  0.86443997  0.11207512  0.01088598  1  0  0.100436  0  0.944075  0  0  0.114894  0  0.997754  0  0  0.118097  0  0.996295  0  0  0.104136  0.11256  0  0.998993  0
H  H11  1  0.16884980  0.83697549  0.79929520  1  0  0.080789  0  0.972788  0  0  0.081877  0  1.046668  0  0  0.085643  0  1.042935  0  0  0.105198  0.079078  0  1.049392  0
H  H12  1  0.83115292  0.16302505  0.20070363  1  0  0.080848  0  0.972839  0  0  0.08194  0  1.046708  0  0  0.085703  0  1.042973  0  0  0.10524  0.079142  0  1.04943  0
H  H13  1  0.33861278  0.41410339  0.80877783  1  0  0.076951  0  0.94142  0  0  0.082598  0  1.009355  0  0  0.085028  0  1.007643  0  0  0.108241  0.080779  0  1.010657  0
H  H14  1  0.66138644  0.58589468  0.19122327  1  0  0.076943  0  0.941467  0  0  0.08261  0  1.009381  0  0  0.08504  0  1.007667  0  0  0.108242  0.080792  0  1.010683  0
H  H15  1  0.30613489  0.44388681  0.99772639  1  0  0.115275  0  0.945078  0  0  0.123873  0  1.006495  0  0  0.127435  0  1.005177  0  0  0.110143  0.121354  0  1.007432  0
H  H16  1  0.69385766  0.55610753  0.00227260  1  0  0.115341  0  0.944988  0  0  0.123876  0  1.006487  0  0  0.127438  0  1.00517  0  0  0.110164  0.121357  0  1.007424  0
C  C17  1  0.19842793  0.57097232  0.36020053  1  0  0.256578  0  3.725559  0  0  0.217752  0  4.001653  0  0  0.231292  0  4.015898  0  0  0.233925  0.201674  0  3.990915  0
C  C18  1  0.80157777  0.42903318  0.63980174  1  0  0.256688  0  3.725669  0  0  0.217845  0  4.001762  0  0  0.231394  0  4.015999  0  0  0.233913  0.201703  0  3.991014  0
C  C19  1  0.19381207  0.68633498  0.11954013  1  0  0.134458  0  3.719761  0  0  0.119385  0  4.017464  0  0  0.131168  0  4.028089  0  0  0.148079  0.110823  0  4.01322  0
C  C20  1  0.80618872  0.31366804  0.88045965  1  0  0.134546  0  3.719613  0  0  0.119417  0  4.017369  0  0  0.131198  0  4.027994  0  0  0.148048  0.110846  0  4.013146  0
C  C21  1  0.12463633  0.76706384  0.29448963  1  0  0.211856  0  3.777452  0  0  0.176007  0  4.075039  0  0  0.190641  0  4.090082  0  0  0.227022  0.159604  0  4.063811  0
C  C22  1  0.87536446  0.23293918  0.70551092  1  0  0.21205  0  3.777517  0  0  0.176179  0  4.07509  0  0  0.190824  0  4.090121  0  0  0.227073  0.159725  0  4.063839  0
C  C23  1  0.26241011  0.42895886  0.37497618  1  0  -0.044047  0  3.799285  0  0  -0.021315  0  4.035682  0  0  -0.029642  0  4.060795  0  0  -0.002156  -0.016385  0  4.020467  0
C  C24  1  0.73759343  0.57104417  0.62502622  1  0  -0.044194  0  3.799467  0  0  -0.021439  0  4.035862  0  0  -0.029766  0  4.06098  0  0  -0.002188  -0.016501  0  4.020638  0
C  C25  1  0.42184385  0.39329010  0.34419847  1  0  -0.028824  0  3.670804  0  0  -0.061358  0  3.923447  0  0  -0.056683  0  3.939957  0  0  -0.062726  -0.063907  0  3.911793  0
C  C26  1  0.57815754  0.60671045  0.65580328  1  0  -0.028717  0  3.6708  0  0  -0.061287  0  3.923444  0  0  -0.05661  0  3.939951  0  0  -0.062735  -0.063836  0  3.91179  0
C  C27  1  0.48028081  0.26224300  0.36970836  1  0  -0.112232  0  3.735603  0  0  -0.125844  0  3.998699  0  0  -0.133644  0  4.020468  0  0  -0.082031  -0.120878  0  3.983921  0
C  C28  1  0.51971977  0.73775507  0.63029213  1  0  -0.112289  0  3.735599  0  0  -0.125905  0  3.998712  0  0  -0.13371  0  4.020481  0  0  -0.081995  -0.120936  0  3.983923  0
C  C29  1  0.37815591  0.17093178  0.42393794  1  0  0.12543  0  3.704418  0  0  0.087546  0  3.966741  0  0  0.095408  0  3.984985  0  0  0.039663  0.082571  0  3.954119  0
C  C30  1  0.62184155  0.82906505  0.57606200  1  0  0.125474  0  3.70445  0  0  0.087593  0  3.966731  0  0  0.095457  0  3.984971  0  0  0.039682  0.08264  0  3.954119  0
C  C31  1  0.16499975  0.32864596  0.42700644  1  0  0.116961  0  3.645607  0  0  0.079876  0  3.890766  0  0  0.087356  0  3.907669  0  0  0.053347  0.075331  0  3.878828  0
C  C32  1  0.83500202  0.67135582  0.57299402  1  0  0.11699  0  3.64562  0  0  0.07988  0  3.890865  0  0  0.087357  0  3.907737  0  0  0.053362  0.075332  0  3.878929  0
C  C33  1  0.21663988  0.66817298  0.00915629  1  0  0.069904  0  3.811943  0  0  0.08624  0  4.044194  0  0  0.086226  0  4.067194  0  0  0.004347  0.086509  0  4.028327  0
C  C34  1  0.78336246  0.33182632  0.99084383  1  0  0.069929  0  3.811915  0  0  0.08628  0  4.044179  0  0  0.086262  0  4.067191  0  0  0.004388  0.086549  0  4.028312  0
C  C35  1  0.17910422  0.77977833  0.95206684  1  0  -0.135646  0  3.687737  0  0  -0.156299  0  3.925903  0  0  -0.161484  0  3.945976  0  0  -0.080552  -0.152881  0  3.91232  0
C  C36  1  0.82089439  0.22022220  0.04793153  1  0  -0.135713  0  3.687868  0  0  -0.156335  0  3.926042  0  0  -0.161546  0  3.946107  0  0  -0.080567  -0.152915  0  3.912458  0
C  C37  1  0.19845353  0.75183076  0.84550275  1  0  0.122411  0  3.715672  0  0  0.100918  0  3.974637  0  0  0.106037  0  3.990791  0  0  0.042505  0.097611  0  3.963696  0
C  C38  1  0.80154899  0.24816483  0.15449679  1  0  0.122373  0  3.715664  0  0  0.100875  0  3.974622  0  0  0.105997  0  3.990781  0  0  0.042459  0.097568  0  3.963682  0
C  C39  1  0.29193408  0.51760992  0.85053705  1  0  0.104519  0  3.745822  0  0  0.08052  0  4.013315  0  0  0.085205  0  4.030626  0  0  0.034556  0.07745  0  4.001639  0
C  C40  1  0.70806434  0.48238567  0.14946279  1  0  0.104451  0  3.745985  0  0  0.080444  0  4.013462  0  0  0.085127  0  4.030777  0  0  0.034538  0.077374  0  4.001786  0
C  C41  1  0.27505293  0.53373435  0.95652738  1  0  -0.136878  0  3.694481  0  0  -0.160445  0  3.943044  0  0  -0.166196  0  3.964669  0  0  -0.079988  -0.156639  0  3.928241  0
C  C42  1  0.72494079  0.46626371  0.04347081  1  0  -0.13689  0  3.694407  0  0  -0.160412  0  3.943008  0  0  -0.166163  0  3.964631  0  0  -0.080029  -0.156603  0  3.928198  0
S  S43  1  0.10997014  0.84866894  0.18704143  1  0  0.128625  0  2.395042  0  0  0.12017  0  2.70971  0  0  0.119014  0  2.707175  0  0  0.152512  0.120131  0  2.713992  0
S  S44  1  0.89003298  0.15133283  0.81295765  1  0  0.128565  0  2.394991  0  0  0.120133  0  2.709682  0  0  0.118973  0  2.707153  0  0  0.152513  0.120087  0  2.713975  0
N  N45  1  0.09425339  0.79263994  0.39317999  1  0  -0.291364  0  3.139378  0  0  -0.233093  0  3.435134  0  0  -0.251438  0  3.451315  0  0  -0.241587  -0.220862  0  3.426368  0
N  N46  1  0.90574780  0.20736432  0.60682081  1  0  -0.291484  0  3.139439  0  0  -0.233191  0  3.435182  0  0  -0.25154  0  3.451367  0  0  -0.241616  -0.220965  0  3.426432  0
N  N47  1  0.14100113  0.66980590  0.43383863  1  0  -0.227472  0  2.907376  0  0  -0.209108  0  3.188058  0  0  -0.217887  0  3.203709  0  0  -0.19812  -0.203472  0  3.180038  0
N  N48  1  0.85900319  0.33019960  0.56616272  1  0  -0.227408  0  2.907277  0  0  -0.209056  0  3.187957  0  0  -0.217837  0  3.203603  0  0  -0.198102  -0.203425  0  3.179961  0
N  N49  1  0.19009880  0.62951586  0.27099301  1  0  -0.020892  0  3.633374  0  0  0.06101  0  3.856664  0  0  0.047755  0  3.880415  0  0  -0.107341  0.091762  0  3.812662  0
N  N50  1  0.80990336  0.37048716  0.72900770  1  0  -0.021163  0  3.633612  0  0  0.060786  0  3.856872  0  0  0.047513  0  3.880622  0  0  -0.107341  0.091734  0  3.812623  0
N  N51  1  0.22711246  0.58109601  0.17266438  1  0  -0.194344  0  2.920197  0  0  -0.19581  0  3.199429  0  0  -0.202126  0  3.212664  0  0  -0.185839  -0.198959  0  3.186736  0
N  N52  1  0.77289284  0.41890825  0.82733765  1  0  -0.194297  0  2.920273  0  0  -0.195766  0  3.19954  0  0  -0.202072  0  3.212771  0  0  -0.185843  -0.198972  0  3.1868  0
N  N53  1  0.22176926  0.20201699  0.45090705  1  0  -0.321803  0  3.226234  0  0  -0.24349  0  3.488197  0  0  -0.263319  0  3.506573  0  0  -0.323666  -0.229909  0  3.475157  0
N  N54  1  0.77822938  0.79798356  0.54909363  1  0  -0.321854  0  3.226338  0  0  -0.243522  0  3.488291  0  0  -0.263348  0  3.506673  0  0  -0.323679  -0.229939  0  3.475241  0
N  N55  1  0.25350232  0.62289640  0.79444117  1  0  -0.299828  0  3.042289  0  0  -0.267028  0  3.313004  0  0  -0.276867  0  3.328035  0  0  -0.320267  -0.260305  0  3.302771  0
N  N56  1  0.74650003  0.37710290  0.20555896  1  0  -0.299778  0  3.042266  0  0  -0.266975  0  3.31298  0  0  -0.276815  0  3.32801  0  0  -0.320228  -0.260253  0  3.302749  0
N  N57  1  0.32908284  0.08594236  0.72284692  1  0  0.686913  0  4.152452  0  0  0.736291  0  4.426131  0  0  0.765335  0  4.430666  0  0  0.092425  0.716617  0  4.42241  0
N  N58  1  0.67091636  0.91405570  0.27715188  1  0  0.687031  0  4.152324  0  0  0.736334  0  4.426099  0  0  0.76538  0  4.430634  0  0  0.092399  0.71666  0  4.422384  0
O  O59  1  0.15352362  0.99573392  0.67952575  1  0  -0.530089  0  1.829356  0  0  -0.504653  0  2.069107  0  0  -0.526081  0  2.06059  0  0  -0.22385  -0.489136  0  2.074236  0
O  O60  1  0.84647461  0.00426538  0.32047314  1  0  -0.530187  0  1.829291  0  0  -0.504735  0  2.069092  0  0  -0.52615  0  2.060544  0  0  -0.223868  -0.489218  0  2.074223  0
O  O61  1  0.39491231  0.12640372  0.82484465  1  0  -0.445927  0  1.727153  0  0  -0.452775  0  1.927982  0  0  -0.466053  0  1.923807  0  0  -0.193696  -0.442917  0  1.93036  0
O  O62  1  0.60508826  0.87359434  0.17515431  1  0  -0.445957  0  1.727174  0  0  -0.452779  0  1.928028  0  0  -0.466059  0  1.923851  0  0  -0.193686  -0.442923  0  1.930414  0
O  O63  1  0.42636295  0.12906008  0.66100224  1  0  -0.468989  0  1.754732  0  0  -0.471695  0  1.970007  0  0  -0.486209  0  1.965538  0  0  -0.19892  -0.461416  0  1.973251  0
O  O64  1  0.57363625  0.87093798  0.33899656  1  0  -0.469  0  1.754664  0  0  -0.471679  0  1.969973  0  0  -0.4862  0  1.965509  0  0  -0.198886  -0.461398  0  1.973216  0
