# generated using pymatgen
data_HgH8C11IBr2N3O
_symmetry_space_group_name_H-M   'P 1'
_cell_length_a   7.84631478
_cell_length_b   7.85563772
_cell_length_c   13.65990923
_cell_angle_alpha   100.19712925
_cell_angle_beta   93.38432497
_cell_angle_gamma   114.14799556
_symmetry_Int_Tables_number   1
_chemical_formula_structural   HgH8C11IBr2N3O
_chemical_formula_sum   'Hg2 H16 C22 I2 Br4 N6 O2'
_cell_volume   748.00778583
_cell_formula_units_Z   2
loop_
 _symmetry_equiv_pos_site_id
 _symmetry_equiv_pos_as_xyz
  1  'x, y, z'
loop_
 _atom_site_type_symbol
 _atom_site_label
 _atom_site_symmetry_multiplicity
 _atom_site_fract_x
 _atom_site_fract_y
 _atom_site_fract_z
 _atom_site_occupancy
 _atom_site_hle17_bader_spin_density
 _atom_site_hle17_ddec_charge
 _atom_site_hle17_ddec_spin_density
 _atom_site_hle17_ddec_sum_bond_order
 _atom_site_hle17_magmom
 _atom_site_hse06_10hf_bader_spin_density
 _atom_site_hse06_10hf_ddec_charge
 _atom_site_hse06_10hf_ddec_spin_density
 _atom_site_hse06_10hf_ddec_sum_bond_order
 _atom_site_hse06_10hf_magmom
 _atom_site_hse06_bader_spin_density
 _atom_site_hse06_ddec_charge
 _atom_site_hse06_ddec_spin_density
 _atom_site_hse06_ddec_sum_bond_order
 _atom_site_hse06_magmom
 _atom_site_pbe_bader_spin_density
 _atom_site_pbe_cm5_charge
 _atom_site_pbe_ddec_charge
 _atom_site_pbe_ddec_spin_density
 _atom_site_pbe_ddec_sum_bond_order
 _atom_site_pbe_magmom
Hg  Hg0  1  0.73637261  0.98240052  0.48400042  1  0  0.618869  0  2.16465  0  0  0.485112  0  2.661003  0  0  0.53257  0  2.62909  0  0  0.414249  0.452704  0  2.682827  0
Hg  Hg1  1  0.26362890  0.01761347  0.51599744  1  0  0.618836  0  2.164748  0  0  0.485083  0  2.661089  0  0  0.532541  0  2.629179  0  0  0.414251  0.45267  0  2.682924  0
H  H2  1  0.36495158  0.26468320  0.23487125  1  0  0.078257  0  0.970601  0  0  0.079421  0  1.045514  0  0  0.082966  0  1.043111  0  0  0.101395  0.076815  0  1.047459  0
H  H3  1  0.63505960  0.73532915  0.76513550  1  0  0.07832  0  0.97054  0  0  0.079467  0  1.045458  0  0  0.083015  0  1.043051  0  0  0.101377  0.076853  0  1.047412  0
H  H4  1  0.42883012  0.52690842  0.38766534  1  0  0.087271  0  0.967537  0  0  0.089569  0  1.043583  0  0  0.092981  0  1.040137  0  0  0.098148  0.087019  0  1.046325  0
H  H5  1  0.57118667  0.47310823  0.61233836  1  0  0.087409  0  0.967394  0  0  0.089633  0  1.043519  0  0  0.093043  0  1.040073  0  0  0.098224  0.087097  0  1.046226  0
H  H6  1  0.82491373  0.91643251  0.25191245  1  0  0.094298  0  0.971047  0  0  0.0974  0  1.045083  0  0  0.101269  0  1.040706  0  0  0.108919  0.094537  0  1.048398  0
H  H7  1  0.17510771  0.08356832  0.74808748  1  0  0.094354  0  0.971051  0  0  0.097451  0  1.0451  0  0  0.101318  0  1.040722  0  0  0.108919  0.094588  0  1.048409  0
H  H8  1  0.81681352  0.17636590  0.71129733  1  0  0.082779  0  0.985163  0  0  0.0907  0  1.05814  0  0  0.093169  0  1.05657  0  0  0.081792  0.088919  0  1.05927  0
H  H9  1  0.18318572  0.82363086  0.28870008  1  0  0.082788  0  0.985122  0  0  0.090691  0  1.058101  0  0  0.093179  0  1.056511  0  0  0.081752  0.088912  0  1.059233  0
H  H10  1  0.03509180  0.47024360  0.66000783  1  0  0.091129  0  0.955285  0  0  0.100088  0  1.020874  0  0  0.103103  0  1.019794  0  0  0.087541  0.097978  0  1.021663  0
H  H11  1  0.96490364  0.52975319  0.33999021  1  0  0.091124  0  0.955227  0  0  0.10007  0  1.020838  0  0  0.103084  0  1.019761  0  0  0.087536  0.097957  0  1.021626  0
H  H12  1  0.13109853  0.78923409  0.77490617  1  0  0.082602  0  0.967844  0  0  0.091481  0  1.035303  0  0  0.094114  0  1.033365  0  0  0.088198  0.089546  0  1.036836  0
H  H13  1  0.86889573  0.21075980  0.22509519  1  0  0.082564  0  0.967771  0  0  0.091456  0  1.035235  0  0  0.094089  0  1.033297  0  0  0.088174  0.089521  0  1.03677  0
H  H14  1  0.99843973  0.81684563  0.93357902  1  0  0.132686  0  0.982826  0  0  0.138336  0  1.047326  0  0  0.143018  0  1.043391  0  0  0.105834  0.13506  0  1.050062  0
H  H15  1  0.00155390  0.18314684  0.06642144  1  0  0.132749  0  0.98273  0  0  0.13837  0  1.047274  0  0  0.143053  0  1.04334  0  0  0.105859  0.135095  0  1.05001  0
H  H16  1  0.66943124  0.39370171  0.01900154  1  0  0.264002  0  0.964071  0  0  0.234488  0  1.057994  0  0  0.243347  0  1.049838  0  0  0.286202  0.22818  0  1.063824  0
H  H17  1  0.33056626  0.60628784  0.98099944  1  0  0.264028  0  0.964107  0  0  0.234507  0  1.05804  0  0  0.243364  0  1.049887  0  0  0.286206  0.228194  0  1.063882  0
C  C18  1  0.46763107  0.41077031  0.23804706  1  0  0.08958  0  3.685102  0  0  0.067155  0  3.944107  0  0  0.067741  0  3.960384  0  0  0.05221  0.066452  0  3.933438  0
C  C19  1  0.53237314  0.58923785  0.76195538  1  0  0.08937  0  3.684993  0  0  0.067006  0  3.943923  0  0  0.06759  0  3.960204  0  0  0.05218  0.066305  0  3.933263  0
C  C20  1  0.50323286  0.55521334  0.32322257  1  0  0.092518  0  3.643004  0  0  0.062138  0  3.893059  0  0  0.067185  0  3.910725  0  0  0.050492  0.058779  0  3.88127  0
C  C21  1  0.49678223  0.44479038  0.67678116  1  0  0.092453  0  3.643052  0  0  0.062104  0  3.893104  0  0  0.067154  0  3.910772  0  0  0.05041  0.05875  0  3.881321  0
C  C22  1  0.71969319  0.77177211  0.24837660  1  0  0.067266  0  3.682437  0  0  0.027594  0  3.933889  0  0  0.033377  0  3.950018  0  0  0.052525  0.023725  0  3.92322  0
C  C23  1  0.28031874  0.22823022  0.75162615  1  0  0.067102  0  3.682561  0  0  0.027409  0  3.934048  0  0  0.033195  0  3.950175  0  0  0.052471  0.023535  0  3.923382  0
C  C24  1  0.68207953  0.62619210  0.16348862  1  0  0.059522  0  3.757281  0  0  0.068958  0  4.002334  0  0  0.065908  0  4.021043  0  0  0.119459  0.07047  0  3.990153  0
C  C25  1  0.31792419  0.37380600  0.83651346  1  0  0.05953  0  3.7575  0  0  0.068993  0  4.002569  0  0  0.065944  0  4.021279  0  0  0.119476  0.070503  0  3.990383  0
C  C26  1  0.78632048  0.67759190  0.07636860  1  0  0.508174  0  3.841137  0  0  0.462175  0  4.126053  0  0  0.49101  0  4.125689  0  0  0.238474  0.442849  0  4.125799  0
C  C27  1  0.21366931  0.32239779  0.92362633  1  0  0.508065  0  3.841488  0  0  0.461995  0  4.126515  0  0  0.490824  0  4.126162  0  0  0.238445  0.442677  0  4.126236  0
C  C28  1  0.83417393  0.51244785  0.91419258  1  0  0.228884  0  3.780429  0  0  0.219813  0  4.026251  0  0  0.227739  0  4.049106  0  0  0.089448  0.21461  0  4.010576  0
C  C29  1  0.16582155  0.48754606  0.08580589  1  0  0.22897  0  3.780533  0  0  0.219955  0  4.026261  0  0  0.227868  0  4.049129  0  0  0.089493  0.214757  0  4.010583  0
C  C30  1  0.78488369  0.33222844  0.84976969  1  0  -0.078033  0  3.63064  0  0  -0.053889  0  3.882295  0  0  -0.055918  0  3.907145  0  0  -0.059602  -0.052709  0  3.865479  0
C  C31  1  0.21511684  0.66776829  0.15022922  1  0  -0.078168  0  3.630774  0  0  -0.054022  0  3.882398  0  0  -0.056048  0  3.907258  0  0  -0.059672  -0.052853  0  3.865601  0
C  C32  1  0.85644837  0.31732172  0.75917322  1  0  -0.099559  0  3.81402  0  0  -0.116828  0  4.060812  0  0  -0.119489  0  4.087245  0  0  -0.110184  -0.114699  0  4.042667  0
C  C33  1  0.14353817  0.68267231  0.24082135  1  0  -0.09949  0  3.814033  0  0  -0.116725  0  4.060776  0  0  -0.119406  0  4.08721  0  0  -0.109997  -0.114596  0  4.042633  0
C  C34  1  0.98013566  0.48178269  0.73118481  1  0  -0.079967  0  3.779312  0  0  -0.094189  0  4.028934  0  0  -0.099591  0  4.054716  0  0  -0.106811  -0.090417  0  4.011183  0
C  C35  1  0.01986115  0.51820833  0.26881412  1  0  -0.079903  0  3.779234  0  0  -0.094125  0  4.028884  0  0  -0.099526  0  4.054665  0  0  -0.106842  -0.090347  0  4.01112  0
C  C36  1  0.03198089  0.66018256  0.79501991  1  0  -0.048938  0  3.780304  0  0  -0.064302  0  4.034518  0  0  -0.063696  0  4.055441  0  0  -0.100228  -0.06448  0  4.020178  0
C  C37  1  0.96801331  0.33981137  0.20497779  1  0  -0.048969  0  3.780208  0  0  -0.064331  0  4.034402  0  0  -0.063724  0  4.055322  0  0  -0.100246  -0.064511  0  4.020058  0
C  C38  1  0.95970784  0.67706216  0.88514687  1  0  -0.15613  0  3.68056  0  0  -0.175092  0  3.929214  0  0  -0.180225  0  3.948199  0  0  -0.097079  -0.171585  0  3.916199  0
C  C39  1  0.04028825  0.32293320  0.11485031  1  0  -0.156203  0  3.680622  0  0  -0.175182  0  3.929323  0  0  -0.180315  0  3.948315  0  0  -0.097118  -0.171675  0  3.916304  0
I  I40  1  0.60344680  0.07854873  0.88965479  1  0  0.049346  0  1.462012  0  0  0.040149  0  1.790507  0  0  0.036389  0  1.780134  0  0  0.139448  0.043109  0  1.798018  0
I  I41  1  0.39655183  0.92144660  0.11034246  1  0  0.049373  0  1.462004  0  0  0.040144  0  1.790517  0  0  0.036386  0  1.780147  0  0  0.139426  0.04311  0  1.798038  0
Br  Br42  1  0.87989521  0.83028968  0.59387862  1  0  -0.36408  0  1.168901  0  0  -0.303848  0  1.493371  0  0  -0.32483  0  1.4741  0  0  -0.181099  -0.2895  0  1.506918  0
Br  Br43  1  0.12011059  0.16974285  0.40613013  1  0  -0.36405  0  1.168938  0  0  -0.303818  0  1.493409  0  0  -0.324799  0  1.474136  0  0  -0.181099  -0.289467  0  1.506958  0
Br  Br44  1  0.64928916  0.24316057  0.44543957  1  0  -0.36882  0  1.128974  0  0  -0.31486  0  1.447354  0  0  -0.334978  0  1.428925  0  0  -0.197874  -0.301089  0  1.460291  0
Br  Br45  1  0.35070296  0.75684346  0.55455696  1  0  -0.368794  0  1.128939  0  0  -0.314832  0  1.447297  0  0  -0.334952  0  1.428869  0  0  -0.197875  -0.301067  0  1.460252  0
N  N46  1  0.55861363  0.44517822  0.15881406  1  0  -0.263175  0  3.067793  0  0  -0.233448  0  3.33148  0  0  -0.237952  0  3.345448  0  0  -0.291678  -0.230069  0  3.322287  0
N  N47  1  0.44138307  0.55482140  0.84118652  1  0  -0.263083  0  3.067666  0  0  -0.233365  0  3.331325  0  0  -0.23787  0  3.345297  0  0  -0.291649  -0.229987  0  3.322138  0
N  N48  1  0.63171085  0.73435922  0.32813746  1  0  -0.243338  0  3.259634  0  0  -0.168188  0  3.519594  0  0  -0.186725  0  3.541808  0  0  -0.297164  -0.155483  0  3.504203  0
N  N49  1  0.36830171  0.26564168  0.67186370  1  0  -0.243283  0  3.259668  0  0  -0.168113  0  3.519602  0  0  -0.186649  0  3.541818  0  0  -0.297137  -0.155408  0  3.504207  0
N  N50  1  0.75773281  0.52128810  0.00357347  1  0  -0.421541  0  3.412652  0  0  -0.366856  0  3.652793  0  0  -0.390223  0  3.663529  0  0  -0.396113  -0.350822  0  3.645006  0
N  N51  1  0.24225886  0.47870584  0.99642489  1  0  -0.421624  0  3.412721  0  0  -0.366924  0  3.652886  0  0  -0.390284  0  3.663628  0  0  -0.39613  -0.350888  0  3.645098  0
O  O52  1  0.88565477  0.84668244  0.07602680  1  0  -0.503635  0  1.938796  0  0  -0.463086  0  2.159355  0  0  -0.482268  0  2.154123  0  0  -0.276489  -0.449903  0  2.162586  0
O  O53  1  0.11433164  0.15331738  0.92396473  1  0  -0.503439  0  1.939126  0  0  -0.462886  0  2.15974  0  0  -0.482067  0  2.154511  0  0  -0.276448  -0.449717  0  2.162971  0
