# generated using pymatgen
data_CuH5C5N4
_symmetry_space_group_name_H-M   'P 1'
_cell_length_a   6.87248185
_cell_length_b   8.05395578
_cell_length_c   11.32074962
_cell_angle_alpha   89.99914866
_cell_angle_beta   89.99977318
_cell_angle_gamma   90.00003327
_symmetry_Int_Tables_number   1
_chemical_formula_structural   CuH5C5N4
_chemical_formula_sum   'Cu4 H20 C20 N16'
_cell_volume   626.61101919
_cell_formula_units_Z   4
loop_
 _symmetry_equiv_pos_site_id
 _symmetry_equiv_pos_as_xyz
  1  'x, y, z'
loop_
 _atom_site_type_symbol
 _atom_site_label
 _atom_site_symmetry_multiplicity
 _atom_site_fract_x
 _atom_site_fract_y
 _atom_site_fract_z
 _atom_site_occupancy
 _atom_site_hle17_bader_spin_density
 _atom_site_hle17_ddec_charge
 _atom_site_hle17_ddec_spin_density
 _atom_site_hle17_ddec_sum_bond_order
 _atom_site_hle17_magmom
 _atom_site_hse06_10hf_bader_spin_density
 _atom_site_hse06_10hf_ddec_charge
 _atom_site_hse06_10hf_ddec_spin_density
 _atom_site_hse06_10hf_ddec_sum_bond_order
 _atom_site_hse06_10hf_magmom
 _atom_site_hse06_bader_spin_density
 _atom_site_hse06_ddec_charge
 _atom_site_hse06_ddec_spin_density
 _atom_site_hse06_ddec_sum_bond_order
 _atom_site_hse06_magmom
 _atom_site_pbe_bader_spin_density
 _atom_site_pbe_cm5_charge
 _atom_site_pbe_ddec_charge
 _atom_site_pbe_ddec_spin_density
 _atom_site_pbe_ddec_sum_bond_order
 _atom_site_pbe_magmom
Cu  Cu0  1  0.21079885  0.95647381  0.50896096  1  0  0.371551  0  2.403936  0  0  0.277784  0  2.909025  0  0  0.26017  0  2.874806  0  0  0.5309  0.294451  0  2.927499  0
Cu  Cu1  1  0.21079714  0.45645860  0.99104123  1  0  0.371538  0  2.403812  0  0  0.27775  0  2.908909  0  0  0.26017  0  2.874717  0  0  0.530921  0.294427  0  2.927381  0
Cu  Cu2  1  0.78920284  0.95646176  0.00895714  1  0  0.371614  0  2.403841  0  0  0.277881  0  2.908925  0  0  0.260259  0  2.874711  0  0  0.530934  0.294557  0  2.927406  0
Cu  Cu3  1  0.78920695  0.45648007  0.49104006  1  0  0.371573  0  2.403892  0  0  0.277815  0  2.909021  0  0  0.26021  0  2.874811  0  0  0.530945  0.294511  0  2.927508  0
H  H4  1  0.36723145  0.84689208  0.94694295  1  0  0.097761  0  0.940073  0  0  0.10394  0  1.007479  0  0  0.107702  0  1.004426  0  0  0.118764  0.101169  0  1.009915  0
H  H5  1  0.36722815  0.34690088  0.55305914  1  0  0.097758  0  0.940168  0  0  0.103926  0  1.007574  0  0  0.107686  0  1.004525  0  0  0.118753  0.101158  0  1.010015  0
H  H6  1  0.63278048  0.84690852  0.44693333  1  0  0.09758  0  0.940272  0  0  0.103833  0  1.007656  0  0  0.107598  0  1.004585  0  0  0.118742  0.101067  0  1.010097  0
H  H7  1  0.63276700  0.34689993  0.05306807  1  0  0.097686  0  0.940096  0  0  0.103905  0  1.007497  0  0  0.107661  0  1.004456  0  0  0.118767  0.101133  0  1.009935  0
H  H8  1  0.81553995  0.08392117  0.76549114  1  0  0.088112  0  0.963545  0  0  0.097427  0  1.027684  0  0  0.100247  0  1.027266  0  0  0.109387  0.095091  0  1.02879  0
H  H9  1  0.81552859  0.58394038  0.73450468  1  0  0.088001  0  0.963739  0  0  0.097345  0  1.027813  0  0  0.100164  0  1.027397  0  0  0.10938  0.09502  0  1.028917  0
H  H10  1  0.18447403  0.08394112  0.26548440  1  0  0.08803  0  0.963631  0  0  0.097357  0  1.027765  0  0  0.100176  0  1.027351  0  0  0.109335  0.095027  0  1.028873  0
H  H11  1  0.18445539  0.58391688  0.23452355  1  0  0.0881  0  0.963561  0  0  0.097415  0  1.027699  0  0  0.100232  0  1.027285  0  0  0.109384  0.09508  0  1.028803  0
H  H12  1  0.62017153  0.07265654  0.57970958  1  0  0.087999  0  0.96584  0  0  0.094238  0  1.033708  0  0  0.09633  0  1.032658  0  0  0.113689  0.092674  0  1.03457  0
H  H13  1  0.62015899  0.57265326  0.92028684  1  0  0.087914  0  0.965943  0  0  0.094166  0  1.03378  0  0  0.096257  0  1.032728  0  0  0.113686  0.092604  0  1.034637  0
H  H14  1  0.37983344  0.07266045  0.07969705  1  0  0.08793  0  0.965914  0  0  0.094205  0  1.033749  0  0  0.096299  0  1.032698  0  0  0.11369  0.092644  0  1.034603  0
H  H15  1  0.37983400  0.57265220  0.42030258  1  0  0.087889  0  0.965901  0  0  0.094207  0  1.03367  0  0  0.0963  0  1.032621  0  0  0.113697  0.092645  0  1.034528  0
H  H16  1  0.06182441  0.81048530  0.68396800  1  0  0.32479  0  0.921428  0  0  0.307627  0  0.986451  0  0  0.314936  0  0.980707  0  0  0.298385  0.302309  0  0.990786  0
H  H17  1  0.06181799  0.31047001  0.81603699  1  0  0.324669  0  0.921513  0  0  0.30751  0  0.986542  0  0  0.314815  0  0.980805  0  0  0.298322  0.302191  0  0.990875  0
H  H18  1  0.93818771  0.81047705  0.18395939  1  0  0.324688  0  0.921483  0  0  0.307631  0  0.986407  0  0  0.314949  0  0.980643  0  0  0.298335  0.302311  0  0.990742  0
H  H19  1  0.93818857  0.31048287  0.31603722  1  0  0.32466  0  0.921569  0  0  0.307653  0  0.986423  0  0  0.31495  0  0.980687  0  0  0.298373  0.302332  0  0.99076  0
H  H20  1  0.07239069  0.78511976  0.83862749  1  0  0.325433  0  0.928807  0  0  0.310199  0  0.990606  0  0  0.315565  0  0.987878  0  0  0.298285  0.306401  0  0.992475  0
H  H21  1  0.07238670  0.28511638  0.66137333  1  0  0.325433  0  0.928855  0  0  0.310207  0  0.990636  0  0  0.315574  0  0.987908  0  0  0.298292  0.30641  0  0.992509  0
H  H22  1  0.92761170  0.78512144  0.33862067  1  0  0.32556  0  0.928682  0  0  0.310301  0  0.990519  0  0  0.315672  0  0.987782  0  0  0.29835  0.306504  0  0.992392  0
H  H23  1  0.92761063  0.28512054  0.16137270  1  0  0.325484  0  0.928759  0  0  0.310252  0  0.990561  0  0  0.315621  0  0.987827  0  0  0.298298  0.306455  0  0.99243  0
C  C24  1  0.30908421  0.89620765  0.76132342  1  0  0.444875  0  3.813617  0  0  0.421944  0  4.064507  0  0  0.437837  0  4.078594  0  0  0.229818  0.411252  0  4.05514  0
C  C25  1  0.30909283  0.39620887  0.73867652  1  0  0.445003  0  3.813622  0  0  0.422057  0  4.064523  0  0  0.43795  0  4.078611  0  0  0.229848  0.411363  0  4.055154  0
C  C26  1  0.69091438  0.89620673  0.26131896  1  0  0.445186  0  3.813631  0  0  0.422254  0  4.064538  0  0  0.438145  0  4.078628  0  0  0.229901  0.411575  0  4.055173  0
C  C27  1  0.69090991  0.39620671  0.23868177  1  0  0.445043  0  3.813526  0  0  0.422133  0  4.064408  0  0  0.438027  0  4.078492  0  0  0.229922  0.411454  0  4.055042  0
C  C28  1  0.42360001  0.90128857  0.86561052  1  0  -0.030769  0  3.626898  0  0  -0.056238  0  3.878033  0  0  -0.057384  0  3.890364  0  0  0.040337  -0.05614  0  3.87067  0
C  C29  1  0.42359038  0.40129940  0.63438555  1  0  -0.030868  0  3.627229  0  0  -0.056278  0  3.878309  0  0  -0.057421  0  3.890643  0  0  0.040337  -0.056179  0  3.870945  0
C  C30  1  0.57640375  0.90130250  0.36560634  1  0  -0.03073  0  3.627201  0  0  -0.056305  0  3.878293  0  0  -0.057468  0  3.890664  0  0  0.040327  -0.056204  0  3.870918  0
C  C31  1  0.57639411  0.40129222  0.13439550  1  0  -0.03075  0  3.626963  0  0  -0.056322  0  3.878163  0  0  -0.057472  0  3.890495  0  0  0.04024  -0.056228  0  3.870811  0
C  C32  1  0.67027946  0.03071251  0.76434945  1  0  -0.001079  0  3.730738  0  0  -0.031992  0  3.992494  0  0  -0.036044  0  4.012041  0  0  0.005389  -0.029849  0  3.980774  0
C  C33  1  0.67026809  0.53071804  0.73564552  1  0  -0.000941  0  3.730511  0  0  -0.031844  0  3.992285  0  0  -0.035891  0  4.01183  0  0  0.005434  -0.029717  0  3.980582  0
C  C34  1  0.32973013  0.03073005  0.26434058  1  0  -0.001034  0  3.730597  0  0  -0.032003  0  3.992375  0  0  -0.036062  0  4.011927  0  0  0.005396  -0.029873  0  3.980663  0
C  C35  1  0.32971585  0.53070454  0.23566227  1  0  -0.00118  0  3.730629  0  0  -0.032115  0  3.992381  0  0  -0.036166  0  4.011931  0  0  0.00538  -0.029971  0  3.980658  0
C  C36  1  0.56146902  0.02298692  0.66181137  1  0  0.081916  0  3.746216  0  0  0.054665  0  4.000322  0  0  0.060655  0  4.016424  0  0  0.034092  0.050467  0  3.990276  0
C  C37  1  0.56145991  0.52298410  0.83818749  1  0  0.081961  0  3.745836  0  0  0.054706  0  4.000025  0  0  0.0607  0  4.016122  0  0  0.03399  0.050505  0  3.989971  0
C  C38  1  0.43854121  0.02299457  0.16180046  1  0  0.082035  0  3.745872  0  0  0.054812  0  3.99988  0  0  0.060798  0  4.015987  0  0  0.034089  0.050625  0  3.989839  0
C  C39  1  0.43853502  0.52297686  0.33819867  1  0  0.082087  0  3.745845  0  0  0.054835  0  3.999816  0  0  0.060818  0  4.015925  0  0  0.034071  0.050651  0  3.989777  0
C  C40  1  0.02208364  0.12307469  0.50001568  1  0  -0.129452  0  3.498698  0  0  -0.140978  0  3.879584  0  0  -0.121554  0  3.869999  0  0  -0.064655  -0.154426  0  3.884453  0
C  C41  1  0.02206768  0.62305734  0.99997815  1  0  -0.129136  0  3.499002  0  0  -0.140667  0  3.879884  0  0  -0.121265  0  3.87033  0  0  -0.064607  -0.154116  0  3.884743  0
C  C42  1  0.97792333  0.12305404  0.00001934  1  0  -0.129335  0  3.498398  0  0  -0.14091  0  3.879313  0  0  -0.12148  0  3.869728  0  0  -0.064719  -0.154366  0  3.884182  0
C  C43  1  0.97792483  0.62308511  0.49998623  1  0  -0.12944  0  3.49927  0  0  -0.140967  0  3.880139  0  0  -0.121553  0  3.870563  0  0  -0.064697  -0.154421  0  3.885009  0
N  N44  1  0.38169007  0.95573353  0.65772917  1  0  -0.363186  0  3.261168  0  0  -0.300536  0  3.551496  0  0  -0.30876  0  3.555254  0  0  -0.357474  -0.295976  0  3.548986  0
N  N45  1  0.38168639  0.45572638  0.84226907  1  0  -0.363191  0  3.260969  0  0  -0.300568  0  3.551343  0  0  -0.308801  0  3.555123  0  0  -0.357405  -0.295989  0  3.548811  0
N  N46  1  0.61830923  0.95573134  0.15772312  1  0  -0.363432  0  3.261118  0  0  -0.300806  0  3.551493  0  0  -0.309026  0  3.555246  0  0  -0.357563  -0.296278  0  3.549009  0
N  N47  1  0.61830992  0.45573164  0.34227539  1  0  -0.363429  0  3.261131  0  0  -0.300789  0  3.551485  0  0  -0.309008  0  3.555237  0  0  -0.357594  -0.296271  0  3.549019  0
N  N48  1  0.60100901  0.96726859  0.86724235  1  0  -0.211146  0  3.382407  0  0  -0.153623  0  3.678492  0  0  -0.151221  0  3.683118  0  0  -0.343002  -0.155931  0  3.675733  0
N  N49  1  0.60100230  0.46727077  0.63275523  1  0  -0.211111  0  3.382265  0  0  -0.153645  0  3.678411  0  0  -0.151254  0  3.683048  0  0  -0.342976  -0.155958  0  3.675671  0
N  N50  1  0.39899333  0.96727747  0.36723507  1  0  -0.211037  0  3.382337  0  0  -0.153432  0  3.678407  0  0  -0.151024  0  3.68302  0  0  -0.342857  -0.155738  0  3.675654  0
N  N51  1  0.39898516  0.46726475  0.13276650  1  0  -0.210995  0  3.382352  0  0  -0.153425  0  3.678441  0  0  -0.151025  0  3.683078  0  0  -0.342863  -0.155735  0  3.675683  0
N  N52  1  0.12793129  0.83370539  0.76277353  1  0  -0.66152  0  3.150655  0  0  -0.624084  0  3.3755  0  0  -0.645597  0  3.376054  0  0  -0.575316  -0.609234  0  3.37552  0
N  N53  1  0.12792828  0.33370043  0.73722840  1  0  -0.661499  0  3.15052  0  0  -0.624049  0  3.375335  0  0  -0.645558  0  3.375883  0  0  -0.575302  -0.609195  0  3.375356  0
N  N54  1  0.87206871  0.83370580  0.26276773  1  0  -0.661631  0  3.150612  0  0  -0.624273  0  3.37529  0  0  -0.645776  0  3.375818  0  0  -0.575352  -0.609421  0  3.375309  0
N  N55  1  0.87207297  0.33370580  0.23723144  1  0  -0.661487  0  3.150595  0  0  -0.624201  0  3.375211  0  0  -0.645698  0  3.37579  0  0  -0.575329  -0.609344  0  3.375227  0
N  N56  1  0.90735340  0.23248949  0.49708222  1  0  -0.425255  0  3.293347  0  0  -0.360397  0  3.610701  0  0  -0.372907  0  3.613354  0  0  -0.438628  -0.352294  0  3.607758  0
N  N57  1  0.90735514  0.73246757  0.00291353  1  0  -0.425532  0  3.293733  0  0  -0.360617  0  3.610909  0  0  -0.373125  0  3.613565  0  0  -0.438661  -0.352513  0  3.607955  0
N  N58  1  0.09265632  0.23247540  0.99708633  1  0  -0.425435  0  3.293106  0  0  -0.360519  0  3.610389  0  0  -0.373035  0  3.613052  0  0  -0.438599  -0.352414  0  3.607444  0
N  N59  1  0.09264788  0.73248577  0.50292029  1  0  -0.425258  0  3.294001  0  0  -0.360392  0  3.611346  0  0  -0.3729  0  3.613998  0  0  -0.438589  -0.35228  0  3.608394  0
