# generated using pymatgen
data_CuH10C4(BrN5)2
_symmetry_space_group_name_H-M   'P 1'
_cell_length_a   5.20962253
_cell_length_b   6.46371382
_cell_length_c   9.08584567
_cell_angle_alpha   99.15197350
_cell_angle_beta   102.47973350
_cell_angle_gamma   89.47060512
_symmetry_Int_Tables_number   1
_chemical_formula_structural   CuH10C4(BrN5)2
_chemical_formula_sum   'Cu1 H10 C4 Br2 N10'
_cell_volume   294.82040581
_cell_formula_units_Z   1
loop_
 _symmetry_equiv_pos_site_id
 _symmetry_equiv_pos_as_xyz
  1  'x, y, z'
loop_
 _atom_site_type_symbol
 _atom_site_label
 _atom_site_symmetry_multiplicity
 _atom_site_fract_x
 _atom_site_fract_y
 _atom_site_fract_z
 _atom_site_occupancy
 _atom_site_hle17_ddec_charge
 _atom_site_hle17_ddec_spin_density
 _atom_site_hle17_ddec_sum_bond_order
 _atom_site_hle17_magmom
 _atom_site_hse06_10hf_ddec_charge
 _atom_site_hse06_10hf_ddec_spin_density
 _atom_site_hse06_10hf_ddec_sum_bond_order
 _atom_site_hse06_10hf_magmom
 _atom_site_hse06_ddec_charge
 _atom_site_hse06_ddec_spin_density
 _atom_site_hse06_ddec_sum_bond_order
 _atom_site_hse06_magmom
 _atom_site_pbe_cm5_charge
 _atom_site_pbe_ddec_charge
 _atom_site_pbe_ddec_spin_density
 _atom_site_pbe_ddec_sum_bond_order
 _atom_site_pbe_magmom
Cu  Cu0  1  0.99999866  0.00000055  0.00000166  1  0.684749  0.548595  1.886604  0.404  0.654653  0.666095  2.29111  0.527  0.744023  0.739608  2.221326  0.613  0.599187  0.607776  0.62169  2.331683  0.48
H  H1  1  0.26130036  0.35349298  0.91561030  1  0.315539  0.000446  0.929712  0.0  0.299187  0.000545  0.999234  0.0  0.307521  0.000371  0.992033  0.0  0.275795  0.293441  0.000692  1.004335  0.0
H  H2  1  0.73869904  0.64650743  0.08438701  1  0.315607  0.00045  0.929539  0.0  0.29924  0.000545  0.999113  0.0  0.307577  0.00037  0.991906  0.0  0.275798  0.293493  0.000692  1.004215  0.0
H  H3  1  0.51367884  0.25555130  0.03599282  1  0.312833  -0.000657  0.920988  0.0  0.297923  -0.000472  0.988957  0.0  0.304716  -0.000482  0.984117  0.0  0.280304  0.293269  -0.00045  0.992532  0.0
H  H4  1  0.48631491  0.74445542  0.96400340  1  0.312954  -0.000658  0.920881  0.0  0.29802  -0.000472  0.988829  0.0  0.304838  -0.000482  0.983966  0.0  0.280361  0.293354  -0.00045  0.992412  0.0
H  H5  1  0.49624487  0.24082323  0.39166598  1  0.129113  -0.000233  0.939254  0.0  0.143367  -0.000122  1.007342  0.0  0.145306  -0.00013  1.006456  0.0  0.107868  0.141598  -0.000141  1.0085  0.0
H  H6  1  0.50375819  0.75917090  0.60833438  1  0.129094  -0.000239  0.939288  0.0  0.143342  -0.000122  1.00738  0.0  0.145279  -0.00013  1.006497  0.0  0.107856  0.141562  -0.000141  1.00855  0.0
H  H7  1  0.82293155  0.13565445  0.42083360  1  0.126754  -0.000209  0.963577  0.0  0.134371  -6.8e-05  1.04304  0.0  0.136151  -7.3e-05  1.041977  0.0  0.10959  0.132964  -0.000119  1.044105  0.0
H  H8  1  0.17707158  0.86434125  0.57917024  1  0.126748  -0.000217  0.963514  0.0  0.134376  -6.8e-05  1.042947  0.0  0.136155  -7.4e-05  1.041886  0.0  0.109585  0.13297  -0.000119  1.04401  0.0
H  H9  1  0.77529361  0.40879933  0.47990708  1  0.126334  0.000648  0.937989  0.0  0.142871  0.000888  1.005681  0.0  0.145569  0.000651  1.003294  0.0  0.107747  0.142076  0.00102  1.004409  0.0
H  H10  1  0.22471162  0.59119949  0.52009407  1  0.126345  0.000649  0.938036  0.0  0.142877  0.000888  1.005726  0.0  0.145575  0.000651  1.00334  0.0  0.107745  0.142084  0.001019  1.004446  0.0
C  C11  1  0.54036541  0.21200690  0.81771605  1  0.541078  -0.001655  3.814033  0.0  0.503264  0.00031  4.101987  0.001  0.525052  -0.000686  4.111299  0.0  0.329282  0.489098  0.001132  4.095178  0.002
C  C12  1  0.45964374  0.78799188  0.18227568  1  0.541064  -0.001648  3.814226  0.0  0.503332  0.000311  4.102088  0.001  0.525119  -0.000688  4.111405  0.0  0.329311  0.489166  0.001133  4.095275  0.002
C  C13  1  0.69241885  0.24985187  0.46662348  1  -0.226971  0.001185  3.597292  0.001  -0.336423  0.001206  3.835944  0.001  -0.335292  0.000915  3.841023  0.001  -0.130518  -0.336288  0.001386  3.830716  0.001
C  C14  1  0.30758638  0.75014694  0.53337217  1  -0.227039  0.001205  3.597458  0.001  -0.336451  0.001205  3.83606  0.001  -0.335318  0.000914  3.841139  0.001  -0.130523  -0.336303  0.001386  3.83084  0.001
Br  Br15  1  0.01569816  0.66263160  0.82655935  1  -0.446387  0.168174  0.962782  0.172  -0.442937  0.115161  1.265105  0.122  -0.47852  0.089606  1.245893  0.102  -0.233176  -0.423622  0.13046  1.277599  0.132
Br  Br16  1  0.98428590  0.33737831  0.17343383  1  -0.446383  0.168179  0.962813  0.172  -0.44291  0.115166  1.265122  0.122  -0.478502  0.089651  1.245913  0.102  -0.233169  -0.423594  0.130433  1.277625  0.132
N  N17  1  0.46892620  0.27194547  0.67989530  1  -0.350956  0.006901  2.747294  0.008  -0.350204  0.004903  3.00055  0.005  -0.359455  0.003839  3.008778  0.004  -0.211047  -0.343693  0.005535  2.994317  0.006
N  N18  1  0.53107896  0.72805178  0.32010567  1  -0.35094  0.006918  2.747165  0.008  -0.350203  0.004902  3.000361  0.005  -0.359456  0.00384  3.008592  0.004  -0.211041  -0.34369  0.005536  2.994128  0.006
N  N19  1  0.66849235  0.20487507  0.61474717  1  0.239882  -0.00056  3.644373  -0.001  0.33609  0.001297  3.86181  0.001  0.335842  0.000315  3.881081  0.0  -0.005459  0.336028  0.002147  3.848631  0.002
N  N20  1  0.33150697  0.79512379  0.38525326  1  0.239904  -0.000556  3.644415  -0.001  0.336127  0.001295  3.861831  0.001  0.33588  0.000316  3.881102  0.0  -0.005466  0.336063  0.002147  3.848648  0.002
N  N21  1  0.85289092  0.10949253  0.69951669  1  -0.056635  -0.002272  2.873498  -0.003  -0.068415  0.000234  3.140875  -0.001  -0.059739  -0.000771  3.150728  -0.001  -0.070325  -0.073397  0.000961  3.135046  0.0
N  N22  1  0.14710258  0.89050793  0.30048540  1  -0.056692  -0.002285  2.873531  -0.003  -0.068505  0.000238  3.140962  -0.001  -0.059829  -0.000772  3.150811  -0.001  -0.070345  -0.073489  0.000963  3.135134  0.0
N  N23  1  0.77435580  0.11153912  0.82995486  1  -0.355583  0.056107  3.285659  0.073  -0.311554  0.044443  3.605853  0.059  -0.342093  0.038573  3.621995  0.055  -0.266523  -0.294711  0.04737  3.596634  0.061
N  N24  1  0.22563187  0.88846295  0.17004889  1  -0.355516  0.056105  3.285589  0.073  -0.311514  0.044449  3.605783  0.059  -0.342046  0.038578  3.621927  0.055  -0.266529  -0.294666  0.047376  3.596557  0.061
N  N25  1  0.39799082  0.23876746  0.92808947  1  -0.697375  -0.002181  3.125397  -0.001  -0.674902  -0.001378  3.36958  0.0  -0.697099  -0.001956  3.363188  0.0  -0.593148  -0.660692  -0.000828  3.374522  0.0
N  N26  1  0.60200301  0.76124084  0.07191684  1  -0.69752  -0.002191  3.12569  -0.001  -0.675021  -0.001378  3.369884  0.0  -0.697253  -0.001955  3.363444  0.0  -0.593161  -0.660795  -0.000828  3.374857  0.0
