# generated using pymatgen
data_CuH16C20N6Cl
_symmetry_space_group_name_H-M   'P 1'
_cell_length_a   9.55286053
_cell_length_b   10.65274422
_cell_length_c   11.20606302
_cell_angle_alpha   83.05266203
_cell_angle_beta   75.24519355
_cell_angle_gamma   77.81859041
_symmetry_Int_Tables_number   1
_chemical_formula_structural   CuH16C20N6Cl
_chemical_formula_sum   'Cu2 H32 C40 N12 Cl2'
_cell_volume   1075.21304670
_cell_formula_units_Z   2
loop_
 _symmetry_equiv_pos_site_id
 _symmetry_equiv_pos_as_xyz
  1  'x, y, z'
loop_
 _atom_site_type_symbol
 _atom_site_label
 _atom_site_symmetry_multiplicity
 _atom_site_fract_x
 _atom_site_fract_y
 _atom_site_fract_z
 _atom_site_occupancy
 _atom_site_hle17_bader_spin_density
 _atom_site_hle17_ddec_charge
 _atom_site_hle17_ddec_spin_density
 _atom_site_hle17_ddec_sum_bond_order
 _atom_site_hle17_magmom
 _atom_site_hse06_10hf_bader_spin_density
 _atom_site_hse06_10hf_ddec_charge
 _atom_site_hse06_10hf_ddec_spin_density
 _atom_site_hse06_10hf_ddec_sum_bond_order
 _atom_site_hse06_10hf_magmom
 _atom_site_hse06_bader_spin_density
 _atom_site_hse06_ddec_charge
 _atom_site_hse06_ddec_spin_density
 _atom_site_hse06_ddec_sum_bond_order
 _atom_site_hse06_magmom
 _atom_site_pbe_bader_spin_density
 _atom_site_pbe_cm5_charge
 _atom_site_pbe_ddec_charge
 _atom_site_pbe_ddec_spin_density
 _atom_site_pbe_ddec_sum_bond_order
 _atom_site_pbe_magmom
Cu  Cu0  1  0.54874994  0.50576089  0.10422757  1  0  0.411601  0  2.011543  0  0  0.298143  0  2.530008  0  0  0.294488  0  2.482918  0  0  0.419438  0.30418  0  2.55924  0
Cu  Cu1  1  0.45125298  0.49423248  0.89577238  1  0  0.411682  0  2.011434  0  0  0.298217  0  2.529901  0  0  0.294534  0  2.482767  0  0  0.419465  0.304259  0  2.559121  0
H  H2  1  0.75513471  0.30186438  0.23915745  1  0  0.106298  0  0.983188  0  0  0.109125  0  1.058721  0  0  0.112526  0  1.056091  0  0  0.102845  0.106581  0  1.060853  0
H  H3  1  0.24485414  0.69812901  0.76084379  1  0  0.106324  0  0.983214  0  0  0.109131  0  1.058768  0  0  0.112539  0  1.056127  0  0  0.102892  0.106587  0  1.060896  0
H  H4  1  0.84543354  0.18408732  0.42084489  1  0  0.080606  0  0.973523  0  0  0.089948  0  1.040436  0  0  0.09176  0  1.041561  0  0  0.092707  0.088967  0  1.039067  0
H  H5  1  0.15455408  0.81591186  0.57915948  1  0  0.080645  0  0.973335  0  0  0.089952  0  1.040307  0  0  0.091761  0  1.041442  0  0  0.092706  0.088971  0  1.038937  0
H  H6  1  0.68224339  0.18690107  0.63106593  1  0  0.090276  0  0.953454  0  0  0.104032  0  1.009156  0  0  0.106632  0  1.008012  0  0  0.101618  0.102002  0  1.010244  0
H  H7  1  0.31774564  0.81310677  0.36893709  1  0  0.090325  0  0.953423  0  0  0.104064  0  1.009138  0  0  0.106666  0  1.007995  0  0  0.101639  0.102035  0  1.010227  0
H  H8  1  0.42152818  0.30231003  0.66972662  1  0  0.11868  0  0.937405  0  0  0.126476  0  0.998599  0  0  0.130132  0  0.996646  0  0  0.109896  0.123948  0  0.999686  0
H  H9  1  0.57846220  0.69770165  0.33027476  1  0  0.118742  0  0.937418  0  0  0.126502  0  0.998641  0  0  0.130157  0  0.99669  0  0  0.109944  0.123978  0  0.999728  0
H  H10  1  0.10274738  0.53992687  0.51329629  1  0  0.094613  0  0.93829  0  0  0.109725  0  1.001566  0  0  0.110132  0  1.002671  0  0  0.119239  0.109521  0  1.000595  0
H  H11  1  0.89724056  0.46008094  0.48670340  1  0  0.0947  0  0.938087  0  0  0.109788  0  1.001463  0  0  0.11022  0  1.002541  0  0  0.119211  0.109552  0  1.000522  0
H  H12  1  0.19764354  0.49353762  0.63281688  1  0  0.086655  0  0.984066  0  0  0.092965  0  1.06252  0  0  0.094262  0  1.061694  0  0  0.113928  0.092218  0  1.062853  0
H  H13  1  0.80234968  0.50647598  0.36718365  1  0  0.086604  0  0.98413  0  0  0.093032  0  1.062502  0  0  0.094328  0  1.061676  0  0  0.113949  0.092276  0  1.062835  0
H  H14  1  0.23219788  0.24851876  0.41966825  1  0  0.094709  0  0.962026  0  0  0.105169  0  1.021368  0  0  0.107567  0  1.021338  0  0  0.102571  0.103066  0  1.022017  0
H  H15  1  0.76781205  0.75149769  0.58032828  1  0  0.094692  0  0.961983  0  0  0.105129  0  1.021354  0  0  0.107538  0  1.02132  0  0  0.102547  0.103026  0  1.022004  0
H  H16  1  0.12591217  0.05096697  0.47499690  1  0  0.077034  0  0.975559  0  0  0.088882  0  1.038483  0  0  0.091132  0  1.037524  0  0  0.096394  0.087328  0  1.039038  0
H  H17  1  0.87411889  0.94904171  0.52499060  1  0  0.077027  0  0.975462  0  0  0.08881  0  1.038482  0  0  0.091057  0  1.037525  0  0  0.096375  0.087267  0  1.039021  0
H  H18  1  0.93133497  0.03350654  0.66968993  1  0  0.075195  0  0.984732  0  0  0.086035  0  1.050135  0  0  0.088262  0  1.048997  0  0  0.097163  0.08437  0  1.051163  0
H  H19  1  0.06870342  0.96648284  0.33029293  1  0  0.075225  0  0.984735  0  0  0.086044  0  1.050166  0  0  0.088274  0  1.049022  0  0  0.097179  0.08438  0  1.051193  0
H  H20  1  0.85111047  0.21209321  0.81014857  1  0  0.103257  0  0.969932  0  0  0.113692  0  1.030618  0  0  0.116532  0  1.029821  0  0  0.095819  0.111385  0  1.031532  0
H  H21  1  0.14891454  0.78788276  0.18984507  1  0  0.103274  0  0.96977  0  0  0.113767  0  1.030409  0  0  0.116625  0  1.0296  0  0  0.095775  0.111458  0  1.031321  0
H  H22  1  0.95057049  0.52687191  0.75071116  1  0  0.09476  0  0.922758  0  0  0.108077  0  0.987421  0  0  0.108932  0  0.987363  0  0  0.117897  0.106992  0  0.98812  0
H  H23  1  0.04942615  0.47312051  0.24929206  1  0  0.094776  0  0.922656  0  0  0.108076  0  0.987325  0  0  0.108926  0  0.987268  0  0  0.117915  0.10699  0  0.988027  0
H  H24  1  0.84854376  0.41977622  0.85293994  1  0  0.109468  0  0.945553  0  0  0.118812  0  1.017088  0  0  0.120722  0  1.015763  0  0  0.111637  0.116859  0  1.018982  0
H  H25  1  0.15145612  0.58021620  0.14706257  1  0  0.109407  0  0.94569  0  0  0.11873  0  1.017216  0  0  0.120637  0  1.015885  0  0  0.111647  0.116783  0  1.019104  0
H  H26  1  0.87832664  0.23506888  0.02018360  1  0  0.11825  0  0.973021  0  0  0.125859  0  1.036796  0  0  0.129361  0  1.035251  0  0  0.099083  0.124317  0  1.036501  0
H  H27  1  0.12166713  0.76493700  0.97981505  1  0  0.118255  0  0.973041  0  0  0.125897  0  1.03678  0  0  0.129381  0  1.035256  0  0  0.099108  0.124353  0  1.036493  0
H  H28  1  0.96384994  0.10397592  0.19700439  1  0  0.08756  0  0.958129  0  0  0.10152  0  1.012874  0  0  0.103757  0  1.012505  0  0  0.101278  0.099675  0  1.013586  0
H  H29  1  0.03613958  0.89601936  0.80299112  1  0  0.087472  0  0.958226  0  0  0.101415  0  1.012982  0  0  0.103652  0  1.012613  0  0  0.101234  0.099569  0  1.01369  0
H  H30  1  0.19564427  0.12375050  0.24795840  1  0  0.08196  0  0.963072  0  0  0.09637  0  1.019384  0  0  0.098905  0  1.018514  0  0  0.097565  0.094476  0  1.020126  0
H  H31  1  0.80434302  0.87624001  0.75204442  1  0  0.082038  0  0.962953  0  0  0.096402  0  1.019326  0  0  0.098937  0  1.018455  0  0  0.09754  0.094507  0  1.020068  0
H  H32  1  0.35567263  0.27426135  0.12026130  1  0  0.120515  0  0.96191  0  0  0.126384  0  1.027498  0  0  0.130167  0  1.024762  0  0  0.101975  0.123937  0  1.028808  0
H  H33  1  0.64431853  0.72572631  0.87974904  1  0  0.120564  0  0.961898  0  0  0.126368  0  1.027562  0  0  0.130149  0  1.024829  0  0  0.101974  0.123923  0  1.028866  0
C  C34  1  0.53753327  0.36685907  0.35364463  1  0  0.106722  0  3.815788  0  0  0.106143  0  4.063506  0  0  0.1047  0  4.08535  0  0  0.088253  0.107108  0  4.049516  0
C  C35  1  0.46246065  0.63314106  0.64635826  1  0  0.106786  0  3.815777  0  0  0.106336  0  4.063362  0  0  0.104866  0  4.085225  0  0  0.088246  0.107296  0  4.049368  0
C  C36  1  0.68359533  0.30003521  0.33160401  1  0  -0.118123  0  3.738584  0  0  -0.137166  0  3.986633  0  0  -0.136473  0  4.004083  0  0  -0.087523  -0.138123  0  3.975461  0
C  C37  1  0.31639188  0.69996587  0.66839755  1  0  -0.118067  0  3.738496  0  0  -0.137113  0  3.986486  0  0  -0.136415  0  4.003939  0  0  -0.087506  -0.138066  0  3.975306  0
C  C38  1  0.73179843  0.23547160  0.43324002  1  0  -0.081575  0  3.770781  0  0  -0.096924  0  4.024107  0  0  -0.100785  0  4.047257  0  0  -0.097873  -0.093951  0  4.007499  0
C  C39  1  0.26819440  0.76452851  0.56675954  1  0  -0.08174  0  3.770691  0  0  -0.097073  0  4.024047  0  0  -0.100936  0  4.047198  0  0  -0.097933  -0.094099  0  4.007436  0
C  C40  1  0.63822985  0.23632020  0.55372628  1  0  -0.048735  0  3.75862  0  0  -0.068677  0  4.014506  0  0  -0.068118  0  4.034432  0  0  -0.089471  -0.068773  0  4.000708  0
C  C41  1  0.36176635  0.76368955  0.44627495  1  0  -0.04877  0  3.758551  0  0  -0.068677  0  4.014386  0  0  -0.068123  0  4.034321  0  0  -0.089509  -0.068775  0  4.000592  0
C  C42  1  0.49272293  0.30066390  0.57677379  1  0  -0.136243  0  3.728419  0  0  -0.156323  0  3.988091  0  0  -0.159741  0  4.006745  0  0  -0.090701  -0.154019  0  3.975111  0
C  C43  1  0.50727022  0.69934489  0.42322822  1  0  -0.136261  0  3.728584  0  0  -0.15631  0  3.988264  0  0  -0.159735  0  4.00692  0  0  -0.090728  -0.154013  0  3.975292  0
C  C44  1  0.44474144  0.36562426  0.47367364  1  0  0.092604  0  3.811795  0  0  0.077976  0  4.058796  0  0  0.082084  0  4.082149  0  0  0.101494  0.074938  0  4.043348  0
C  C45  1  0.55525280  0.63438452  0.52632814  1  0  0.092589  0  3.811937  0  0  0.077901  0  4.058944  0  0  0.082036  0  4.082273  0  0  0.10154  0.074875  0  4.043487  0
C  C46  1  0.17598717  0.46006684  0.55142839  1  0  -0.063103  0  3.661713  0  0  -0.130824  0  3.912248  0  0  -0.126738  0  3.921851  0  0  -0.04617  -0.133648  0  3.905654  0
C  C47  1  0.82400754  0.53994482  0.44857026  1  0  -0.063049  0  3.661319  0  0  -0.130939  0  3.911996  0  0  -0.126872  0  3.92159  0  0  -0.046193  -0.133733  0  3.905406  0
C  C48  1  0.10817085  0.33998521  0.58599998  1  0  0.028072  0  3.699874  0  0  0.042575  0  3.941564  0  0  0.041943  0  3.964733  0  0  -0.011405  0.043099  0  3.925664  0
C  C49  1  0.89183632  0.66001873  0.41399776  1  0  0.027894  0  3.699826  0  0  0.042468  0  3.941638  0  0  0.041838  0  3.964808  0  0  -0.01137  0.043013  0  3.925702  0
C  C50  1  0.14996288  0.24003498  0.50627064  1  0  -0.124416  0  3.770055  0  0  -0.14669  0  4.020044  0  0  -0.149764  0  4.042088  0  0  -0.096835  -0.144087  0  4.004739  0
C  C51  1  0.85004760  0.75997376  0.49372492  1  0  -0.124299  0  3.770094  0  0  -0.146544  0  4.020025  0  0  -0.149629  0  4.042079  0  0  -0.096802  -0.14395  0  4.004723  0
C  C52  1  0.08890664  0.12920009  0.53662218  1  0  -0.071828  0  3.809636  0  0  -0.083741  0  4.057854  0  0  -0.085095  0  4.079986  0  0  -0.096386  -0.08304  0  4.042516  0
C  C53  1  0.91112064  0.87080092  0.46337064  1  0  -0.071944  0  3.810076  0  0  -0.083815  0  4.05827  0  0  -0.085175  0  4.08042  0  0  -0.096419  -0.083115  0  4.04292  0
C  C54  1  0.98151697  0.11875453  0.64601620  1  0  -0.078617  0  3.806756  0  0  -0.092873  0  4.057808  0  0  -0.095277  0  4.079735  0  0  -0.095705  -0.091228  0  4.043479  0
C  C55  1  0.01851344  0.88123685  0.35397709  1  0  -0.078527  0  3.806998  0  0  -0.092747  0  4.057962  0  0  -0.095149  0  4.079898  0  0  -0.095723  -0.091103  0  4.043639  0
C  C56  1  0.93758128  0.21806244  0.72561288  1  0  -0.095659  0  3.728342  0  0  -0.116246  0  3.974641  0  0  -0.118029  0  3.995454  0  0  -0.084317  -0.115282  0  3.961727  0
C  C57  1  0.06243959  0.78192799  0.27438172  1  0  -0.095721  0  3.728073  0  0  -0.116313  0  3.974378  0  0  -0.118114  0  3.995199  0  0  -0.084254  -0.115351  0  3.961483  0
C  C58  1  0.00160954  0.32795011  0.69777996  1  0  0.028498  0  3.707627  0  0  0.039878  0  3.952593  0  0  0.038327  0  3.976094  0  0  -0.012056  0.040538  0  3.937233  0
C  C59  1  0.99839215  0.67204901  0.30221599  1  0  0.028691  0  3.707431  0  0  0.039882  0  3.952608  0  0  0.03833  0  3.976102  0  0  -0.011992  0.040536  0  3.93725  0
C  C60  1  0.95705177  0.42793377  0.79229467  1  0  -0.06451  0  3.649563  0  0  -0.133885  0  3.904073  0  0  -0.129686  0  3.913177  0  0  -0.047155  -0.136558  0  3.898726  0
C  C61  1  0.04294811  0.57205865  0.20770785  1  0  -0.064511  0  3.649707  0  0  -0.133724  0  3.904099  0  0  -0.129515  0  3.913203  0  0  -0.047226  -0.136405  0  3.898761  0
C  C62  1  0.07343845  0.32399394  0.97082144  1  0  0.096814  0  3.782555  0  0  0.078047  0  4.034275  0  0  0.082224  0  4.057352  0  0  0.102712  0.075627  0  4.018671  0
C  C63  1  0.92655634  0.67600716  0.02918381  1  0  0.096808  0  3.782696  0  0  0.078081  0  4.034338  0  0  0.082257  0  4.05741  0  0  0.10275  0.075656  0  4.018746  0
C  C64  1  0.98233484  0.24095411  0.04077669  1  0  -0.135348  0  3.731312  0  0  -0.152205  0  3.983555  0  0  -0.155887  0  4.002555  0  0  -0.088779  -0.150377  0  3.970455  0
C  C65  1  0.01766165  0.75904406  0.95922052  1  0  -0.13524  0  3.731231  0  0  -0.152142  0  3.983435  0  0  -0.155811  0  4.002446  0  0  -0.08875  -0.150313  0  3.970336  0
C  C66  1  0.03068713  0.17014993  0.13978523  1  0  -0.05758  0  3.766627  0  0  -0.072248  0  4.015898  0  0  -0.072665  0  4.037198  0  0  -0.090401  -0.072019  0  4.002246  0
C  C67  1  0.96930151  0.82984440  0.86021505  1  0  -0.057523  0  3.766784  0  0  -0.072178  0  4.016071  0  0  -0.072594  0  4.037367  0  0  -0.090371  -0.07195  0  4.002423  0
C  C68  1  0.16305861  0.18185759  0.16900499  1  0  -0.085529  0  3.781321  0  0  -0.101707  0  4.034185  0  0  -0.105625  0  4.057065  0  0  -0.099006  -0.099283  0  4.018927  0
C  C69  1  0.83692895  0.81813677  0.83099819  1  0  -0.085694  0  3.781324  0  0  -0.101823  0  4.034158  0  0  -0.105743  0  4.057041  0  0  -0.099089  -0.099402  0  4.018901  0
C  C70  1  0.25300595  0.26444356  0.09992392  1  0  -0.111021  0  3.712659  0  0  -0.129188  0  3.957549  0  0  -0.128987  0  3.975918  0  0  -0.081771  -0.128912  0  3.944582  0
C  C71  1  0.74698940  0.73554984  0.90008125  1  0  -0.110997  0  3.712519  0  0  -0.129106  0  3.957345  0  0  -0.128907  0  3.975717  0  0  -0.081698  -0.128829  0  3.944379  0
C  C72  1  0.20628557  0.33571796  0.99861371  1  0  0.115137  0  3.791785  0  0  0.115331  0  4.039499  0  0  0.114158  0  4.061384  0  0  0.092113  0.116145  0  4.024788  0
C  C73  1  0.79371310  0.66428028  0.00139551  1  0  0.115108  0  3.791793  0  0  0.115335  0  4.039413  0  0  0.11417  0  4.061292  0  0  0.092132  0.116145  0  4.024718  0
N  N74  1  0.45707027  0.44178709  0.27494001  1  0  -0.212745  0  3.273967  0  0  -0.171612  0  3.615798  0  0  -0.171534  0  3.613442  0  0  -0.242539  -0.172904  0  3.61847  0
N  N75  1  0.54292302  0.55821590  0.72505821  1  0  -0.212799  0  3.274074  0  0  -0.171759  0  3.615937  0  0  -0.171668  0  3.613559  0  0  -0.2426  -0.173051  0  3.618605  0
N  N76  1  0.32209692  0.48268521  0.33878645  1  0  -0.061814  0  2.826362  0  0  -0.066444  0  3.109646  0  0  -0.057995  0  3.116438  0  0  -0.07546  -0.07201  0  3.105679  0
N  N77  1  0.67789664  0.51732164  0.66121214  1  0  -0.061889  0  2.826461  0  0  -0.066441  0  3.109652  0  0  -0.058  0  3.116449  0  0  -0.075443  -0.072008  0  3.105681  0
N  N78  1  0.31364327  0.43886308  0.45887319  1  0  -0.003415  0  3.55091  0  0  0.07964  0  3.777566  0  0  0.067148  0  3.802682  0  0  -0.136539  0.088005  0  3.760619  0
N  N79  1  0.68635104  0.56115053  0.54112888  1  0  -0.003444  0  3.550927  0  0  0.079654  0  3.77762  0  0  0.067157  0  3.802745  0  0  -0.136552  0.088016  0  3.760659  0
N  N80  1  0.06333055  0.40857994  0.86993505  1  0  0.004765  0  3.500144  0  0  0.085477  0  3.731938  0  0  0.073149  0  3.756992  0  0  -0.130525  0.093298  0  3.71521  0
N  N81  1  0.93666641  0.59142117  0.13007062  1  0  0.004669  0  3.50037  0  0  0.085355  0  3.732114  0  0  0.073019  0  3.757161  0  0  -0.130506  0.093187  0  3.715393  0
N  N82  1  0.18147867  0.46727816  0.83564320  1  0  -0.078679  0  2.888209  0  0  -0.077493  0  3.176203  0  0  -0.070887  0  3.183342  0  0  -0.077447  -0.081273  0  3.17153  0
N  N83  1  0.81852256  0.53271812  0.16436034  1  0  -0.078568  0  2.888291  0  0  -0.077397  0  3.1763  0  0  -0.070786  0  3.183444  0  0  -0.077455  -0.081183  0  3.171637  0
N  N84  1  0.26797920  0.42525574  0.91226384  1  0  -0.209024  0  3.264899  0  0  -0.168129  0  3.603081  0  0  -0.167925  0  3.600691  0  0  -0.240915  -0.169704  0  3.605109  0
N  N85  1  0.73202116  0.57473959  0.08774268  1  0  -0.209057  0  3.264843  0  0  -0.168196  0  3.603035  0  0  -0.168005  0  3.600676  0  0  -0.240966  -0.169767  0  3.605078  0
Cl  Cl86  1  0.38427686  0.67310718  0.02180963  1  0  -0.586158  0  1.141104  0  0  -0.52399  0  1.46242  0  0  -0.537854  0  1.43292  0  0  -0.346677  -0.513476  0  1.479752  0
Cl  Cl87  1  0.61572654  0.32688907  0.97818898  1  0  -0.586121  0  1.141118  0  0  -0.523956  0  1.462441  0  0  -0.537814  0  1.432936  0  0  -0.346649  -0.51344  0  1.479769  0
