# generated using pymatgen
data_KH10AuC14S2N2O7
_symmetry_space_group_name_H-M   'P 1'
_cell_length_a   8.66780883
_cell_length_b   13.55086746
_cell_length_c   16.00051027
_cell_angle_alpha   85.02628040
_cell_angle_beta   74.27141143
_cell_angle_gamma   71.34765909
_symmetry_Int_Tables_number   1
_chemical_formula_structural   KH10AuC14S2N2O7
_chemical_formula_sum   'K4 H40 Au4 C56 S8 N8 O28'
_cell_volume   1713.97721467
_cell_formula_units_Z   4
loop_
 _symmetry_equiv_pos_site_id
 _symmetry_equiv_pos_as_xyz
  1  'x, y, z'
loop_
 _atom_site_type_symbol
 _atom_site_label
 _atom_site_symmetry_multiplicity
 _atom_site_fract_x
 _atom_site_fract_y
 _atom_site_fract_z
 _atom_site_occupancy
 _atom_site_hle17_bader_spin_density
 _atom_site_hle17_ddec_charge
 _atom_site_hle17_ddec_spin_density
 _atom_site_hle17_ddec_sum_bond_order
 _atom_site_hle17_magmom
 _atom_site_hse06_10hf_bader_spin_density
 _atom_site_hse06_10hf_ddec_charge
 _atom_site_hse06_10hf_ddec_spin_density
 _atom_site_hse06_10hf_ddec_sum_bond_order
 _atom_site_hse06_10hf_magmom
 _atom_site_hse06_bader_spin_density
 _atom_site_hse06_ddec_charge
 _atom_site_hse06_ddec_spin_density
 _atom_site_hse06_ddec_sum_bond_order
 _atom_site_hse06_magmom
 _atom_site_pbe_bader_charge
 _atom_site_pbe_bader_spin_density
 _atom_site_pbe_cm5_charge
 _atom_site_pbe_ddec_charge
 _atom_site_pbe_ddec_spin_density
 _atom_site_pbe_ddec_sum_bond_order
 _atom_site_pbe_magmom
K  K0  1  0.40416521  0.01899428  0.82436460  1  0  0.94614  0  0.445199  0  0  0.91586  0  0.614147  0  0  0.927416  0  0.593065  0  0.901348  0  0.758415  0.907037  0  0.629388  0
K  K1  1  0.24742192  0.98110773  0.17568745  1  0  0.946062  0  0.445147  0  0  0.915897  0  0.613797  0  0  0.927372  0  0.592804  0  0.901406  0  0.758303  0.907051  0  0.629103  0
K  K2  1  0.97847226  0.51892378  0.67567139  1  0  0.946222  0  0.445087  0  0  0.916007  0  0.613807  0  0  0.927469  0  0.592818  0  0.901596  0  0.758256  0.907068  0  0.629226  0
K  K3  1  0.17325742  0.48105673  0.32434843  1  0  0.946155  0  0.445258  0  0  0.916054  0  0.613899  0  0  0.927446  0  0.592962  0  0.901247  0  0.75851  0.907142  0  0.629305  0
H  H4  1  0.35644316  0.87874877  0.98789726  1  0  0.407764  0  0.895231  0  0  0.383366  0  0.950072  0  0  0.392602  0  0.936299  0  0.619059  0  0.289394  0.376839  0  0.959807  0
H  H5  1  0.22304694  0.12125120  0.01210944  1  0  0.409066  0  0.893819  0  0  0.384416  0  0.949042  0  0  0.393661  0  0.935259  0  0.606358  0  0.290134  0.377868  0  0.958811  0
H  H6  1  0.09435505  0.37873983  0.51210649  1  0  0.407734  0  0.89519  0  0  0.383244  0  0.950211  0  0  0.392479  0  0.936444  0  0.621644  0  0.289706  0.376703  0  0.959963  0
H  H7  1  0.98519678  0.62123289  0.48788489  1  0  0.407693  0  0.895374  0  0  0.383538  0  0.949673  0  0  0.392775  0  0.935902  0  0.632343  0  0.289903  0.377035  0  0.959357  0
H  H8  1  0.52966910  0.89054552  0.98818146  1  0  0.416754  0  0.887006  0  0  0.387701  0  0.95003  0  0  0.398152  0  0.93442  0  0.639777  0  0.285217  0.380274  0  0.961127  0
H  H9  1  0.40833271  0.10948795  0.01183818  1  0  0.416852  0  0.886884  0  0  0.387543  0  0.950336  0  0  0.398016  0  0.934719  0  0.64314  0  0.285014  0.3801  0  0.96144  0
H  H10  1  0.26785565  0.39052645  0.51183346  1  0  0.416837  0  0.886479  0  0  0.387718  0  0.949725  0  0  0.398166  0  0.93412  0  0.642461  0  0.285619  0.380296  0  0.960812  0
H  H11  1  0.17020548  0.60945717  0.48818491  1  0  0.417295  0  0.886481  0  0  0.388109  0  0.949759  0  0  0.398555  0  0.934152  0  0.639519  0  0.285723  0.380689  0  0.960847  0
H  H12  1  0.90202477  0.81283309  0.53134564  1  0  0.109986  0  0.961384  0  0  0.117648  0  1.026243  0  0  0.121361  0  1.023542  0  0.127957  0  0.111385  0.11491  0  1.028358  0
H  H13  1  0.24617012  0.18711626  0.46865443  1  0  0.110103  0  0.961688  0  0  0.117221  0  1.027157  0  0  0.120924  0  1.024489  0  0.109774  0  0.111061  0.114462  0  1.029261  0
H  H14  1  0.18332940  0.31287867  0.96864069  1  0  0.110229  0  0.960834  0  0  0.117726  0  1.025763  0  0  0.121462  0  1.023045  0  0.09113  0  0.111036  0.114957  0  1.027912  0
H  H15  1  0.46487241  0.68712131  0.03135188  1  0  0.109368  0  0.961135  0  0  0.116917  0  1.026225  0  0  0.120647  0  1.023524  0  0.10287  0  0.110832  0.114153  0  1.028344  0
H  H16  1  0.10640314  0.86025686  0.40271937  1  0  0.096457  0  0.94993  0  0  0.108193  0  1.008124  0  0  0.111065  0  1.006696  0  0.114996  0  0.112106  0.106122  0  1.009252  0
H  H17  1  0.36937633  0.13972208  0.59727240  1  0  0.096491  0  0.94935  0  0  0.108372  0  1.007629  0  0  0.111261  0  1.006186  0  0.076512  0  0.111888  0.106275  0  1.008802  0
H  H18  1  0.25910578  0.36025493  0.09729519  1  0  0.096575  0  0.949221  0  0  0.108123  0  1.007855  0  0  0.110992  0  1.006428  0  0.080352  0  0.112023  0.106048  0  1.009  0
H  H19  1  0.71666410  0.63972168  0.90270777  1  0  0.095824  0  0.948248  0  0  0.107127  0  1.007386  0  0  0.109999  0  1.005948  0  0.103286  0  0.111776  0.105049  0  1.008544  0
H  H20  1  0.31163619  0.94120082  0.42383988  1  0  0.094668  0  0.946744  0  0  0.109076  0  1.00073  0  0  0.111605  0  0.999933  0  0.077222  0  0.108374  0.107249  0  1.001417  0
H  H21  1  0.67664035  0.05876722  0.57617350  1  0  0.09524  0  0.946063  0  0  0.109663  0  1.000176  0  0  0.112067  0  0.999497  0  0.087683  0  0.10867  0.107908  0  1.00078  0
H  H22  1  0.48543990  0.44123783  0.07615606  1  0  0.095289  0  0.945805  0  0  0.109746  0  0.9998  0  0  0.112164  0  0.999135  0  0.075093  0  0.108778  0.10799  0  1.000402  0
H  H23  1  0.00285692  0.55878006  0.92382129  1  0  0.095402  0  0.945533  0  0  0.109867  0  0.99956  0  0  0.112418  0  0.998717  0  0.083152  0  0.108433  0.10804  0  1.000242  0
H  H24  1  0.33194664  0.96589252  0.57344555  1  0  0.104751  0  0.958281  0  0  0.113186  0  1.022553  0  0  0.116406  0  1.020577  0  0.116  0  0.10891  0.110863  0  1.024036  0
H  H25  1  0.87133531  0.03411913  0.42655927  1  0  0.105029  0  0.957408  0  0  0.113486  0  1.021502  0  0  0.116689  0  1.019609  0  0.101591  0  0.10921  0.111189  0  1.022929  0
H  H26  1  0.65539329  0.46588825  0.92655348  1  0  0.104129  0  0.958223  0  0  0.112721  0  1.022217  0  0  0.115954  0  1.020248  0  0.112758  0  0.108955  0.110388  0  1.023718  0
H  H27  1  0.04787521  0.53411717  0.07343032  1  0  0.105036  0  0.958004  0  0  0.113495  0  1.022005  0  0  0.116764  0  1.019999  0  0.116904  0  0.10919  0.111067  0  1.023601  0
H  H28  1  0.50868635  0.90640485  0.26912705  1  0  0.095182  0  0.970871  0  0  0.102972  0  1.039007  0  0  0.106969  0  1.035528  0  0.121666  0  0.10508  0.100062  0  1.041624  0
H  H29  1  0.68420653  0.09360136  0.73087919  1  0  0.09526  0  0.970766  0  0  0.103143  0  1.038797  0  0  0.10718  0  1.03524  0  0.108322  0  0.105055  0.100128  0  1.041584  0
H  H30  1  0.52774878  0.40641304  0.23087543  1  0  0.096317  0  0.970724  0  0  0.104538  0  1.038169  0  0  0.108653  0  1.034533  0  0.0997  0  0.105325  0.101562  0  1.040869  0
H  H31  1  0.16504119  0.59361731  0.76915051  1  0  0.096705  0  0.968699  0  0  0.104572  0  1.03673  0  0  0.108625  0  1.033175  0  0.095708  0  0.105592  0.101604  0  1.039417  0
H  H32  1  0.59557679  0.85910258  0.40830253  1  0  0.094572  0  0.977462  0  0  0.101726  0  1.044943  0  0  0.104824  0  1.043199  0  0.10703  0  0.098568  0.099485  0  1.046305  0
H  H33  1  0.86297170  0.14089973  0.59169636  1  0  0.094238  0  0.977761  0  0  0.101542  0  1.045053  0  0  0.104686  0  1.043319  0  0.09401  0  0.098493  0.099289  0  1.046371  0
H  H34  1  0.75381055  0.35914037  0.09167915  1  0  0.093605  0  0.976441  0  0  0.101003  0  1.04379  0  0  0.104107  0  1.042048  0  0.083704  0  0.098294  0.098732  0  1.045159  0
H  H35  1  0.20465882  0.64088453  0.90833679  1  0  0.094208  0  0.977439  0  0  0.101603  0  1.044739  0  0  0.104697  0  1.04301  0  0.09264  0  0.098322  0.09934  0  1.046083  0
H  H36  1  0.89492834  0.77422845  0.40524424  1  0  0.09593  0  0.975015  0  0  0.10705  0  1.035961  0  0  0.109695  0  1.034689  0  0.116212  0  0.10668  0.105111  0  1.036999  0
H  H37  1  0.07440803  0.22576140  0.59475005  1  0  0.095615  0  0.976028  0  0  0.106291  0  1.037426  0  0  0.108923  0  1.036135  0  0.110171  0  0.106553  0.104373  0  1.038434  0
H  H38  1  0.05012289  0.27425923  0.09471393  1  0  0.096765  0  0.974865  0  0  0.107109  0  1.036638  0  0  0.109748  0  1.035348  0  0.118383  0  0.106763  0.105181  0  1.037662  0
H  H39  1  0.41916394  0.72575554  0.90527267  1  0  0.096364  0  0.975515  0  0  0.107111  0  1.036752  0  0  0.109738  0  1.035528  0  0.112936  0  0.106665  0.105183  0  1.037753  0
H  H40  1  0.11656176  0.74452395  0.26611117  1  0  0.110706  0  0.985685  0  0  0.117484  0  1.051441  0  0  0.121452  0  1.048445  0  0.149775  0  0.113241  0.114593  0  1.053651  0
H  H41  1  0.12721609  0.25546824  0.73388119  1  0  0.109934  0  0.984835  0  0  0.116722  0  1.050835  0  0  0.120694  0  1.047854  0  0.131361  0  0.113002  0.113819  0  1.05304  0
H  H42  1  0.13262343  0.24453292  0.23383802  1  0  0.110859  0  0.986196  0  0  0.117617  0  1.051958  0  0  0.121615  0  1.04893  0  0.146052  0  0.113061  0.114713  0  1.054157  0
H  H43  1  0.61110278  0.75545693  0.76612609  1  0  0.10933  0  0.986681  0  0  0.116564  0  1.052092  0  0  0.120563  0  1.049039  0  0.134388  0  0.11285  0.113661  0  1.054313  0
Au  Au44  1  0.93737763  0.86193844  0.90996347  1  0  0.378031  0  1.892059  0  0  0.272574  0  2.334822  0  0  0.294794  0  2.305939  0  0.405151  0  0.427176  0.257837  0  2.354071  0
Au  Au45  1  0.70922329  0.13811216  0.09004518  1  0  0.377667  0  1.891865  0  0  0.272653  0  2.335026  0  0  0.29483  0  2.306154  0  0.400574  0  0.42708  0.257939  0  2.354256  0
Au  Au46  1  0.59740894  0.36188354  0.59002571  1  0  0.378149  0  1.892883  0  0  0.273061  0  2.335795  0  0  0.295131  0  2.306796  0  0.400178  0  0.427046  0.258386  0  2.355093  0
Au  Au47  1  0.54936166  0.63799648  0.40995803  1  0  0.378174  0  1.892341  0  0  0.272915  0  2.33514  0  0  0.295058  0  2.306192  0  0.404331  0  0.427175  0.258192  0  2.354395  0
C  C48  1  0.11645077  0.91330407  0.72849213  1  0  0.55955  0  3.872284  0  0  0.515112  0  4.157282  0  0  0.54538  0  4.158089  0  1.376694  0  0.229798  0.494579  0  4.15622  0
C  C49  1  0.75820283  0.08675042  0.27150782  1  0  0.55958  0  3.868664  0  0  0.515353  0  4.153971  0  0  0.545608  0  4.154733  0  1.397525  0  0.229995  0.494808  0  4.152942  0
C  C50  1  0.59500371  0.41322113  0.77150425  1  0  0.562165  0  3.866829  0  0  0.518056  0  4.152184  0  0  0.548283  0  4.152993  0  1.384126  0  0.230885  0.497556  0  4.151088  0
C  C51  1  0.77976143  0.58672821  0.22848150  1  0  0.558815  0  3.873048  0  0  0.514406  0  4.157942  0  0  0.544722  0  4.158779  0  1.369464  0  0.230254  0.493847  0  4.15683  0
C  C52  1  0.12923057  0.90338829  0.63451871  1  0  -0.065778  0  3.800342  0  0  -0.051408  0  4.031205  0  0  -0.057788  0  4.055476  0  -0.059196  0  -0.011278  -0.047244  0  4.014996  0
C  C53  1  0.66713870  0.09661869  0.36548992  1  0  -0.066399  0  3.798862  0  0  -0.052558  0  4.029798  0  0  -0.059055  0  4.054228  0  -0.030423  0  -0.011991  -0.048291  0  4.013475  0
C  C54  1  0.51377802  0.40334741  0.86548297  1  0  -0.067144  0  3.799375  0  0  -0.054654  0  4.031445  0  0  -0.06114  0  4.055918  0  -0.026501  0  -0.012379  -0.050384  0  4.015081  0
C  C55  1  0.78265049  0.59665334  0.13450952  1  0  -0.066473  0  3.799197  0  0  -0.052046  0  4.029444  0  0  -0.058528  0  4.053841  0  -0.060404  0  -0.012643  -0.047788  0  4.013103  0
C  C56  1  0.01104489  0.86072107  0.62113278  1  0  -0.133211  0  3.764179  0  0  -0.113883  0  4.004967  0  0  -0.119492  0  4.027372  0  -0.163248  0  -0.012264  -0.11021  0  3.990096  0
C  C57  1  0.49286448  0.13920803  0.37887277  1  0  -0.132933  0  3.762105  0  0  -0.112756  0  4.0017  0  0  -0.118347  0  4.024164  0  -0.214936  0  -0.0124  -0.109099  0  3.986764  0
C  C58  1  0.38210965  0.36077288  0.87887070  1  0  -0.133946  0  3.766147  0  0  -0.112321  0  4.004154  0  0  -0.118005  0  4.026738  0  -0.2194  0  -0.012223  -0.108654  0  3.989215  0
C  C59  1  0.62179500  0.63925358  0.12112248  1  0  -0.135284  0  3.764545  0  0  -0.11556  0  4.004626  0  0  -0.12116  0  4.027073  0  -0.164638  0  -0.012851  -0.111903  0  3.989718  0
C  C60  1  0.99690337  0.84523560  0.53940047  1  0  -0.040449  0  3.706744  0  0  -0.065078  0  3.95519  0  0  -0.064715  0  3.973472  0  -0.06933  0  -0.071613  -0.065342  0  3.943053  0
C  C61  1  0.38150240  0.15466390  0.46061041  1  0  -0.041244  0  3.705045  0  0  -0.065587  0  3.95329  0  0  -0.065242  0  3.971593  0  0.021586  0  -0.071159  -0.065801  0  3.94111  0
C  C62  1  0.28618391  0.34535049  0.96061592  1  0  -0.041139  0  3.707903  0  0  -0.065875  0  3.955239  0  0  -0.065526  0  3.973613  0  0.029709  0  -0.070797  -0.066099  0  3.943038  0
C  C63  1  0.59216633  0.65468998  0.03939035  1  0  -0.040297  0  3.706749  0  0  -0.064926  0  3.954914  0  0  -0.064597  0  3.973236  0  0.015056  0  -0.07081  -0.06514  0  3.942744  0
C  C64  1  0.11003011  0.87351399  0.46828489  1  0  -0.048956  0  3.708035  0  0  -0.063589  0  3.962026  0  0  -0.064273  0  3.979697  0  -0.021252  0  -0.071282  -0.063151  0  3.950209  0
C  C65  1  0.45182366  0.12639797  0.53170494  1  0  -0.048523  0  3.707908  0  0  -0.06338  0  3.961875  0  0  -0.064055  0  3.979497  0  -0.037935  0  -0.071344  -0.062924  0  3.95002  0
C  C66  1  0.32818426  0.37360942  0.03172851  1  0  -0.047156  0  3.708798  0  0  -0.061925  0  3.962619  0  0  -0.062596  0  3.980272  0  -0.00821  0  -0.071003  -0.061486  0  3.950776  0
C  C67  1  0.73357042  0.62641704  0.96826643  1  0  -0.045918  0  3.706761  0  0  -0.06024  0  3.96051  0  0  -0.060902  0  3.978206  0  -0.076047  0  -0.070845  -0.059818  0  3.948664  0
C  C68  1  0.22776817  0.91784332  0.48036700  1  0  -0.044644  0  3.6989  0  0  -0.061698  0  3.952494  0  0  -0.062133  0  3.970275  0  0.02115  0  -0.073666  -0.06147  0  3.940595  0
C  C69  1  0.62597321  0.08206397  0.51963547  1  0  -0.046013  0  3.699557  0  0  -0.063431  0  3.953812  0  0  -0.063735  0  3.971522  0  -0.031306  0  -0.074315  -0.063267  0  3.941953  0
C  C70  1  0.45799699  0.41794965  0.01964074  1  0  -0.047028  0  3.699109  0  0  -0.064359  0  3.953048  0  0  -0.064716  0  3.970787  0  -0.02383  0  -0.074769  -0.064172  0  3.941162  0
C  C71  1  0.89561694  0.58210796  0.98035332  1  0  -0.047605  0  3.698359  0  0  -0.064989  0  3.952476  0  0  -0.065438  0  3.970276  0  -0.030656  0  -0.0743  -0.064749  0  3.940552  0
C  C72  1  0.23891244  0.93309825  0.56360918  1  0  -0.038552  0  3.688451  0  0  -0.064401  0  3.940254  0  0  -0.063885  0  3.958841  0  -0.028215  0  -0.071435  -0.064725  0  3.927783  0
C  C73  1  0.73565364  0.06689238  0.43638734  1  0  -0.037654  0  3.687313  0  0  -0.063104  0  3.93885  0  0  -0.062583  0  3.957464  0  0.037087  0  -0.070688  -0.063458  0  3.926358  0
C  C74  1  0.55247034  0.43313214  0.93638275  1  0  -0.037014  0  3.685434  0  0  -0.06222  0  3.936907  0  0  -0.061684  0  3.955502  0  -0.006579  0  -0.071013  -0.062576  0  3.924444  0
C  C75  1  0.92204551  0.56692859  0.06359344  1  0  -0.036995  0  3.684812  0  0  -0.062726  0  3.936201  0  0  -0.062246  0  3.954834  0  0.014403  0  -0.070752  -0.062991  0  3.923766  0
C  C76  1  0.74034881  0.87212371  0.10086934  1  0  0.550359  0  3.884618  0  0  0.498584  0  4.181376  0  0  0.530197  0  4.179815  0  1.370793  0  0.227014  0.47718  0  4.181919  0
C  C77  1  0.71332608  0.12792611  0.89913772  1  0  0.553503  0  3.883027  0  0  0.502003  0  4.180022  0  0  0.533654  0  4.178357  0  1.36966  0  0.227943  0.480588  0  4.180611  0
C  C78  1  0.59124797  0.37210464  0.39914043  1  0  0.552366  0  3.881756  0  0  0.500707  0  4.178997  0  0  0.532311  0  4.177414  0  1.320306  0  0.227976  0.479288  0  4.179549  0
C  C79  1  0.36244915  0.62786418  0.60087609  1  0  0.551581  0  3.884649  0  0  0.500348  0  4.1811  0  0  0.531929  0  4.17953  0  1.362259  0  0.227761  0.478947  0  4.181647  0
C  C80  1  0.76405755  0.85312398  0.19041333  1  0  -0.060481  0  3.782316  0  0  -0.045828  0  4.016262  0  0  -0.051925  0  4.039153  0  -0.028575  0  -0.011277  -0.041855  0  4.000983  0
C  C81  1  0.80757129  0.14691571  0.80958232  1  0  -0.063041  0  3.786178  0  0  -0.049742  0  4.022773  0  0  -0.055956  0  4.045799  0  -0.018556  0  -0.011876  -0.045735  0  4.007447  0
C  C82  1  0.70444216  0.35310959  0.30957686  1  0  -0.059351  0  3.779301  0  0  -0.045723  0  4.014978  0  0  -0.051946  0  4.038071  0  -0.054306  0  -0.010812  -0.041688  0  3.999604  0
C  C83  1  0.36714020  0.64689117  0.69043397  1  0  -0.060359  0  3.779888  0  0  -0.046267  0  4.014427  0  0  -0.052416  0  4.037461  0  -0.043314  0  -0.010651  -0.042307  0  3.999125  0
C  C84  1  0.64036570  0.87208087  0.26867024  1  0  -0.040236  0  3.696609  0  0  -0.069247  0  3.952659  0  0  -0.06887  0  3.970766  0  0.006324  0  -0.0771  -0.069492  0  3.940536  0
C  C85  1  0.78108779  0.12794870  0.73133539  1  0  -0.039485  0  3.69816  0  0  -0.068045  0  3.954474  0  0  -0.067644  0  3.97269  0  0.032306  0  -0.077397  -0.068245  0  3.942312  0
C  C86  1  0.65898673  0.37209452  0.23132109  1  0  -0.043208  0  3.697841  0  0  -0.072601  0  3.955043  0  0  -0.072293  0  3.973219  0  -0.001789  0  -0.077775  -0.0728  0  3.942893  0
C  C87  1  0.26239846  0.62794362  0.76870739  1  0  -0.043094  0  3.69663  0  0  -0.072331  0  3.953677  0  0  -0.071988  0  3.971859  0  0.01599  0  -0.078354  -0.072527  0  3.941555  0
C  C88  1  0.68931001  0.84525818  0.34599221  1  0  -0.070958  0  3.746887  0  0  -0.086992  0  4.006646  0  0  -0.08826  0  4.025669  0  -0.093073  0  -0.087054  -0.086161  0  3.993858  0
C  C89  1  0.88055848  0.15476593  0.65399551  1  0  -0.071024  0  3.748932  0  0  -0.087155  0  4.008347  0  0  -0.088517  0  4.027316  0  -0.066802  0  -0.086327  -0.086255  0  3.995579  0
C  C90  1  0.78525615  0.34527416  0.15397851  1  0  -0.068466  0  3.743071  0  0  -0.084234  0  4.002132  0  0  -0.08551  0  4.021135  0  -0.032522  0  -0.086006  -0.083361  0  3.989391  0
C  C91  1  0.28454122  0.65476086  0.84603249  1  0  -0.070324  0  3.748035  0  0  -0.08627  0  4.007291  0  0  -0.087557  0  4.026324  0  -0.035857  0  -0.086483  -0.085383  0  3.994497  0
C  C92  1  0.85891028  0.79865923  0.34486800  1  0  -0.03709  0  3.69193  0  0  -0.052407  0  3.942437  0  0  -0.053716  0  3.961799  0  -0.009587  0  -0.071976  -0.051501  0  3.929404  0
C  C93  1  0.00242913  0.20134619  0.65513455  1  0  -0.036271  0  3.692441  0  0  -0.051105  0  3.942887  0  0  -0.052368  0  3.962249  0  -0.035549  0  -0.072219  -0.050234  0  3.929866  0
C  C94  1  0.95371879  0.29868378  0.15509500  1  0  -0.038746  0  3.690178  0  0  -0.053658  0  3.94089  0  0  -0.054909  0  3.960121  0  -0.035507  0  -0.072748  -0.052794  0  3.92795  0
C  C95  1  0.40756341  0.70133488  0.84489505  1  0  -0.037173  0  3.692693  0  0  -0.052229  0  3.943043  0  0  -0.053543  0  3.962396  0  -0.048395  0  -0.071624  -0.051313  0  3.930012  0
C  C96  1  0.98483276  0.78065568  0.26681117  1  0  -0.047138  0  3.704267  0  0  -0.071714  0  3.949145  0  0  -0.070824  0  3.966303  0  -0.017084  0  -0.070188  -0.072297  0  3.937693  0
C  C97  1  0.03234604  0.21932482  0.73317828  1  0  -0.046169  0  3.701682  0  0  -0.070864  0  3.946996  0  0  -0.069979  0  3.964104  0  0.018296  0  -0.069581  -0.071436  0  3.935578  0
C  C98  1  0.00159586  0.28068023  0.23313885  1  0  -0.046982  0  3.704962  0  0  -0.071668  0  3.949602  0  0  -0.070802  0  3.966751  0  -0.002394  0  -0.0696  -0.072224  0  3.938148  0
C  C99  1  0.51552645  0.71931352  0.76683412  1  0  -0.045479  0  3.702701  0  0  -0.07062  0  3.947348  0  0  -0.069675  0  3.964449  0  0.013952  0  -0.069834  -0.07124  0  3.935925  0
C  C100  1  0.93320192  0.80992012  0.19105313  1  0  -0.126201  0  3.752837  0  0  -0.10603  0  3.993543  0  0  -0.111149  0  4.014917  0  -0.202751  0  -0.008922  -0.102682  0  3.979352  0
C  C101  1  0.93419349  0.19006817  0.80894532  1  0  -0.125647  0  3.755407  0  0  -0.1054  0  3.996972  0  0  -0.110471  0  4.018344  0  -0.221802  0  -0.008791  -0.10208  0  3.982799  0
C  C102  1  0.87423682  0.30992520  0.30891788  1  0  -0.126477  0  3.753002  0  0  -0.10566  0  3.993673  0  0  -0.110734  0  4.015063  0  -0.169656  0  -0.00958  -0.102344  0  3.97949  0
C  C103  1  0.49312644  0.69005063  0.69107778  1  0  -0.126645  0  3.752435  0  0  -0.105702  0  3.992792  0  0  -0.110879  0  4.014276  0  -0.204669  0  -0.00968  -0.102307  0  3.978544  0
S  S104  1  0.88706331  0.83643360  0.72292155  1  0  1.240249  0  5.360977  0  0  1.159207  0  5.855914  0  0  1.204591  0  5.841037  0  2.83321  0  0.564191  1.127759  0  5.865399  0
S  S105  1  0.44638412  0.16356715  0.27708349  1  0  1.241138  0  5.362262  0  0  1.160122  0  5.856883  0  0  1.205473  0  5.841991  0  2.826584  0  0.564288  1.128681  0  5.866382  0
S  S106  1  0.35998809  0.33643167  0.77707999  1  0  1.241563  0  5.363961  0  0  1.160049  0  5.858509  0  0  1.205454  0  5.843602  0  2.840963  0  0.56402  1.128605  0  5.868007  0
S  S107  1  0.47351257  0.66356208  0.22292643  1  0  1.242322  0  5.363523  0  0  1.161012  0  5.858273  0  0  1.206416  0  5.843412  0  2.837054  0  0.564398  1.129553  0  5.86774  0
S  S108  1  0.05728653  0.80274362  0.08310228  1  0  1.221047  0  5.352851  0  0  1.133196  0  5.854721  0  0  1.178155  0  5.840812  0  2.81732  0  0.55853  1.102093  0  5.863546  0
S  S109  1  0.94314528  0.19729140  0.91688521  1  0  1.221132  0  5.355229  0  0  1.133352  0  5.857157  0  0  1.178335  0  5.843195  0  2.816407  0  0.558216  1.102239  0  5.865993  0
S  S110  1  0.89044863  0.30271521  0.41686230  1  0  1.22099  0  5.35724  0  0  1.132907  0  5.859106  0  0  1.177845  0  5.845126  0  2.817673  0  0.557742  1.101784  0  5.867965  0
S  S111  1  0.60999595  0.69725050  0.58311395  1  0  1.219088  0  5.357969  0  0  1.131161  0  5.859884  0  0  1.176089  0  5.845998  0  2.823863  0  0.557409  1.100046  0  5.868672  0
N  N112  1  0.98934566  0.87692388  0.77977619  1  0  -0.619685  0  3.277227  0  0  -0.53198  0  3.590557  0  0  -0.563427  0  3.595903  0  -1.196934  0  -0.408888  -0.510452  0  3.586134  0
N  N113  1  0.64602554  0.12313373  0.22022819  1  0  -0.618849  0  3.275016  0  0  -0.531713  0  3.588698  0  0  -0.56312  0  3.594154  0  -1.200635  0  -0.408075  -0.510186  0  3.584146  0
N  N114  1  0.51917240  0.37688690  0.72021586  1  0  -0.6215  0  3.277329  0  0  -0.533909  0  3.590519  0  0  -0.565095  0  3.595347  0  -1.197972  0  -0.408662  -0.512553  0  3.586407  0
N  N115  1  0.61628840  0.62306790  0.27976666  1  0  -0.620288  0  3.27954  0  0  -0.532241  0  3.591982  0  0  -0.563635  0  3.597068  0  -1.19329  0  -0.408499  -0.510758  0  3.587717  0
N  N116  1  0.89307384  0.84632757  0.03969893  1  0  -0.611935  0  3.287735  0  0  -0.525117  0  3.609235  0  0  -0.555732  0  3.612917  0  -1.200589  0  -0.408162  -0.504278  0  3.605974  0
N  N117  1  0.77907943  0.15372069  0.96030067  1  0  -0.612641  0  3.286919  0  0  -0.526449  0  3.609839  0  0  -0.557072  0  3.61349  0  -1.191686  0  -0.408145  -0.505607  0  3.606621  0
N  N118  1  0.68281783  0.34631473  0.46028633  1  0  -0.613106  0  3.290689  0  0  -0.526668  0  3.61322  0  0  -0.557172  0  3.616769  0  -1.195643  0  -0.408327  -0.505818  0  3.609973  0
N  N119  1  0.48937576  0.65366032  0.53970674  1  0  -0.611477  0  3.290331  0  0  -0.525717  0  3.613448  0  0  -0.556182  0  3.617031  0  -1.189491  0  -0.408201  -0.504876  0  3.610151  0
O  O120  1  0.71438332  0.90428944  0.73552209  1  0  -0.64213  0  1.95547  0  0  -0.59924  0  2.204285  0  0  -0.620951  0  2.192185  0  -1.314926  0  -0.377525  -0.583762  0  2.212039  0
O  O121  1  0.35419145  0.09572222  0.26444087  1  0  -0.643163  0  1.954763  0  0  -0.600372  0  2.203774  0  0  -0.622043  0  2.191618  0  -1.312015  0  -0.377942  -0.584918  0  2.211591  0
O  O122  1  0.19991751  0.40427505  0.76447107  1  0  -0.642105  0  1.956582  0  0  -0.599243  0  2.205504  0  0  -0.620939  0  2.193355  0  -1.316271  0  -0.3771  -0.583754  0  2.213295  0
O  O123  1  0.36866983  0.59572025  0.23553382  1  0  -0.642538  0  1.955535  0  0  -0.599693  0  2.204298  0  0  -0.621352  0  2.192133  0  -1.294058  0  -0.377765  -0.584227  0  2.212104  0
O  O124  1  0.90477132  0.72642303  0.73784897  1  0  -0.637249  0  1.952637  0  0  -0.596644  0  2.204529  0  0  -0.618431  0  2.19327  0  -1.309037  0  -0.347205  -0.581107  0  2.211682  0
O  O125  1  0.36901122  0.27358239  0.26217757  1  0  -0.637149  0  1.954123  0  0  -0.596576  0  2.206016  0  0  -0.618312  0  2.19469  0  -1.315761  0  -0.347009  -0.581066  0  2.213217  0
O  O126  1  0.39268290  0.22641954  0.76215487  1  0  -0.636932  0  1.953979  0  0  -0.596343  0  2.20609  0  0  -0.618142  0  2.19478  0  -1.310354  0  -0.34693  -0.580799  0  2.213244  0
O  O127  1  0.38124981  0.77357420  0.23788271  1  0  -0.637323  0  1.954491  0  0  -0.596758  0  2.206385  0  0  -0.618498  0  2.194996  0  -1.318401  0  -0.346828  -0.581237  0  2.213578  0
O  O128  1  0.15076905  0.87796601  0.06852346  1  0  -0.655532  0  1.991929  0  0  -0.607036  0  2.243465  0  0  -0.627783  0  2.22875  0  -1.323476  0  -0.366506  -0.592312  0  2.253131  0
O  O129  1  0.09726022  0.12207836  0.93148177  1  0  -0.655117  0  1.992328  0  0  -0.606497  0  2.24398  0  0  -0.627243  0  2.229221  0  -1.318009  0  -0.366316  -0.591776  0  2.253671  0
O  O130  1  0.96941549  0.37789086  0.43146134  1  0  -0.655309  0  1.995314  0  0  -0.606746  0  2.247047  0  0  -0.627489  0  2.232295  0  -1.311562  0  -0.365817  -0.591991  0  2.256734  0
O  O131  1  0.77869930  0.62203123  0.56850883  1  0  -0.654459  0  1.992538  0  0  -0.606047  0  2.244119  0  0  -0.626795  0  2.229447  0  -1.3219  0  -0.365937  -0.591316  0  2.253749  0
O  O132  1  0.15785301  0.69740627  0.05545198  1  0  -0.579079  0  1.933022  0  0  -0.529438  0  2.171372  0  0  -0.551851  0  2.162309  0  -1.29813  0  -0.296066  -0.513534  0  2.176998  0
O  O133  1  0.91074967  0.30263888  0.94450109  1  0  -0.579892  0  1.933937  0  0  -0.529829  0  2.172069  0  0  -0.552283  0  2.16308  0  -1.295567  0  -0.296357  -0.513892  0  2.177636  0
O  O134  1  0.96331725  0.19736695  0.44448879  1  0  -0.57954  0  1.933916  0  0  -0.529369  0  2.171869  0  0  -0.551775  0  2.162836  0  -1.297199  0  -0.296201  -0.513472  0  2.177496  0
O  O135  1  0.60515867  0.80259953  0.55548100  1  0  -0.579075  0  1.934955  0  0  -0.529205  0  2.173204  0  0  -0.551657  0  2.164224  0  -1.295177  0  -0.295899  -0.513282  0  2.178807  0
O  O136  1  0.20645741  0.94905961  0.75713760  1  0  -0.57729  0  1.946967  0  0  -0.541599  0  2.177412  0  0  -0.561594  0  2.171771  0  -1.156946  0  -0.363457  -0.527758  0  2.181007  0
O  O137  1  0.91262268  0.05097931  0.24285498  1  0  -0.577629  0  1.945641  0  0  -0.542113  0  2.176482  0  0  -0.561988  0  2.170647  0  -1.169447  0  -0.364425  -0.528328  0  2.180205  0
O  O138  1  0.71366174  0.44898602  0.74286198  1  0  -0.578659  0  1.945157  0  0  -0.543054  0  2.175843  0  0  -0.562953  0  2.170052  0  -1.158219  0  -0.364565  -0.529241  0  2.179529  0
O  O139  1  0.90550099  0.55094619  0.25715088  1  0  -0.576675  0  1.947507  0  0  -0.541162  0  2.177992  0  0  -0.561077  0  2.172203  0  -1.156935  0  -0.363458  -0.527335  0  2.181676  0
O  O140  1  0.60078078  0.90475053  0.08404071  1  0  -0.570802  0  1.999042  0  0  -0.524774  0  2.236536  0  0  -0.545707  0  2.227508  0  -1.155762  0  -0.315968  -0.510338  0  2.242509  0
O  O141  1  0.58954434  0.09529617  0.91598554  1  0  -0.572326  0  2.000554  0  0  -0.52612  0  2.238244  0  0  -0.547062  0  2.229176  0  -1.164831  0  -0.31672  -0.51168  0  2.244221  0
O  O142  1  0.43483474  0.40475405  0.41598963  1  0  -0.571763  0  1.997991  0  0  -0.525705  0  2.235943  0  0  -0.54659  0  2.226804  0  -1.118163  0  -0.316663  -0.511261  0  2.241929  0
O  O143  1  0.25551867  0.59523190  0.58404667  1  0  -0.571093  0  1.999584  0  0  -0.525222  0  2.237141  0  0  -0.546115  0  2.228046  0  -1.151595  0  -0.316406  -0.510776  0  2.243095  0
O  O144  1  0.46460229  0.88070607  0.94931463  1  0  -0.874605  0  1.778348  0  0  -0.834618  0  1.931207  0  0  -0.851966  0  1.902784  0  -1.273519  0  -0.681887  -0.822082  0  1.951088  0
O  O145  1  0.29450814  0.11934531  0.05070262  1  0  -0.875707  0  1.776614  0  0  -0.835248  0  1.929717  0  0  -0.85265  0  1.90121  0  -1.265124  0  -0.682308  -0.822651  0  1.949658  0
O  O146  1  0.16390572  0.38064728  0.55069754  1  0  -0.874384  0  1.777065  0  0  -0.834337  0  1.929842  0  0  -0.851674  0  1.901425  0  -1.279684  0  -0.682513  -0.821771  0  1.949738  0
O  O147  1  0.09530451  0.61931375  0.44931020  1  0  -0.874809  0  1.778139  0  0  -0.834858  0  1.931034  0  0  -0.852185  0  1.902629  0  -1.286621  0  -0.682854  -0.822318  0  1.950898  0
