# generated using pymatgen
data_DyH10C16N5O8
_symmetry_space_group_name_H-M   'P 1'
_cell_length_a   9.49336399
_cell_length_b   10.14247030
_cell_length_c   11.60153130
_cell_angle_alpha   66.72911870
_cell_angle_beta   65.84716345
_cell_angle_gamma   62.09806293
_symmetry_Int_Tables_number   1
_chemical_formula_structural   DyH10C16N5O8
_chemical_formula_sum   'Dy2 H20 C32 N10 O16'
_cell_volume   871.59928094
_cell_formula_units_Z   2
loop_
 _symmetry_equiv_pos_site_id
 _symmetry_equiv_pos_as_xyz
  1  'x, y, z'
loop_
 _atom_site_type_symbol
 _atom_site_label
 _atom_site_symmetry_multiplicity
 _atom_site_fract_x
 _atom_site_fract_y
 _atom_site_fract_z
 _atom_site_occupancy
 _atom_site_hle17_bader_spin_density
 _atom_site_hle17_ddec_charge
 _atom_site_hle17_ddec_spin_density
 _atom_site_hle17_ddec_sum_bond_order
 _atom_site_hle17_magmom
 _atom_site_hse06_10hf_bader_spin_density
 _atom_site_hse06_10hf_ddec_charge
 _atom_site_hse06_10hf_ddec_spin_density
 _atom_site_hse06_10hf_ddec_sum_bond_order
 _atom_site_hse06_10hf_magmom
 _atom_site_hse06_bader_spin_density
 _atom_site_hse06_ddec_charge
 _atom_site_hse06_ddec_spin_density
 _atom_site_hse06_ddec_sum_bond_order
 _atom_site_hse06_magmom
 _atom_site_pbe_bader_spin_density
 _atom_site_pbe_cm5_charge
 _atom_site_pbe_ddec_charge
 _atom_site_pbe_ddec_spin_density
 _atom_site_pbe_ddec_sum_bond_order
 _atom_site_pbe_magmom
Dy  Dy0  1  0.34183336  0.24999141  0.74999534  1  0  1.871349  0  1.977762  0  0  1.762057  0  2.338747  0  0  1.820178  0  2.292738  0  0  1.585628  1.717304  0  2.376316  0
Dy  Dy1  1  0.65816725  0.75000841  0.25000413  1  0  1.871341  0  1.977753  0  0  1.762086  0  2.338706  0  0  1.820216  0  2.292683  0  0  1.585631  1.717299  0  2.376319  0
H  H2  1  0.55507472  0.89266259  0.86102344  1  0  0.091976  0  0.922574  0  0  0.10015  0  0.984132  0  0  0.102961  0  0.98139  0  0  0.12925  0.09797  0  0.986181  0
H  H3  1  0.30881563  0.60725083  0.63898691  1  0  0.09147  0  0.923629  0  0  0.100123  0  0.984257  0  0  0.10292  0  0.981531  0  0  0.128952  0.097736  0  0.98708  0
H  H4  1  0.44492380  0.10733838  0.13897627  1  0  0.091976  0  0.922594  0  0  0.10016  0  0.984145  0  0  0.102974  0  0.981397  0  0  0.129254  0.097982  0  0.986197  0
H  H5  1  0.69118412  0.39274899  0.36101343  1  0  0.091473  0  0.923625  0  0  0.100127  0  0.984252  0  0  0.102922  0  0.981528  0  0  0.128953  0.097737  0  0.987081  0
H  H6  1  0.55628619  0.62493572  0.94116176  1  0  0.101108  0  0.967614  0  0  0.109392  0  1.030928  0  0  0.112173  0  1.030709  0  0  0.106791  0.107317  0  1.031441  0
H  H7  1  0.12241138  0.87501682  0.55887160  1  0  0.098618  0  0.970447  0  0  0.106082  0  1.035491  0  0  0.108815  0  1.035379  0  0  0.105946  0.105242  0  1.03316  0
H  H8  1  0.44371365  0.37506410  0.05883733  1  0  0.101107  0  0.96761  0  0  0.109384  0  1.03093  0  0  0.112165  0  1.030714  0  0  0.106789  0.107308  0  1.031448  0
H  H9  1  0.87758901  0.12498185  0.44112648  1  0  0.098625  0  0.970424  0  0  0.10609  0  1.035468  0  0  0.108823  0  1.035355  0  0  0.105949  0.105249  0  1.033138  0
H  H10  1  0.30258466  0.58702290  0.95404360  1  0  0.099373  0  0.971318  0  0  0.106617  0  1.036202  0  0  0.110443  0  1.032295  0  0  0.105226  0.103473  0  1.039656  0
H  H11  1  0.84371358  0.91292012  0.54601149  1  0  0.099186  0  0.973047  0  0  0.106361  0  1.038078  0  0  0.110378  0  1.033937  0  0  0.105189  0.10324  0  1.041231  0
H  H12  1  0.69741595  0.41297692  0.04595587  1  0  0.099368  0  0.971322  0  0  0.106609  0  1.036202  0  0  0.110435  0  1.032295  0  0  0.105225  0.103452  0  1.039668  0
H  H13  1  0.15628712  0.08707970  0.45398674  1  0  0.099218  0  0.973091  0  0  0.106394  0  1.038114  0  0  0.110411  0  1.033974  0  0  0.105206  0.103272  0  1.041267  0
H  H14  1  0.06597386  0.81396506  0.89335243  1  0  0.11906  0  0.969558  0  0  0.126522  0  1.03258  0  0  0.130505  0  1.030394  0  0  0.10971  0.123465  0  1.034474  0
H  H15  1  0.77329111  0.68601907  0.60665246  1  0  0.118532  0  0.96972  0  0  0.126107  0  1.032591  0  0  0.130151  0  1.030328  0  0  0.109407  0.123024  0  1.034486  0
H  H16  1  0.93402629  0.18603591  0.10664680  1  0  0.119056  0  0.96955  0  0  0.126516  0  1.032581  0  0  0.130499  0  1.030394  0  0  0.109714  0.123455  0  1.034474  0
H  H17  1  0.22670787  0.31398075  0.39334749  1  0  0.11854  0  0.969733  0  0  0.126126  0  1.032592  0  0  0.130174  0  1.030313  0  0  0.109414  0.123043  0  1.034489  0
H  H18  1  0.87682491  0.00761098  0.84134146  1  0  0.132274  0  0.94707  0  0  0.139535  0  1.010373  0  0  0.144172  0  1.007066  0  0  0.118045  0.137215  0  1.010092  0
H  H19  1  0.72583262  0.49227621  0.65868852  1  0  0.134241  0  0.944119  0  0  0.141332  0  1.006707  0  0  0.145931  0  1.003489  0  0  0.118074  0.137927  0  1.009188  0
H  H20  1  0.12317524  0.99238999  0.15865777  1  0  0.132259  0  0.947077  0  0  0.139542  0  1.01036  0  0  0.144169  0  1.007069  0  0  0.118039  0.137222  0  1.010082  0
H  H21  1  0.27416712  0.50772361  0.34131182  1  0  0.134248  0  0.944122  0  0  0.14134  0  1.006705  0  0  0.145938  0  1.00349  0  0  0.118072  0.137934  0  1.009189  0
C  C22  1  0.44906087  0.87026928  0.86939232  1  0  0.173165  0  3.674325  0  0  0.13885  0  3.941006  0  0  0.147567  0  3.956069  0  0  0.064637  0.133405  0  3.930768  0
C  C23  1  0.18874864  0.62965431  0.63063406  1  0  0.171879  0  3.673462  0  0  0.137913  0  3.938905  0  0  0.146705  0  3.953828  0  0  0.064362  0.131051  0  3.930942  0
C  C24  1  0.55093842  0.12973169  0.13060777  1  0  0.173163  0  3.674253  0  0  0.138835  0  3.940949  0  0  0.147551  0  3.956014  0  0  0.064626  0.133383  0  3.93071  0
C  C25  1  0.81125196  0.37034551  0.36936541  1  0  0.171914  0  3.673531  0  0  0.137949  0  3.938968  0  0  0.146742  0  3.953892  0  0  0.064396  0.131086  0  3.931  0
C  C26  1  0.44854587  0.72123664  0.91415376  1  0  -0.107021  0  3.699256  0  0  -0.120723  0  3.951879  0  0  -0.128159  0  3.973644  0  0  -0.076632  -0.116468  0  3.937711  0
C  C27  1  0.08394041  0.77870898  0.58589131  1  0  -0.103952  0  3.698189  0  0  -0.117433  0  3.951265  0  0  -0.124763  0  3.9731  0  0  -0.076203  -0.11281  0  3.935104  0
C  C28  1  0.55145387  0.27876318  0.08584658  1  0  -0.106991  0  3.699217  0  0  -0.120691  0  3.951846  0  0  -0.128127  0  3.973613  0  0  -0.076618  -0.116436  0  3.937676  0
C  C29  1  0.91606019  0.22129084  0.41410817  1  0  -0.103975  0  3.698149  0  0  -0.117457  0  3.951225  0  0  -0.124787  0  3.97306  0  0  -0.076194  -0.112829  0  3.935062  0
C  C30  1  0.30910568  0.70085739  0.92253757  1  0  0.00789  0  3.693754  0  0  -0.010002  0  3.941736  0  0  -0.006451  0  3.959537  0  0  -0.063371  -0.011709  0  3.930357  0
C  C31  1  0.93251596  0.79908748  0.57751604  1  0  0.00623  0  3.696349  0  0  -0.012006  0  3.945351  0  0  -0.008706  0  3.963126  0  0  -0.063949  -0.013523  0  3.932537  0
C  C32  1  0.69089447  0.29914359  0.07746166  1  0  0.007887  0  3.693761  0  0  -0.009994  0  3.941734  0  0  -0.006443  0  3.959534  0  0  -0.06337  -0.011691  0  3.930351  0
C  C33  1  0.06748550  0.20091234  0.42248258  1  0  0.006225  0  3.696348  0  0  -0.012009  0  3.945351  0  0  -0.008709  0  3.963122  0  0  -0.063953  -0.013524  0  3.932537  0
C  C34  1  0.17547818  0.82924216  0.88637175  1  0  -0.122874  0  3.658078  0  0  -0.143298  0  3.90405  0  0  -0.15045  0  3.924748  0  0  -0.073988  -0.139144  0  3.891458  0
C  C35  1  0.89109981  0.67069838  0.61365295  1  0  -0.121407  0  3.658498  0  0  -0.141772  0  3.904959  0  0  -0.148841  0  3.925639  0  0  -0.072096  -0.136585  0  3.890711  0
C  C36  1  0.82452111  0.17075882  0.11362834  1  0  -0.122844  0  3.658029  0  0  -0.143291  0  3.903993  0  0  -0.150443  0  3.92469  0  0  -0.073998  -0.139134  0  3.891392  0
C  C37  1  0.10890003  0.32930144  0.38634614  1  0  -0.121416  0  3.658483  0  0  -0.141796  0  3.904937  0  0  -0.148863  0  3.925621  0  0  -0.072116  -0.136613  0  3.8907  0
C  C38  1  0.18503898  0.97540598  0.84129338  1  0  0.193457  0  3.74355  0  0  0.191908  0  3.985889  0  0  0.198386  0  4.005849  0  0  0.127316  0.187456  0  3.972886  0
C  C39  1  0.00174513  0.52453457  0.65870430  1  0  0.192829  0  3.745535  0  0  0.19072  0  3.989532  0  0  0.197165  0  4.009686  0  0  0.126138  0.186204  0  3.975772  0
C  C40  1  0.81496199  0.02459269  0.15870759  1  0  0.19337  0  3.743596  0  0  0.191881  0  3.985893  0  0  0.198359  0  4.005853  0  0  0.127283  0.18742  0  3.972894  0
C  C41  1  0.99825548  0.47546525  0.34129517  1  0  0.192777  0  3.745572  0  0  0.190673  0  3.989562  0  0  0.197117  0  4.009718  0  0  0.126122  0.186152  0  3.975811  0
C  C42  1  0.05082365  0.11658304  0.79607541  1  0  0.202496  0  3.744904  0  0  0.200148  0  3.995484  0  0  0.207216  0  4.013792  0  0  0.131622  0.194754  0  3.983127  0
C  C43  1  0.96355007  0.38332949  0.70391280  1  0  0.202766  0  3.747321  0  0  0.199589  0  3.998787  0  0  0.206464  0  4.017357  0  0  0.13264  0.194783  0  3.986267  0
C  C44  1  0.94917564  0.88341794  0.20392469  1  0  0.202574  0  3.744878  0  0  0.200167  0  3.995515  0  0  0.207236  0  4.01382  0  0  0.131625  0.19477  0  3.983159  0
C  C45  1  0.03644967  0.61667033  0.29608754  1  0  0.202785  0  3.747275  0  0  0.199608  0  3.998745  0  0  0.206484  0  4.017316  0  0  0.132624  0.194793  0  3.986236  0
C  C46  1  0.90303505  0.11324260  0.80010988  1  0  -0.130185  0  3.624809  0  0  -0.162641  0  3.870952  0  0  -0.16728  0  3.889852  0  0  -0.064135  -0.15764  0  3.854421  0
C  C47  1  0.81643572  0.38663098  0.69990498  1  0  -0.13299  0  3.622891  0  0  -0.163648  0  3.867215  0  0  -0.168181  0  3.885977  0  0  -0.065075  -0.160154  0  3.854866  0
C  C48  1  0.09696501  0.88675837  0.19989060  1  0  -0.130181  0  3.624769  0  0  -0.16264  0  3.870929  0  0  -0.167272  0  3.889831  0  0  -0.064103  -0.157633  0  3.854401  0
C  C49  1  0.18356488  0.61336884  0.30009450  1  0  -0.133048  0  3.622946  0  0  -0.163704  0  3.867279  0  0  -0.168238  0  3.886042  0  0  -0.065082  -0.160207  0  3.854935  0
C  C50  1  0.78605761  0.24994657  0.75001816  1  0  0.018309  0  3.724824  0  0  0.038943  0  3.956265  0  0  0.036912  0  3.975912  0  0  0.010008  0.03961  0  3.943591  0
C  C51  1  0.21394377  0.75005325  0.24998170  1  0  0.018333  0  3.724912  0  0  0.038951  0  3.956367  0  0  0.03692  0  3.976015  0  0  0.009999  0.039616  0  3.943698  0
C  C52  1  0.62815314  0.24995775  0.75000791  1  0  0.634747  0  3.904595  0  0  0.591195  0  4.195199  0  0  0.625397  0  4.186565  0  0  0.189106  0.567915  0  4.200695  0
C  C53  1  0.37184670  0.75004207  0.24999118  1  0  0.634797  0  3.904523  0  0  0.591265  0  4.195099  0  0  0.625467  0  4.186465  0  0  0.189109  0.567981  0  4.200601  0
N  N54  1  0.18952637  0.33987835  0.99214260  1  0  0.690224  0  4.146439  0  0  0.721838  0  4.447991  0  0  0.750604  0  4.45259  0  0  0.081845  0.703612  0  4.443859  0
N  N55  1  0.52158459  0.16013300  0.50785090  1  0  0.694649  0  4.139581  0  0  0.72562  0  4.441578  0  0  0.754792  0  4.445755  0  0  0.083648  0.707402  0  4.437871  0
N  N56  1  0.81047414  0.66012147  0.00785812  1  0  0.690199  0  4.146429  0  0  0.721812  0  4.447967  0  0  0.75058  0  4.452564  0  0  0.08185  0.703607  0  4.443816  0
N  N57  1  0.47841516  0.83986682  0.49214944  1  0  0.694681  0  4.139616  0  0  0.725662  0  4.44161  0  0  0.754836  0  4.445785  0  0  0.083681  0.70745  0  4.437895  0
N  N58  1  0.07835583  0.24996699  0.74998269  1  0  -0.441031  0  3.216686  0  0  -0.404036  0  3.475507  0  0  -0.419275  0  3.493248  0  0  -0.381722  -0.394198  0  3.464245  0
N  N59  1  0.92164392  0.75003283  0.25001765  1  0  -0.441069  0  3.216646  0  0  -0.404064  0  3.47548  0  0  -0.419305  0  3.493221  0  0  -0.381729  -0.394215  0  3.464214  0
N  N60  1  0.32119945  0.99425496  0.83336970  1  0  -0.431936  0  3.253577  0  0  -0.384448  0  3.51629  0  0  -0.401899  0  3.535005  0  0  -0.406644  -0.372258  0  3.503463  0
N  N61  1  0.14884309  0.50569335  0.66662143  1  0  -0.42779  0  3.251372  0  0  -0.380031  0  3.514162  0  0  -0.397453  0  3.532814  0  0  -0.404775  -0.368259  0  3.501895  0
N  N62  1  0.67880020  0.00574485  0.16663188  1  0  -0.43196  0  3.253583  0  0  -0.384484  0  3.51628  0  0  -0.401936  0  3.534997  0  0  -0.406637  -0.372281  0  3.503443  0
N  N63  1  0.85115742  0.49430647  0.33337929  1  0  -0.427787  0  3.251443  0  0  -0.380034  0  3.514235  0  0  -0.397459  0  3.532889  0  0  -0.40478  -0.368249  0  3.501959  0
O  O64  1  0.57594109  0.14293700  0.83217208  1  0  -0.651879  0  1.947705  0  0  -0.613439  0  2.178404  0  0  -0.638556  0  2.170674  0  0  -0.380648  -0.595881  0  2.183562  0
O  O65  1  0.55111054  0.35702285  0.66784913  1  0  -0.6524  0  1.948336  0  0  -0.614611  0  2.179712  0  0  -0.639651  0  2.171773  0  0  -0.380353  -0.596422  0  2.184431  0
O  O66  1  0.42405952  0.85706282  0.16782740  1  0  -0.651881  0  1.947667  0  0  -0.613449  0  2.178355  0  0  -0.638567  0  2.170626  0  0  -0.380637  -0.595888  0  2.183519  0
O  O67  1  0.44889006  0.64297697  0.33215035  1  0  -0.652423  0  1.948324  0  0  -0.614637  0  2.17968  0  0  -0.639681  0  2.171745  0  0  -0.380339  -0.596439  0  2.184397  0
O  O68  1  0.27637818  0.40963796  0.89150972  1  0  -0.517343  0  1.841981  0  0  -0.511148  0  2.073808  0  0  -0.53041  0  2.070241  0  0  -0.231773  -0.497154  0  2.075778  0
O  O69  1  0.57758471  0.09039633  0.60847321  1  0  -0.518425  0  1.842407  0  0  -0.511798  0  2.07416  0  0  -0.531369  0  2.070704  0  0  -0.232485  -0.498595  0  2.076479  0
O  O70  1  0.72362360  0.59036301  0.10848903  1  0  -0.517263  0  1.842076  0  0  -0.511082  0  2.073919  0  0  -0.530345  0  2.070352  0  0  -0.231753  -0.49709  0  2.075878  0
O  O71  1  0.42241426  0.90960349  0.39152674  1  0  -0.51846  0  1.842412  0  0  -0.511813  0  2.074146  0  0  -0.531388  0  2.070689  0  0  -0.232491  -0.498609  0  2.076461  0
O  O72  1  0.17443549  0.22816989  0.97689221  1  0  -0.518003  0  1.807209  0  0  -0.513876  0  2.03911  0  0  -0.531448  0  2.03264  0  0  -0.240175  -0.501137  0  2.04307  0
O  O73  1  0.37956733  0.27189415  0.52309830  1  0  -0.520371  0  1.804528  0  0  -0.515788  0  2.036069  0  0  -0.533651  0  2.029525  0  0  -0.241208  -0.503111  0  2.040089  0
O  O74  1  0.82556589  0.77182992  0.02310765  1  0  -0.518031  0  1.807049  0  0  -0.513919  0  2.038958  0  0  -0.531492  0  2.032487  0  0  -0.240216  -0.501189  0  2.042918  0
O  O75  1  0.62043033  0.72810682  0.47690227  1  0  -0.520332  0  1.80448  0  0  -0.515813  0  2.036076  0  0  -0.533675  0  2.029531  0  0  -0.24124  -0.503141  0  2.040099  0
O  O76  1  0.12603374  0.37633025  0.09661728  1  0  -0.374126  0  1.776136  0  0  -0.370269  0  1.980447  0  0  -0.381663  0  1.977289  0  0  -0.139107  -0.362441  0  1.982496  0
O  O77  1  0.59893141  0.12361735  0.40339989  1  0  -0.374106  0  1.771345  0  0  -0.370033  0  1.975971  0  0  -0.381625  0  1.97269  0  0  -0.1392  -0.362605  0  1.9782  0
O  O78  1  0.87396717  0.62367072  0.90338234  1  0  -0.374126  0  1.776126  0  0  -0.370256  0  1.980433  0  0  -0.381654  0  1.977282  0  0  -0.139103  -0.362434  0  1.982475  0
O  O79  1  0.40106828  0.87638477  0.59659910  1  0  -0.374119  0  1.771367  0  0  -0.370049  0  1.976001  0  0  -0.381638  0  1.972719  0  0  -0.139207  -0.362621  0  1.978223  0
