# generated using pymatgen
data_AlH12C21NO6
_symmetry_space_group_name_H-M   'P 1'
_cell_length_a   4.13132486
_cell_length_b   13.47320534
_cell_length_c   13.47335333
_cell_angle_alpha   119.99919788
_cell_angle_beta   89.99996329
_cell_angle_gamma   89.99920800
_symmetry_Int_Tables_number   1
_chemical_formula_structural   AlH12C21NO6
_chemical_formula_sum   'Al1 H12 C21 N1 O6'
_cell_volume   649.48648115
_cell_formula_units_Z   1
loop_
 _symmetry_equiv_pos_site_id
 _symmetry_equiv_pos_as_xyz
  1  'x, y, z'
loop_
 _atom_site_type_symbol
 _atom_site_label
 _atom_site_symmetry_multiplicity
 _atom_site_fract_x
 _atom_site_fract_y
 _atom_site_fract_z
 _atom_site_occupancy
 _atom_site_pbe_bader_charge
 _atom_site_pbe_bader_spin_density
 _atom_site_pbe_cm5_charge
 _atom_site_pbe_ddec_charge
 _atom_site_pbe_ddec_spin_density
 _atom_site_pbe_ddec_sum_bond_order
 _atom_site_pbe_magmom
Al  Al0  1  0.00000284  0.49999768  0.49999916  1  2.508533  0  0.441006  1.621238  0  2.549654  0
H  H1  1  0.18920836  0.81805046  0.78744960  1  0.079894  0  0.108177  0.113178  0  0.982542  0
H  H2  1  0.20183201  0.02948977  0.89556702  1  0.076985  0  0.101512  0.105818  0  1.035699  0
H  H3  1  0.79815187  0.02948755  0.63392881  1  0.061439  0  0.101495  0.105748  0  1.035764  0
H  H4  1  0.81076951  0.81805054  0.53061394  1  0.093662  0  0.108116  0.112985  0  0.982737  0
H  H5  1  0.79814502  0.10443543  0.97051208  1  0.077307  0  0.101498  0.105792  0  1.035655  0
H  H6  1  0.81078824  0.21255697  0.18194767  1  0.079761  0  0.108089  0.112972  0  0.982784  0
H  H7  1  0.18922160  0.46939532  0.18194757  1  0.093524  0  0.108084  0.113011  0  0.982755  0
H  H8  1  0.20183167  0.36607328  0.97051298  1  0.061243  0  0.101514  0.105825  0  1.035754  0
H  H9  1  0.79824575  0.36605017  0.89554079  1  0.020301  0  0.101458  0.105751  0  1.035698  0
H  H10  1  0.81086903  0.46936181  0.78740859  1  0.077328  0  0.108194  0.113057  0  0.982734  0
H  H11  1  0.18913985  0.21256423  0.53062233  1  0.077673  0  0.108178  0.113081  0  0.982739  0
H  H12  1  0.20177008  0.10445217  0.63395076  1  0.019782  0  0.101496  0.105746  0  1.035791  0
C  C13  1  0.50001165  0.41229833  0.32458407  1  1.54771  0  0.283167  0.681584  0  4.045289  0
C  C14  1  0.50000171  0.41228350  0.58769729  1  1.554108  0  0.283177  0.681464  0  4.04534  0
C  C15  1  0.49999583  0.67540610  0.58770706  1  1.559745  0  0.283048  0.681271  0  4.045557  0
C  C16  1  0.33026622  0.86416189  0.75498748  1  0.060648  0  -0.086592  -0.090817  0  4.001934  0
C  C17  1  0.33305921  0.98332380  0.81507513  1  -0.139064  0  -0.097034  -0.175043  0  4.008827  0
C  C18  1  0.49999037  0.04507110  0.77253598  1  0.361598  0  0.090846  0.178018  0  4.022356  0
C  C19  1  0.66695951  0.98332317  0.66825965  1  -0.042365  0  -0.097005  -0.174803  0  4.008743  0
C  C20  1  0.66969259  0.86416337  0.60918370  1  -0.010855  0  -0.086591  -0.090716  0  4.002041  0
C  C21  1  0.50000258  0.80350253  0.65176267  1  0.019063  0  -0.015746  -0.048851  0  3.986333  0
C  C22  1  0.66693202  0.18492850  0.01667585  1  -0.138274  0  -0.097015  -0.174971  0  4.008754  0
C  C23  1  0.66973596  0.24501872  0.13583388  1  0.061188  0  -0.086449  -0.090555  0  4.001758  0
C  C24  1  0.49998659  0.34824709  0.19648913  1  0.032623  0  -0.015906  -0.049079  0  3.985982  0
C  C25  1  0.33029437  0.39082502  0.13582864  1  -0.010942  0  -0.086425  -0.090609  0  4.001936  0
C  C26  1  0.33303585  0.33174213  0.01667265  1  -0.04243  0  -0.097047  -0.175026  0  4.009053  0
C  C27  1  0.49999579  0.22746688  0.95493042  1  0.360548  0  0.090875  0.178144  0  4.022554  0
C  C28  1  0.66700056  0.33173329  0.81505662  1  -0.012126  0  -0.097045  -0.174682  0  4.008545  0
C  C29  1  0.66977323  0.39080150  0.75496547  1  0.011001  0  -0.086577  -0.090806  0  4.001943  0
C  C30  1  0.50002244  0.34823123  0.65174667  1  -0.004449  0  -0.015839  -0.048881  0  3.98608  0
C  C31  1  0.33025117  0.24501123  0.60917923  1  0.011427  0  -0.086545  -0.090782  0  4.001917  0
C  C32  1  0.33302396  0.18493021  0.66825844  1  -0.011785  0  -0.097001  -0.174691  0  4.008529  0
C  C33  1  0.50000082  0.22746293  0.77253755  1  0.357524  0  0.090778  0.177598  0  4.022047  0
N  N34  1  0.49999485  0.16666790  0.83334015  1  -1.329411  0  -0.246156  -0.145107  0  3.629612  0
O  O35  1  0.73622865  0.62568510  0.60585155  1  -1.252709  0  -0.237513  -0.604356  0  2.342961  0
O  O36  1  0.73623213  0.48016212  0.37430778  1  -1.258751  0  -0.237615  -0.604506  0  2.34283  0
O  O37  1  0.73622423  0.39414459  0.51983392  1  -1.250988  0  -0.237576  -0.604444  0  2.34294  0
O  O38  1  0.26376044  0.62569739  0.51984649  1  -1.257271  0  -0.23762  -0.604403  0  2.343036  0
O  O39  1  0.26376361  0.48014994  0.60584314  1  -1.250488  0  -0.237694  -0.604553  0  2.342999  0
O  O40  1  0.26378997  0.39415224  0.37430518  1  -1.25271  0  -0.237715  -0.604598  0  2.342896  0
