# generated using pymatgen
data_Cd3H14C12N10(Cl3O)2
_symmetry_space_group_name_H-M   'P 1'
_cell_length_a   10.46415987
_cell_length_b   10.78555443
_cell_length_c   14.43384322
_cell_angle_alpha   100.61100502
_cell_angle_beta   89.99917499
_cell_angle_gamma   119.03377774
_symmetry_Int_Tables_number   1
_chemical_formula_structural   Cd3H14C12N10(Cl3O)2
_chemical_formula_sum   'Cd6 H28 C24 N20 Cl12 O4'
_cell_volume   1392.37150742
_cell_formula_units_Z   2
loop_
 _symmetry_equiv_pos_site_id
 _symmetry_equiv_pos_as_xyz
  1  'x, y, z'
loop_
 _atom_site_type_symbol
 _atom_site_label
 _atom_site_symmetry_multiplicity
 _atom_site_fract_x
 _atom_site_fract_y
 _atom_site_fract_z
 _atom_site_occupancy
 _atom_site_hle17_bader_spin_density
 _atom_site_hle17_ddec_charge
 _atom_site_hle17_ddec_spin_density
 _atom_site_hle17_ddec_sum_bond_order
 _atom_site_hle17_magmom
 _atom_site_hse06_10hf_bader_spin_density
 _atom_site_hse06_10hf_ddec_charge
 _atom_site_hse06_10hf_ddec_spin_density
 _atom_site_hse06_10hf_ddec_sum_bond_order
 _atom_site_hse06_10hf_magmom
 _atom_site_hse06_bader_spin_density
 _atom_site_hse06_ddec_charge
 _atom_site_hse06_ddec_spin_density
 _atom_site_hse06_ddec_sum_bond_order
 _atom_site_hse06_magmom
 _atom_site_pbe_bader_spin_density
 _atom_site_pbe_cm5_charge
 _atom_site_pbe_ddec_charge
 _atom_site_pbe_ddec_spin_density
 _atom_site_pbe_ddec_sum_bond_order
 _atom_site_pbe_magmom
Cd  Cd0  1  0.13138422  0.42907154  0.98867231  1  0  0.985835  0  1.983013  0  0  0.836359  0  2.447805  0  0  0.881715  0  2.403241  0  0  0.576968  0.803145  0  2.480165  0
Cd  Cd1  1  0.70229891  0.57091960  0.51132640  1  0  0.985884  0  1.982842  0  0  0.836356  0  2.447721  0  0  0.881711  0  2.403157  0  0  0.576904  0.803135  0  2.480089  0
Cd  Cd2  1  0.86861512  0.57092865  0.01132760  1  0  0.985812  0  1.983034  0  0  0.836339  0  2.447828  0  0  0.881688  0  2.403271  0  0  0.57696  0.80312  0  2.480197  0
Cd  Cd3  1  0.29769989  0.42907951  0.48867336  1  0  0.9859  0  1.982818  0  0  0.836355  0  2.447732  0  0  0.881726  0  2.403134  0  0  0.576895  0.803131  0  2.480101  0
Cd  Cd4  1  0.49999900  0.49999915  0.99999932  1  0  0.903544  0  2.014683  0  0  0.733923  0  2.481403  0  0  0.778774  0  2.442492  0  0  0.599653  0.701643  0  2.508647  0
Cd  Cd5  1  0.99999998  0.50000070  0.49999971  1  0  0.903599  0  2.014805  0  0  0.734115  0  2.48143  0  0  0.778938  0  2.442525  0  0  0.60016  0.701869  0  2.508644  0
H  H6  1  0.94937464  0.15516020  0.87704662  1  0  0.415641  0  0.824561  0  0  0.401655  0  0.873204  0  0  0.409611  0  0.864517  0  0  0.314819  0.395619  0  0.880133  0
H  H7  1  0.79422090  0.84489188  0.62290986  1  0  0.415882  0  0.824412  0  0  0.40188  0  0.873032  0  0  0.409841  0  0.864343  0  0  0.314899  0.39584  0  0.87996  0
H  H8  1  0.05062511  0.84483891  0.12295314  1  0  0.415659  0  0.824521  0  0  0.401673  0  0.873166  0  0  0.40963  0  0.864476  0  0  0.314836  0.395638  0  0.880093  0
H  H9  1  0.20577940  0.15510832  0.37708936  1  0  0.415881  0  0.824402  0  0  0.401878  0  0.873021  0  0  0.409838  0  0.864334  0  0  0.314885  0.395838  0  0.879949  0
H  H10  1  0.83692909  0.19143900  0.93373472  1  0  0.387302  0  0.932534  0  0  0.342049  0  1.020189  0  0  0.353733  0  1.003534  0  0  0.275008  0.333857  0  1.031773  0
H  H11  1  0.64547049  0.80856603  0.56623325  1  0  0.387311  0  0.932508  0  0  0.342027  0  1.020184  0  0  0.35371  0  1.00353  0  0  0.274966  0.333837  0  1.031767  0
H  H12  1  0.16306916  0.80855902  0.06626488  1  0  0.387302  0  0.932539  0  0  0.342048  0  1.020196  0  0  0.353732  0  1.00354  0  0  0.275007  0.333857  0  1.031779  0
H  H13  1  0.35453034  0.19143525  0.43376681  1  0  0.387317  0  0.932498  0  0  0.342039  0  1.020167  0  0  0.353721  0  1.003515  0  0  0.274971  0.333848  0  1.031751  0
H  H14  1  0.75257450  0.08349957  0.17456924  1  0  0.141946  0  0.908797  0  0  0.153881  0  0.958292  0  0  0.157721  0  0.956722  0  0  0.128836  0.150926  0  0.959985  0
H  H15  1  0.66909047  0.91655498  0.32538275  1  0  0.142052  0  0.908738  0  0  0.154037  0  0.958128  0  0  0.157895  0  0.956517  0  0  0.128878  0.151015  0  0.959941  0
H  H16  1  0.24742580  0.91650062  0.82543136  1  0  0.142025  0  0.908812  0  0  0.153956  0  0.958288  0  0  0.157794  0  0.956724  0  0  0.128852  0.151003  0  0.959981  0
H  H17  1  0.33091037  0.08344630  0.67461662  1  0  0.142073  0  0.908724  0  0  0.154063  0  0.958115  0  0  0.157921  0  0.956503  0  0  0.128895  0.151042  0  0.959928  0
H  H18  1  0.34115332  0.07275045  0.11354759  1  0  0.132649  0  0.927818  0  0  0.142237  0  0.984367  0  0  0.146078  0  0.98254  0  0  0.119691  0.139382  0  0.986073  0
H  H19  1  0.26842650  0.92729095  0.38648672  1  0  0.132624  0  0.927498  0  0  0.14222  0  0.984079  0  0  0.146068  0  0.982237  0  0  0.119687  0.139364  0  0.985785  0
H  H20  1  0.65884644  0.92724866  0.88645217  1  0  0.13266  0  0.927809  0  0  0.142248  0  0.984349  0  0  0.146089  0  0.982522  0  0  0.119699  0.139393  0  0.986055  0
H  H21  1  0.73157380  0.07270925  0.61351319  1  0  0.132605  0  0.927521  0  0  0.142198  0  0.984101  0  0  0.146047  0  0.982261  0  0  0.119681  0.139342  0  0.985808  0
H  H22  1  0.45801276  0.33068835  0.20507154  1  0  0.108249  0  0.966057  0  0  0.113507  0  1.033784  0  0  0.116468  0  1.030731  0  0  0.112108  0.111291  0  1.036018  0
H  H23  1  0.12721281  0.66936897  0.29497067  1  0  0.108504  0  0.965907  0  0  0.113599  0  1.033737  0  0  0.116543  0  1.030735  0  0  0.112112  0.111391  0  1.035947  0
H  H24  1  0.54198604  0.66931076  0.79492684  1  0  0.108264  0  0.966079  0  0  0.113538  0  1.033794  0  0  0.116494  0  1.030754  0  0  0.11211  0.111322  0  1.036027  0
H  H25  1  0.87278789  0.33063014  0.70502909  1  0  0.108485  0  0.965906  0  0  0.113577  0  1.033754  0  0  0.116523  0  1.030741  0  0  0.1121  0.111367  0  1.035963  0
H  H26  1  0.85176504  0.34120239  0.26550272  1  0  0.109831  0  0.953587  0  0  0.113631  0  1.02278  0  0  0.1163  0  1.019871  0  0  0.114814  0.111481  0  1.025293  0
H  H27  1  0.51043536  0.65882603  0.23445634  1  0  0.109601  0  0.953655  0  0  0.113749  0  1.022463  0  0  0.116439  0  1.019516  0  0  0.114856  0.111579  0  1.024997  0
H  H28  1  0.14823430  0.65879780  0.73449650  1  0  0.109817  0  0.953594  0  0  0.113628  0  1.022778  0  0  0.116305  0  1.019855  0  0  0.114815  0.111477  0  1.02529  0
H  H29  1  0.48956698  0.34117634  0.76554180  1  0  0.109637  0  0.953629  0  0  0.113756  0  1.022451  0  0  0.116445  0  1.019504  0  0  0.114862  0.111587  0  1.024989  0
H  H30  1  0.70161748  0.44375974  0.27477556  1  0  0.303719  0  0.883656  0  0  0.277507  0  0.958245  0  0  0.285823  0  0.95155  0  0  0.297792  0.271275  0  0.963621  0
H  H31  1  0.25764469  0.55629735  0.22521467  1  0  0.303868  0  0.883699  0  0  0.277851  0  0.958323  0  0  0.286198  0  0.951523  0  0  0.297826  0.271609  0  0.963742  0
H  H32  1  0.29838186  0.55624046  0.72522366  1  0  0.303735  0  0.883612  0  0  0.277538  0  0.958169  0  0  0.285853  0  0.951478  0  0  0.297795  0.271306  0  0.963544  0
H  H33  1  0.74235710  0.44370394  0.77478400  1  0  0.303913  0  0.883603  0  0  0.277869  0  0.958226  0  0  0.286215  0  0.951426  0  0  0.297828  0.271629  0  0.96364  0
C  C34  1  0.47713438  0.90523066  0.09192879  1  0  0.217891  0  3.810065  0  0  0.197301  0  4.089949  0  0  0.201889  0  4.10737  0  0  0.205607  0.194318  0  4.077842  0
C  C35  1  0.57201875  0.09482898  0.40801973  1  0  0.218441  0  3.809973  0  0  0.197559  0  4.089998  0  0  0.202173  0  4.107442  0  0  0.205995  0.194558  0  4.077869  0
C  C36  1  0.52286442  0.09476845  0.90807235  1  0  0.217824  0  3.810236  0  0  0.197261  0  4.090082  0  0  0.201841  0  4.107499  0  0  0.205565  0.194278  0  4.077976  0
C  C37  1  0.42798154  0.90517122  0.59198018  1  0  0.218481  0  3.809979  0  0  0.197582  0  4.090023  0  0  0.202197  0  4.107468  0  0  0.205982  0.19458  0  4.077896  0
C  C38  1  0.53770852  0.05660914  0.13939785  1  0  0.089364  0  3.744699  0  0  0.097718  0  3.985981  0  0  0.104975  0  4.005097  0  0  0.027798  0.092867  0  3.973222  0
C  C39  1  0.48115175  0.94343724  0.36057462  1  0  0.088614  0  3.745505  0  0  0.097273  0  3.986526  0  0  0.10443  0  4.005795  0  0  0.027538  0.092503  0  3.973648  0
C  C40  1  0.46229027  0.94338996  0.86060399  1  0  0.089415  0  3.744729  0  0  0.097751  0  3.985996  0  0  0.105037  0  4.005071  0  0  0.027848  0.092898  0  3.973237  0
C  C41  1  0.51885004  0.05656404  0.63942544  1  0  0.08858  0  3.745508  0  0  0.097247  0  3.986541  0  0  0.104405  0  4.005809  0  0  0.027523  0.092479  0  3.973659  0
C  C42  1  0.68419948  0.13429042  0.18053385  1  0  -0.127776  0  3.63175  0  0  -0.150282  0  3.883286  0  0  -0.159054  0  3.901683  0  0  -0.063394  -0.144627  0  3.871615  0
C  C43  1  0.54990220  0.86574652  0.31939385  1  0  -0.127502  0  3.631689  0  0  -0.150087  0  3.883178  0  0  -0.158825  0  3.901607  0  0  -0.063215  -0.144428  0  3.871479  0
C  C44  1  0.31580081  0.86570977  0.81946745  1  0  -0.127913  0  3.632015  0  0  -0.150398  0  3.883531  0  0  -0.15918  0  3.90192  0  0  -0.063402  -0.144744  0  3.87186  0
C  C45  1  0.45009905  0.13425368  0.68060537  1  0  -0.127546  0  3.631597  0  0  -0.150174  0  3.883124  0  0  -0.158914  0  3.901551  0  0  -0.063268  -0.144516  0  3.871427  0
C  C46  1  0.45329686  0.12672819  0.14730272  1  0  -0.141729  0  3.654805  0  0  -0.164299  0  3.910164  0  0  -0.172971  0  3.929748  0  0  -0.073085  -0.158838  0  3.897186  0
C  C47  1  0.32658822  0.87335362  0.35268503  1  0  -0.141555  0  3.65442  0  0  -0.164265  0  3.909545  0  0  -0.172898  0  3.929133  0  0  -0.073166  -0.158827  0  3.896547  0
C  C48  1  0.54670289  0.87327092  0.85269773  1  0  -0.141696  0  3.654827  0  0  -0.164245  0  3.910186  0  0  -0.172927  0  3.929763  0  0  -0.073087  -0.158786  0  3.897208  0
C  C49  1  0.67341208  0.12664657  0.64731488  1  0  -0.141467  0  3.654547  0  0  -0.164183  0  3.909687  0  0  -0.172817  0  3.929276  0  0  -0.073119  -0.158744  0  3.896687  0
C  C50  1  0.51557974  0.26881323  0.19663080  1  0  0.15837  0  3.606526  0  0  0.113615  0  3.866218  0  0  0.123043  0  3.881006  0  0  0.063909  0.107593  0  3.856314  0
C  C51  1  0.24669656  0.73125500  0.30338355  1  0  0.158291  0  3.605612  0  0  0.114032  0  3.864996  0  0  0.123441  0  3.879772  0  0  0.064196  0.108019  0  3.855118  0
C  C52  1  0.48442001  0.73118586  0.80337173  1  0  0.15831  0  3.606572  0  0  0.113522  0  3.866279  0  0  0.122947  0  3.881067  0  0  0.063886  0.107501  0  3.856374  0
C  C53  1  0.75330469  0.26874520  0.69661567  1  0  0.158279  0  3.605714  0  0  0.113964  0  3.865063  0  0  0.123375  0  3.87984  0  0  0.064189  0.107953  0  3.855183  0
C  C54  1  0.74077824  0.27566867  0.22994128  1  0  0.17347  0  3.600338  0  0  0.130478  0  3.857383  0  0  0.141088  0  3.871422  0  0  0.06917  0.12331  0  3.848293  0
C  C55  1  0.46501188  0.72435741  0.27002317  1  0  0.173717  0  3.599141  0  0  0.130483  0  3.856485  0  0  0.141066  0  3.87055  0  0  0.069206  0.123349  0  3.847356  0
C  C56  1  0.25922206  0.72433152  0.77005863  1  0  0.173503  0  3.600391  0  0  0.130494  0  3.857433  0  0  0.141106  0  3.871469  0  0  0.069138  0.123329  0  3.84834  0
C  C57  1  0.53498951  0.27564496  0.72997566  1  0  0.173681  0  3.599169  0  0  0.130459  0  3.856442  0  0  0.141044  0  3.870505  0  0  0.069221  0.123324  0  3.847319  0
N  N58  1  0.56104785  0.84208918  0.07240948  1  0  -0.251077  0  2.924332  0  0  -0.243601  0  3.202931  0  0  -0.24879  0  3.216813  0  0  -0.205103  -0.239216  0  3.193217  0
N  N59  1  0.71910347  0.15802817  0.42754860  1  0  -0.251403  0  2.924353  0  0  -0.243803  0  3.202938  0  0  -0.24899  0  3.216816  0  0  -0.205451  -0.239418  0  3.193231  0
N  N60  1  0.43895040  0.15790884  0.92759221  1  0  -0.251025  0  2.924384  0  0  -0.243554  0  3.202954  0  0  -0.248744  0  3.21684  0  0  -0.205067  -0.239169  0  3.193243  0
N  N61  1  0.28089587  0.84197203  0.57245131  1  0  -0.251428  0  2.924373  0  0  -0.243832  0  3.202955  0  0  -0.24902  0  3.216835  0  0  -0.205459  -0.239448  0  3.193249  0
N  N62  1  0.33282995  0.80810691  0.06594029  1  0  -0.271116  0  3.019466  0  0  -0.232825  0  3.284377  0  0  -0.242286  0  3.300087  0  0  -0.194345  -0.226456  0  3.273739  0
N  N63  1  0.52481357  0.19190167  0.43404165  1  0  -0.27121  0  3.019284  0  0  -0.23281  0  3.284107  0  0  -0.242267  0  3.299809  0  0  -0.194404  -0.226444  0  3.273477  0
N  N64  1  0.66716830  0.19189111  0.93406070  1  0  -0.271147  0  3.019522  0  0  -0.232865  0  3.28442  0  0  -0.242326  0  3.300133  0  0  -0.194372  -0.226495  0  3.273781  0
N  N65  1  0.47518727  0.80809961  0.56595911  1  0  -0.271166  0  3.019283  0  0  -0.232755  0  3.284106  0  0  -0.242213  0  3.299812  0  0  -0.194373  -0.226391  0  3.273477  0
N  N66  1  0.32935396  0.68375946  0.03020270  1  0  -0.112037  0  3.159799  0  0  -0.078413  0  3.447315  0  0  -0.086007  0  3.467859  0  0  -0.109818  -0.072844  0  3.433093  0
N  N67  1  0.64570716  0.31626949  0.46980014  1  0  -0.111832  0  3.159302  0  0  -0.078184  0  3.44683  0  0  -0.085765  0  3.467369  0  0  -0.109388  -0.072627  0  3.432625  0
N  N68  1  0.67064484  0.31623965  0.96979706  1  0  -0.112038  0  3.159787  0  0  -0.078418  0  3.447312  0  0  -0.086012  0  3.467859  0  0  -0.109834  -0.07285  0  3.433093  0
N  N69  1  0.35429367  0.68373178  0.53020061  1  0  -0.111845  0  3.159264  0  0  -0.078208  0  3.446784  0  0  -0.085791  0  3.467327  0  0  -0.109395  -0.072649  0  3.432577  0
N  N70  1  0.46592406  0.70506759  0.03414800  1  0  -0.108495  0  3.22956  0  0  -0.057249  0  3.521718  0  0  -0.067246  0  3.542661  0  0  -0.110847  -0.050068  0  3.506702  0
N  N71  1  0.76099663  0.29502227  0.46583563  1  0  -0.108397  0  3.2297  0  0  -0.057258  0  3.522077  0  0  -0.067272  0  3.543023  0  0  -0.111191  -0.050074  0  3.507076  0
N  N72  1  0.53407623  0.29493260  0.96585191  1  0  -0.108478  0  3.22955  0  0  -0.057232  0  3.521709  0  0  -0.067227  0  3.542651  0  0  -0.110831  -0.05005  0  3.506695  0
N  N73  1  0.23900325  0.70497901  0.53416443  1  0  -0.108411  0  3.229792  0  0  -0.057242  0  3.522139  0  0  -0.067257  0  3.543091  0  0  -0.111171  -0.050058  0  3.507137  0
N  N74  1  0.65544690  0.33787231  0.23703688  1  0  -0.208956  0  3.490286  0  0  -0.137072  0  3.717823  0  0  -0.152788  0  3.734036  0  0  -0.343122  -0.12692  0  3.707505  0
N  N75  1  0.31744936  0.66219228  0.26293977  1  0  -0.209276  0  3.48914  0  0  -0.138072  0  3.716978  0  0  -0.153759  0  3.733169  0  0  -0.343394  -0.127947  0  3.706687  0
N  N76  1  0.34455339  0.66212789  0.76296234  1  0  -0.208964  0  3.490163  0  0  -0.137085  0  3.717735  0  0  -0.1528  0  3.733948  0  0  -0.343107  -0.126933  0  3.707414  0
N  N77  1  0.68255244  0.33780901  0.73705890  1  0  -0.209315  0  3.489231  0  0  -0.137967  0  3.716895  0  0  -0.153653  0  3.733083  0  0  -0.343385  -0.127843  0  3.706607  0
Cl  Cl78  1  0.28500906  0.37921032  0.85971191  1  0  -0.55523  0  0.954605  0  0  -0.499436  0  1.219031  0  0  -0.51735  0  1.198357  0  0  -0.322346  -0.485713  0  1.234737  0
Cl  Cl79  1  0.90575834  0.62078214  0.64029402  1  0  -0.555442  0  0.95456  0  0  -0.499627  0  1.218983  0  0  -0.517531  0  1.198305  0  0  -0.322451  -0.485889  0  1.234644  0
Cl  Cl80  1  0.71499070  0.62078880  0.14028716  1  0  -0.555226  0  0.954617  0  0  -0.499432  0  1.219048  0  0  -0.517345  0  1.198375  0  0  -0.322345  -0.485706  0  1.234754  0
Cl  Cl81  1  0.09424196  0.37921806  0.35970520  1  0  -0.555452  0  0.954561  0  0  -0.499631  0  1.21898  0  0  -0.517536  0  1.1983  0  0  -0.322456  -0.485894  0  1.23464  0
Cl  Cl82  1  0.00565890  0.51334892  0.87560130  1  0  -0.560028  0  1.049502  0  0  -0.50308  0  1.338096  0  0  -0.522807  0  1.318244  0  0  -0.299436  -0.488186  0  1.353076  0
Cl  Cl83  1  0.49228024  0.48661572  0.62440803  1  0  -0.559901  0  1.049284  0  0  -0.502944  0  1.337836  0  0  -0.522689  0  1.318004  0  0  -0.299427  -0.488035  0  1.352802  0
Cl  Cl84  1  0.99434098  0.48665236  0.12439876  1  0  -0.560034  0  1.049512  0  0  -0.503085  0  1.338098  0  0  -0.522807  0  1.318246  0  0  -0.299434  -0.488186  0  1.353073  0
Cl  Cl85  1  0.50772006  0.51338447  0.37559188  1  0  -0.55989  0  1.049296  0  0  -0.502921  0  1.337841  0  0  -0.522667  0  1.318009  0  0  -0.299416  -0.488012  0  1.352807  0
Cl  Cl86  1  0.28502119  0.38444394  0.11122549  1  0  -0.55579  0  0.964072  0  0  -0.49716  0  1.222831  0  0  -0.515031  0  1.202078  0  0  -0.305301  -0.483627  0  1.238494  0
Cl  Cl87  1  0.90062791  0.61560722  0.38877582  1  0  -0.555867  0  0.963992  0  0  -0.49732  0  1.222829  0  0  -0.515163  0  1.202089  0  0  -0.305255  -0.483804  0  1.238489  0
Cl  Cl88  1  0.71497814  0.61555626  0.88877442  1  0  -0.555772  0  0.964057  0  0  -0.497147  0  1.222821  0  0  -0.515015  0  1.20207  0  0  -0.305287  -0.483612  0  1.238485  0
Cl  Cl89  1  0.09937144  0.38439298  0.61122339  1  0  -0.555884  0  0.963997  0  0  -0.497337  0  1.222834  0  0  -0.515183  0  1.202091  0  0  -0.305263  -0.483822  0  1.238494  0
O  O90  1  0.93156727  0.18944785  0.94028238  1  0  -0.783878  0  1.895211  0  0  -0.723531  0  2.074617  0  0  -0.743578  0  2.046335  0  0  -0.579683  -0.709433  0  2.095375  0
O  O91  1  0.74208674  0.81054511  0.55967869  1  0  -0.784139  0  1.894976  0  0  -0.723723  0  2.074444  0  0  -0.743775  0  2.046156  0  0  -0.579679  -0.70962  0  2.095202  0
O  O92  1  0.06843303  0.81055235  0.05971752  1  0  -0.783889  0  1.895186  0  0  -0.723543  0  2.074595  0  0  -0.74359  0  2.046309  0  0  -0.579695  -0.709444  0  2.095351  0
O  O93  1  0.25791356  0.18945508  0.44032122  1  0  -0.784139  0  1.894977  0  0  -0.723729  0  2.074437  0  0  -0.74378  0  2.046153  0  0  -0.579669  -0.709623  0  2.095198  0
