# generated using pymatgen
data_NdH8C7N3O8
_symmetry_space_group_name_H-M   'P 1'
_cell_length_a   10.53887717
_cell_length_b   10.53891178
_cell_length_c   13.02169007
_cell_angle_alpha   75.36798863
_cell_angle_beta   75.36808170
_cell_angle_gamma   58.93888660
_symmetry_Int_Tables_number   1
_chemical_formula_structural   NdH8C7N3O8
_chemical_formula_sum   'Nd4 H32 C28 N12 O32'
_cell_volume   1185.62647975
_cell_formula_units_Z   4
loop_
 _symmetry_equiv_pos_site_id
 _symmetry_equiv_pos_as_xyz
  1  'x, y, z'
loop_
 _atom_site_type_symbol
 _atom_site_label
 _atom_site_symmetry_multiplicity
 _atom_site_fract_x
 _atom_site_fract_y
 _atom_site_fract_z
 _atom_site_occupancy
 _atom_site_hle17_bader_spin_density
 _atom_site_hle17_ddec_charge
 _atom_site_hle17_ddec_spin_density
 _atom_site_hle17_ddec_sum_bond_order
 _atom_site_hle17_magmom
 _atom_site_hse06_10hf_bader_spin_density
 _atom_site_hse06_10hf_ddec_charge
 _atom_site_hse06_10hf_ddec_spin_density
 _atom_site_hse06_10hf_ddec_sum_bond_order
 _atom_site_hse06_10hf_magmom
 _atom_site_hse06_bader_spin_density
 _atom_site_hse06_ddec_charge
 _atom_site_hse06_ddec_spin_density
 _atom_site_hse06_ddec_sum_bond_order
 _atom_site_hse06_magmom
 _atom_site_pbe_bader_spin_density
 _atom_site_pbe_cm5_charge
 _atom_site_pbe_ddec_charge
 _atom_site_pbe_ddec_spin_density
 _atom_site_pbe_ddec_sum_bond_order
 _atom_site_pbe_magmom
Nd  Nd0  1  0.24279577  0.26171270  0.29163002  1  0  2.254  0  1.580601  0  0  2.068449  0  2.057243  0  0  2.177837  0  1.890804  0  0  1.448674  2.035327  0  2.089513  0
Nd  Nd1  1  0.73828436  0.75720556  0.20837155  1  0  2.253984  0  1.580644  0  0  2.068436  0  2.057288  0  0  2.177821  0  1.890853  0  0  1.448657  2.03531  0  2.089564  0
Nd  Nd2  1  0.75720038  0.73828526  0.70837283  1  0  2.253997  0  1.58051  0  0  2.068511  0  2.057029  0  0  2.17782  0  1.890716  0  0  1.448666  2.035362  0  2.089344  0
Nd  Nd3  1  0.26171309  0.24280017  0.79162724  1  0  2.254026  0  1.580514  0  0  2.068508  0  2.057102  0  0  2.177864  0  1.890713  0  0  1.448698  2.03538  0  2.089387  0
H  H4  1  0.07878581  0.59569715  0.31842699  1  0  0.436832  0  0.864674  0  0  0.404621  0  0.930579  0  0  0.416204  0  0.913818  0  0  0.299265  0.396426  0  0.942637  0
H  H5  1  0.40430214  0.92121410  0.18157242  1  0  0.436813  0  0.864672  0  0  0.404604  0  0.930575  0  0  0.416186  0  0.913815  0  0  0.299258  0.396409  0  0.942631  0
H  H6  1  0.92121469  0.40430633  0.68157011  1  0  0.436863  0  0.864625  0  0  0.404639  0  0.930552  0  0  0.416222  0  0.91379  0  0  0.299276  0.396445  0  0.942608  0
H  H7  1  0.59569251  0.07878502  0.81842896  1  0  0.436817  0  0.864661  0  0  0.404606  0  0.930569  0  0  0.416188  0  0.913809  0  0  0.299259  0.39641  0  0.942627  0
H  H8  1  0.24207976  0.51339483  0.34938865  1  0  0.423637  0  0.836438  0  0  0.405956  0  0.890638  0  0  0.414488  0  0.878421  0  0  0.318945  0.399901  0  0.898389  0
H  H9  1  0.48660558  0.75791948  0.15061320  1  0  0.423629  0  0.83651  0  0  0.405969  0  0.890632  0  0  0.414501  0  0.878416  0  0  0.318941  0.399913  0  0.898429  0
H  H10  1  0.75791673  0.48660868  0.65061305  1  0  0.423629  0  0.836538  0  0  0.406001  0  0.890593  0  0  0.414533  0  0.878377  0  0  0.31896  0.399947  0  0.898399  0
H  H11  1  0.51339046  0.24208293  0.84938804  1  0  0.423599  0  0.836579  0  0  0.40597  0  0.890636  0  0  0.414503  0  0.878419  0  0  0.318947  0.399914  0  0.898446  0
H  H12  1  0.43291326  0.93491865  0.40565163  1  0  0.448575  0  0.846137  0  0  0.419946  0  0.90499  0  0  0.431447  0  0.88825  0  0  0.304589  0.412048  0  0.916565  0
H  H13  1  0.06508460  0.56708457  0.09434895  1  0  0.448563  0  0.846143  0  0  0.41993  0  0.905005  0  0  0.43143  0  0.888266  0  0  0.304583  0.412032  0  0.916581  0
H  H14  1  0.56708388  0.06508156  0.59434598  1  0  0.448576  0  0.846134  0  0  0.419941  0  0.904999  0  0  0.431442  0  0.888259  0  0  0.30459  0.412042  0  0.916576  0
H  H15  1  0.93491639  0.43291548  0.90565639  1  0  0.44858  0  0.846129  0  0  0.419938  0  0.905005  0  0  0.431439  0  0.888266  0  0  0.304585  0.41204  0  0.916581  0
H  H16  1  0.27791246  0.99521076  0.48502518  1  0  0.402478  0  0.912024  0  0  0.363058  0  0.990764  0  0  0.374659  0  0.97417  0  0  0.288897  0.355111  0  1.002198  0
H  H17  1  0.00479328  0.72208599  0.01497416  1  0  0.402464  0  0.91204  0  0  0.363084  0  0.99071  0  0  0.374685  0  0.974117  0  0  0.288915  0.355135  0  1.002149  0
H  H18  1  0.72208869  0.00478717  0.51497210  1  0  0.402469  0  0.912037  0  0  0.363074  0  0.990729  0  0  0.374675  0  0.974137  0  0  0.288918  0.355128  0  1.002163  0
H  H19  1  0.99521228  0.27791066  0.98502942  1  0  0.402477  0  0.912023  0  0  0.363081  0  0.990717  0  0  0.374682  0  0.974125  0  0  0.288917  0.355134  0  1.002154  0
H  H20  1  0.56104354  0.28095734  0.40885455  1  0  0.350587  0  0.902733  0  0  0.330874  0  0.967238  0  0  0.34005  0  0.958997  0  0  0.303972  0.3245  0  0.972822  0
H  H21  1  0.71904178  0.43895681  0.09114632  1  0  0.350559  0  0.90281  0  0  0.330839  0  0.967329  0  0  0.340014  0  0.959088  0  0  0.303941  0.324466  0  0.972909  0
H  H22  1  0.43895766  0.71903836  0.59114392  1  0  0.350467  0  0.902767  0  0  0.330748  0  0.967298  0  0  0.339923  0  0.959058  0  0  0.303897  0.324376  0  0.972878  0
H  H23  1  0.28096215  0.56104544  0.90885495  1  0  0.350411  0  0.902874  0  0  0.330702  0  0.967385  0  0  0.339875  0  0.95915  0  0  0.303881  0.324329  0  0.972964  0
H  H24  1  0.61834156  0.42101443  0.36470390  1  0  0.345902  0  0.898785  0  0  0.331994  0  0.95219  0  0  0.340489  0  0.944913  0  0  0.310597  0.326136  0  0.956949  0
H  H25  1  0.57898566  0.38165692  0.13529707  1  0  0.345909  0  0.898781  0  0  0.331999  0  0.952191  0  0  0.340494  0  0.944912  0  0  0.310594  0.326142  0  0.956947  0
H  H26  1  0.38165211  0.57898471  0.63529690  1  0  0.34588  0  0.898854  0  0  0.331982  0  0.952253  0  0  0.340476  0  0.944975  0  0  0.310565  0.326153  0  0.956964  0
H  H27  1  0.42101922  0.61834755  0.86470205  1  0  0.345901  0  0.89879  0  0  0.332011  0  0.9522  0  0  0.340499  0  0.944918  0  0  0.310585  0.32619  0  0.956895  0
H  H28  1  0.00264411  0.84546442  0.41498829  1  0  0.093418  0  0.940521  0  0  0.101298  0  1.003524  0  0  0.104639  0  1.000217  0  0  0.12088  0.098658  0  1.006175  0
H  H29  1  0.15453595  0.99735579  0.08501213  1  0  0.093432  0  0.940535  0  0  0.101309  0  1.003533  0  0  0.104653  0  1.000218  0  0  0.120882  0.098672  0  1.006187  0
H  H30  1  0.99735386  0.15453791  0.58501642  1  0  0.093395  0  0.940507  0  0  0.101271  0  1.003519  0  0  0.104616  0  1.000204  0  0  0.120867  0.098627  0  1.006179  0
H  H31  1  0.84546224  0.00264220  0.91498417  1  0  0.093392  0  0.940449  0  0  0.101265  0  1.003472  0  0  0.104607  0  1.000164  0  0  0.120877  0.098622  0  1.006144  0
H  H32  1  0.20390230  0.92307326  0.34320003  1  0  0.100635  0  0.942163  0  0  0.108199  0  1.004324  0  0  0.112486  0  1.001252  0  0  0.122155  0.105121  0  1.006657  0
H  H33  1  0.07692595  0.79610083  0.15680087  1  0  0.100629  0  0.942196  0  0  0.108201  0  1.004343  0  0  0.112489  0  1.001268  0  0  0.122164  0.105131  0  1.006677  0
H  H34  1  0.79609975  0.07692456  0.65680477  1  0  0.100605  0  0.942237  0  0  0.108201  0  1.004361  0  0  0.112484  0  1.00129  0  0  0.122167  0.105125  0  1.006694  0
H  H35  1  0.92306701  0.20390610  0.84319855  1  0  0.100604  0  0.942262  0  0  0.108235  0  1.004334  0  0  0.112542  0  1.001238  0  0  0.122205  0.105166  0  1.006667  0
C  C36  1  0.90326874  0.25362128  0.33941949  1  0  -0.062458  0  3.708207  0  0  -0.052766  0  3.953849  0  0  -0.061528  0  3.973722  0  0  0.108658  -0.047358  0  3.942359  0
C  C37  1  0.74638090  0.09672980  0.16058149  1  0  -0.062522  0  3.708307  0  0  -0.05278  0  3.95393  0  0  -0.061557  0  3.9738  0  0  0.108696  -0.047376  0  3.942439  0
C  C38  1  0.09672829  0.74638111  0.66058156  1  0  -0.062513  0  3.708391  0  0  -0.05279  0  3.953986  0  0  -0.061562  0  3.973856  0  0  0.108664  -0.047386  0  3.942499  0
C  C39  1  0.25361913  0.90327258  0.83941591  1  0  -0.062519  0  3.708226  0  0  -0.052785  0  3.95384  0  0  -0.061558  0  3.973716  0  0  0.108673  -0.047379  0  3.942345  0
C  C40  1  0.78854636  0.21088447  0.37921163  1  0  0.439322  0  3.814323  0  0  0.40373  0  4.084645  0  0  0.422382  0  4.099031  0  0  0.241547  0.391475  0  4.074139  0
C  C41  1  0.78911742  0.21145387  0.12079131  1  0  0.43943  0  3.814312  0  0  0.403802  0  4.084685  0  0  0.422466  0  4.099058  0  0  0.24152  0.391551  0  4.074169  0
C  C42  1  0.21145419  0.78911451  0.62079170  1  0  0.439215  0  3.814411  0  0  0.403675  0  4.084654  0  0  0.422333  0  4.099034  0  0  0.241456  0.391423  0  4.074145  0
C  C43  1  0.21088762  0.78854619  0.87920556  1  0  0.439233  0  3.814305  0  0  0.403644  0  4.084633  0  0  0.422301  0  4.099013  0  0  0.241443  0.391389  0  4.074119  0
C  C44  1  0.97420526  0.96323021  0.39230200  1  0  0.117843  0  3.708564  0  0  0.084715  0  3.974582  0  0  0.09327  0  3.989381  0  0  0.057443  0.079433  0  3.964149  0
C  C45  1  0.03677109  0.02579299  0.10769476  1  0  0.117792  0  3.708614  0  0  0.084691  0  3.974613  0  0  0.093245  0  3.989416  0  0  0.05744  0.079404  0  3.964181  0
C  C46  1  0.02579329  0.03677106  0.60769821  1  0  0.117941  0  3.708531  0  0  0.084819  0  3.974555  0  0  0.093375  0  3.989353  0  0  0.057459  0.079532  0  3.964119  0
C  C47  1  0.96323005  0.97420492  0.89230329  1  0  0.117965  0  3.708329  0  0  0.084852  0  3.974378  0  0  0.093406  0  3.989183  0  0  0.057473  0.079561  0  3.963943  0
C  C48  1  0.08542000  0.00516922  0.35345280  1  0  0.024181  0  3.745556  0  0  -0.009496  0  4.025491  0  0  -0.013515  0  4.046726  0  0  0.02906  -0.007084  0  4.012688  0
C  C49  1  0.99483258  0.91457971  0.14654671  1  0  0.024148  0  3.745617  0  0  -0.009533  0  4.02554  0  0  -0.013555  0  4.046773  0  0  0.029028  -0.007115  0  4.012734  0
C  C50  1  0.91458105  0.99483089  0.64654714  1  0  0.024182  0  3.745608  0  0  -0.009526  0  4.025551  0  0  -0.013542  0  4.046781  0  0  0.029039  -0.00711  0  4.012743  0
C  C51  1  0.00516492  0.08542379  0.85345326  1  0  0.024141  0  3.745513  0  0  -0.009601  0  4.025456  0  0  -0.013637  0  4.046684  0  0  0.028973  -0.007181  0  4.012648  0
C  C52  1  0.87159880  0.41153178  0.30164280  1  0  0.658335  0  3.921495  0  0  0.60586  0  4.220399  0  0  0.640827  0  4.217788  0  0  0.216224  0.581628  0  4.227333  0
C  C53  1  0.58847006  0.12839996  0.19835649  1  0  0.658316  0  3.92154  0  0  0.605809  0  4.220479  0  0  0.640784  0  4.217858  0  0  0.216175  0.581576  0  4.227411  0
C  C54  1  0.12839631  0.58847071  0.69835323  1  0  0.658456  0  3.92144  0  0  0.605919  0  4.220408  0  0  0.640891  0  4.217784  0  0  0.216195  0.581687  0  4.227345  0
C  C55  1  0.41152884  0.87160685  0.80164257  1  0  0.658464  0  3.921502  0  0  0.605933  0  4.22047  0  0  0.640903  0  4.21785  0  0  0.216243  0.5817  0  4.227402  0
C  C56  1  0.32569222  0.26113653  0.52304991  1  0  0.564718  0  3.916917  0  0  0.516794  0  4.216188  0  0  0.546594  0  4.211575  0  0  0.224161  0.496339  0  4.222529  0
C  C57  1  0.73886603  0.67430441  0.97695092  1  0  0.564627  0  3.916966  0  0  0.516685  0  4.216271  0  0  0.54648  0  4.211657  0  0  0.224094  0.496227  0  4.222614  0
C  C58  1  0.67431158  0.73885126  0.47695727  1  0  0.564513  0  3.91715  0  0  0.516585  0  4.216447  0  0  0.546381  0  4.21184  0  0  0.224102  0.49613  0  4.222783  0
C  C59  1  0.26114571  0.32568780  0.02304157  1  0  0.564531  0  3.917091  0  0  0.516561  0  4.216451  0  0  0.546358  0  4.21185  0  0  0.224134  0.496105  0  4.222791  0
C  C60  1  0.15996639  0.29573946  0.55128655  1  0  0.570363  0  3.899221  0  0  0.525006  0  4.199221  0  0  0.555341  0  4.194346  0  0  0.223866  0.504243  0  4.20573  0
C  C61  1  0.70426754  0.84003041  0.94871472  1  0  0.57023  0  3.899177  0  0  0.524832  0  4.199262  0  0  0.555185  0  4.194355  0  0  0.223735  0.50407  0  4.205773  0
C  C62  1  0.84002984  0.70427518  0.44870997  1  0  0.570543  0  3.899134  0  0  0.525226  0  4.199056  0  0  0.555566  0  4.194167  0  0  0.224008  0.504463  0  4.205567  0
C  C63  1  0.29572663  0.15996759  0.05128850  1  0  0.570468  0  3.899186  0  0  0.525165  0  4.1991  0  0  0.555499  0  4.194226  0  0  0.223977  0.504401  0  4.205616  0
N  N64  1  0.04805498  0.15029746  0.33016058  1  0  -0.325814  0  3.309792  0  0  -0.284021  0  3.577817  0  0  -0.293917  0  3.598833  0  0  -0.342074  -0.280744  0  3.564859  0
N  N65  1  0.84970431  0.95194453  0.16984111  1  0  -0.325778  0  3.30976  0  0  -0.284009  0  3.577792  0  0  -0.293894  0  3.598805  0  0  -0.34206  -0.280722  0  3.564828  0
N  N66  1  0.95194303  0.84970491  0.66984105  1  0  -0.325792  0  3.309774  0  0  -0.284021  0  3.577815  0  0  -0.293903  0  3.598824  0  0  -0.342031  -0.280738  0  3.564857  0
N  N67  1  0.15029324  0.04805902  0.83015501  1  0  -0.325757  0  3.309632  0  0  -0.283973  0  3.577675  0  0  -0.293863  0  3.598699  0  0  -0.341987  -0.280685  0  3.564708  0
N  N68  1  0.82890777  0.06280716  0.40742006  1  0  -0.383756  0  3.064008  0  0  -0.327597  0  3.318573  0  0  -0.343867  0  3.330478  0  0  -0.305066  -0.316795  0  3.310433  0
N  N69  1  0.93719337  0.17109060  0.09258215  1  0  -0.383678  0  3.063954  0  0  -0.327559  0  3.318576  0  0  -0.343833  0  3.330479  0  0  -0.305018  -0.316754  0  3.310432  0
N  N70  1  0.17109032  0.93719073  0.59258627  1  0  -0.383742  0  3.064014  0  0  -0.32763  0  3.318615  0  0  -0.343903  0  3.330517  0  0  -0.305013  -0.31683  0  3.310474  0
N  N71  1  0.06281123  0.82890838  0.90741271  1  0  -0.383748  0  3.063942  0  0  -0.327641  0  3.318554  0  0  -0.343913  0  3.330456  0  0  -0.305013  -0.316828  0  3.310404  0
N  N72  1  0.64295428  0.31188984  0.39093722  1  0  -0.64387  0  3.09266  0  0  -0.608683  0  3.321359  0  0  -0.631639  0  3.317897  0  0  -0.562076  -0.592633  0  3.322347  0
N  N73  1  0.68811092  0.35704522  0.10906278  1  0  -0.643906  0  3.092752  0  0  -0.608701  0  3.321464  0  0  -0.631661  0  3.317998  0  0  -0.562035  -0.592651  0  3.322444  0
N  N74  1  0.35704592  0.68810585  0.60906298  1  0  -0.643672  0  3.092663  0  0  -0.608511  0  3.321334  0  0  -0.631469  0  3.317875  0  0  -0.561934  -0.592485  0  3.322274  0
N  N75  1  0.31189556  0.64295591  0.89093515  1  0  -0.643651  0  3.092689  0  0  -0.608487  0  3.321383  0  0  -0.631435  0  3.317925  0  0  -0.561932  -0.592464  0  3.322309  0
O  O76  1  0.18723740  0.52729676  0.29386678  1  0  -0.865688  0  1.810258  0  0  -0.818874  0  1.989237  0  0  -0.8422  0  1.952817  0  0  -0.621052  -0.806969  0  2.010167  0
O  O77  1  0.47270326  0.81276249  0.20613265  1  0  -0.86566  0  1.810343  0  0  -0.818867  0  1.989241  0  0  -0.842192  0  1.952822  0  0  -0.62103  -0.806956  0  2.010212  0
O  O78  1  0.81276365  0.47270335  0.70613316  1  0  -0.865691  0  1.810315  0  0  -0.81893  0  1.989164  0  0  -0.842248  0  1.952752  0  0  -0.621054  -0.80702  0  2.010147  0
O  O79  1  0.52729680  0.18723764  0.79386749  1  0  -0.865623  0  1.810369  0  0  -0.818865  0  1.989207  0  0  -0.842189  0  1.952787  0  0  -0.621024  -0.806954  0  2.010192  0
O  O80  1  0.33263830  0.02409506  0.41645428  1  0  -0.929871  0  1.903474  0  0  -0.875518  0  2.107876  0  0  -0.902944  0  2.070461  0  0  -0.65422  -0.861514  0  2.130404  0
O  O81  1  0.97590835  0.66736135  0.08354516  1  0  -0.929851  0  1.903462  0  0  -0.875517  0  2.10785  0  0  -0.902942  0  2.070438  0  0  -0.654219  -0.861513  0  2.130383  0
O  O82  1  0.66736232  0.97590398  0.58354289  1  0  -0.929841  0  1.903424  0  0  -0.875522  0  2.107824  0  0  -0.902937  0  2.070414  0  0  -0.654224  -0.861514  0  2.130354  0
O  O83  1  0.02409517  0.33263756  0.91645838  1  0  -0.929872  0  1.903419  0  0  -0.875534  0  2.107829  0  0  -0.902958  0  2.07042  0  0  -0.654215  -0.861528  0  2.130361  0
O  O84  1  0.98277522  0.43552727  0.26467053  1  0  -0.732839  0  2.088827  0  0  -0.676041  0  2.343714  0  0  -0.713156  0  2.336488  0  0  -0.387757  -0.657712  0  2.349496  0
O  O85  1  0.56447105  0.01722424  0.23533092  1  0  -0.732851  0  2.088824  0  0  -0.676045  0  2.343734  0  0  -0.713162  0  2.336502  0  0  -0.387755  -0.657709  0  2.349512  0
O  O86  1  0.01722554  0.56446734  0.73532670  1  0  -0.732844  0  2.088806  0  0  -0.676084  0  2.34381  0  0  -0.713191  0  2.336582  0  0  -0.387702  -0.657749  0  2.34959  0
O  O87  1  0.43552384  0.98278259  0.76467353  1  0  -0.732881  0  2.088807  0  0  -0.676093  0  2.343759  0  0  -0.713203  0  2.336531  0  0  -0.387799  -0.657753  0  2.349534  0
O  O88  1  0.73651171  0.51685744  0.30403393  1  0  -0.669197  0  1.99177  0  0  -0.614841  0  2.223938  0  0  -0.644851  0  2.212685  0  0  -0.358406  -0.598675  0  2.230674  0
O  O89  1  0.48314236  0.26348816  0.19596454  1  0  -0.669168  0  1.991717  0  0  -0.614805  0  2.2239  0  0  -0.644818  0  2.212644  0  0  -0.35838  -0.598634  0  2.230633  0
O  O90  1  0.26348588  0.48314387  0.69596415  1  0  -0.669273  0  1.991612  0  0  -0.614906  0  2.22382  0  0  -0.644916  0  2.212566  0  0  -0.358449  -0.598746  0  2.230561  0
O  O91  1  0.51685848  0.73652086  0.80403141  1  0  -0.669269  0  1.991706  0  0  -0.61492  0  2.223922  0  0  -0.644921  0  2.212661  0  0  -0.358446  -0.598754  0  2.230664  0
O  O92  1  0.37838992  0.27645541  0.42447582  1  0  -0.662673  0  2.065826  0  0  -0.606904  0  2.296235  0  0  -0.636477  0  2.285186  0  0  -0.344888  -0.590741  0  2.302359  0
O  O93  1  0.72354515  0.62160794  0.07552355  1  0  -0.662581  0  2.065797  0  0  -0.606807  0  2.296209  0  0  -0.63638  0  2.285166  0  0  -0.344841  -0.59064  0  2.302334  0
O  O94  1  0.62161081  0.72352257  0.57552234  1  0  -0.662517  0  2.066045  0  0  -0.606752  0  2.296445  0  0  -0.636311  0  2.285403  0  0  -0.344798  -0.590591  0  2.302573  0
O  O95  1  0.27647668  0.37838950  0.92447825  1  0  -0.662498  0  2.066005  0  0  -0.60672  0  2.296427  0  0  -0.636283  0  2.285385  0  0  -0.344802  -0.590555  0  2.302552  0
O  O96  1  0.39621429  0.22015450  0.60096596  1  0  -0.637107  0  2.114963  0  0  -0.579465  0  2.352078  0  0  -0.608961  0  2.340685  0  0  -0.34373  -0.563254  0  2.358174  0
O  O97  1  0.77984513  0.60378438  0.89903207  1  0  -0.637117  0  2.114982  0  0  -0.57943  0  2.352066  0  0  -0.608922  0  2.340679  0  0  -0.34371  -0.563215  0  2.358164  0
O  O98  1  0.60378795  0.77983895  0.39903351  1  0  -0.637044  0  2.114798  0  0  -0.579418  0  2.351927  0  0  -0.608922  0  2.340543  0  0  -0.343726  -0.563209  0  2.358021  0
O  O99  1  0.22015660  0.39621020  0.10096652  1  0  -0.63705  0  2.114779  0  0  -0.579405  0  2.351921  0  0  -0.608908  0  2.340538  0  0  -0.343742  -0.56319  0  2.358016  0
O  O100  1  0.09268998  0.31665560  0.47615745  1  0  -0.643001  0  2.023701  0  0  -0.598677  0  2.266823  0  0  -0.62812  0  2.256646  0  0  -0.35442  -0.58265  0  2.271337  0
O  O101  1  0.68334330  0.90730992  0.02384614  1  0  -0.642949  0  2.023657  0  0  -0.598606  0  2.266812  0  0  -0.628055  0  2.256616  0  0  -0.354378  -0.582578  0  2.271327  0
O  O102  1  0.90729571  0.68334820  0.52383861  1  0  -0.643073  0  2.024035  0  0  -0.598763  0  2.267156  0  0  -0.628192  0  2.256964  0  0  -0.354483  -0.58274  0  2.271671  0
O  O103  1  0.31665040  0.09270357  0.97615954  1  0  -0.643055  0  2.023958  0  0  -0.598759  0  2.267106  0  0  -0.628182  0  2.256895  0  0  -0.354495  -0.582736  0  2.271628  0
O  O104  1  0.10506389  0.29852024  0.65031266  1  0  -0.674595  0  2.121834  0  0  -0.6176  0  2.366103  0  0  -0.649516  0  2.355891  0  0  -0.345308  -0.600222  0  2.372596  0
O  O105  1  0.70147642  0.89493529  0.84969088  1  0  -0.674524  0  2.121836  0  0  -0.617517  0  2.366105  0  0  -0.649433  0  2.355883  0  0  -0.34522  -0.600135  0  2.372598  0
O  O106  1  0.89494726  0.70147532  0.34967929  1  0  -0.674683  0  2.121454  0  0  -0.617753  0  2.365795  0  0  -0.649679  0  2.355581  0  0  -0.345387  -0.600375  0  2.372288  0
O  O107  1  0.29852234  0.10505478  0.15031991  1  0  -0.674627  0  2.121525  0  0  -0.6177  0  2.365874  0  0  -0.649625  0  2.355665  0  0  -0.345353  -0.600315  0  2.372363  0
