# generated using pymatgen
data_CoH24C24(N2O)4
_symmetry_space_group_name_H-M   'P 1'
_cell_length_a   8.53280287
_cell_length_b   8.50264902
_cell_length_c   9.78806197
_cell_angle_alpha   85.20445719
_cell_angle_beta   90.23329801
_cell_angle_gamma   66.66492257
_symmetry_Int_Tables_number   1
_chemical_formula_structural   CoH24C24(N2O)4
_chemical_formula_sum   'Co1 H24 C24 N8 O4'
_cell_volume   649.23203394
_cell_formula_units_Z   1
loop_
 _symmetry_equiv_pos_site_id
 _symmetry_equiv_pos_as_xyz
  1  'x, y, z'
loop_
 _atom_site_type_symbol
 _atom_site_label
 _atom_site_symmetry_multiplicity
 _atom_site_fract_x
 _atom_site_fract_y
 _atom_site_fract_z
 _atom_site_occupancy
 _atom_site_hle17_ddec_charge
 _atom_site_hle17_ddec_spin_density
 _atom_site_hle17_ddec_sum_bond_order
 _atom_site_hle17_magmom
 _atom_site_hse06_10hf_ddec_charge
 _atom_site_hse06_10hf_ddec_spin_density
 _atom_site_hse06_10hf_ddec_sum_bond_order
 _atom_site_hse06_10hf_magmom
 _atom_site_hse06_ddec_charge
 _atom_site_hse06_ddec_spin_density
 _atom_site_hse06_ddec_sum_bond_order
 _atom_site_hse06_magmom
 _atom_site_pbe_cm5_charge
 _atom_site_pbe_ddec_charge
 _atom_site_pbe_ddec_spin_density
 _atom_site_pbe_ddec_sum_bond_order
 _atom_site_pbe_magmom
Co  Co0  1  0.99999923  0.00000315  0.00000113  1  0.556904  1.070828  2.632456  0.977  0.526645  1.018369  3.082043  0.95  0.591824  1.024069  3.013029  0.966  0.693636  0.484693  1.004242  3.127886  0.924
H  H1  1  0.21055002  0.17018050  0.79709592  1  0.118409  -4.8e-05  0.967507  0.0  0.127378  -0.000108  1.027836  0.0  0.129612  -7.8e-05  1.025749  0.0  0.123415  0.125496  -0.000136  1.029778  0.0
H  H2  1  0.78944782  0.82982027  0.20290809  1  0.118416  -4.9e-05  0.967525  0.0  0.127357  -0.000108  1.027889  0.0  0.12959  -7.8e-05  1.025803  0.0  0.123404  0.125475  -0.000136  1.02983  0.0
H  H3  1  0.02164032  0.23349675  0.17858261  1  0.304055  -0.000227  0.908168  0.0  0.285652  -0.000193  0.96661  0.0  0.293484  -0.000178  0.960579  0.0  0.332819  0.279878  -0.000199  0.971234  0.0
H  H4  1  0.97836073  0.76651054  0.82142091  1  0.304122  -0.000227  0.908168  0.0  0.285702  -0.000193  0.966632  0.0  0.293537  -0.000178  0.960594  0.0  0.332815  0.279926  -0.000198  0.971257  0.0
H  H5  1  0.17568225  0.44817080  0.15553938  1  0.113105  -6.7e-05  0.944601  0.0  0.122574  -0.000103  1.007009  0.0  0.125161  -7.5e-05  1.004955  0.0  0.124963  0.120515  -0.00013  1.008808  0.0
H  H6  1  0.82431136  0.55184026  0.84445773  1  0.113049  -6.6e-05  0.94472  0.0  0.122563  -0.000103  1.007053  0.0  0.12515  -7.5e-05  1.005  0.0  0.124944  0.12049  -0.00013  1.008872  0.0
H  H7  1  0.60646548  0.17040943  0.05878149  1  0.105956  -8.6e-05  0.950294  0.0  0.113812  -0.000152  1.017296  0.0  0.115825  -0.000113  1.015039  0.0  0.120469  0.112064  -0.000177  1.019399  0.0
H  H8  1  0.39353119  0.82959133  0.94122151  1  0.105992  -8.5e-05  0.950292  0.0  0.11386  -0.000152  1.017281  0.0  0.115873  -0.000112  1.015023  0.0  0.120474  0.112111  -0.000177  1.019389  0.0
H  H9  1  0.89212143  0.20680335  0.72772547  1  0.290222  -0.000113  0.96131  0.0  0.262283  -7.4e-05  1.035444  0.0  0.272883  -6.9e-05  1.026829  0.0  0.305584  0.254717  -5.1e-05  1.04161  0.0
H  H10  1  0.10787626  0.79319482  0.27227364  1  0.290256  -0.000113  0.961319  0.0  0.262309  -7.4e-05  1.035456  0.0  0.272909  -6.9e-05  1.026839  0.0  0.305606  0.254751  -5.1e-05  1.041601  0.0
H  H11  1  0.58613826  0.43343627  0.65555355  1  0.108113  -7.8e-05  0.938525  0.0  0.123667  -0.00011  0.992357  0.0  0.126111  -8.3e-05  0.990051  0.0  0.124682  0.121664  -0.000115  0.994365  0.0
H  H12  1  0.41385752  0.56655800  0.34444688  1  0.108107  -7.7e-05  0.938531  0.0  0.123658  -0.00011  0.99236  0.0  0.126102  -8.3e-05  0.990054  0.0  0.124657  0.121655  -0.000115  0.994368  0.0
H  H13  1  0.30470920  0.56052369  0.92307616  1  0.091894  -6.6e-05  0.95798  0.0  0.103679  -6.9e-05  1.026909  0.0  0.104372  -5.2e-05  1.027459  0.0  0.096891  0.10303  -7.7e-05  1.026726  0.0
H  H14  1  0.69528870  0.43947966  0.07691846  1  0.09189  -6.6e-05  0.958057  0.0  0.103683  -6.9e-05  1.026953  0.0  0.104372  -5.2e-05  1.027507  0.0  0.096901  0.103038  -7.7e-05  1.026768  0.0
H  H15  1  0.26873841  0.48751415  0.76879062  1  0.088758  7e-06  0.911632  0.0  0.108805  -4e-06  0.963212  0.0  0.109675  1e-06  0.962664  0.0  0.101246  0.10791  1e-06  0.963932  0.0
H  H16  1  0.73125641  0.51248527  0.23120533  1  0.088765  6e-06  0.911599  0.0  0.108816  -4e-06  0.963173  0.0  0.109687  1e-06  0.96262  0.0  0.10126  0.10791  1e-06  0.963906  0.0
H  H17  1  0.32897014  0.71954401  0.64703235  1  0.093911  -0.000178  0.952735  0.0  0.107714  -1.9e-05  1.016952  0.0  0.109813  -2.5e-05  1.015445  0.0  0.091992  0.106348  -2.4e-05  1.017841  0.0
H  H18  1  0.67103399  0.28045555  0.35296255  1  0.093925  -0.000179  0.952705  0.0  0.107712  -1.9e-05  1.016938  0.0  0.109814  -2.5e-05  1.015434  0.0  0.091978  0.106347  -2.4e-05  1.017825  0.0
H  H19  1  0.19284167  0.82714197  0.49983253  1  0.120643  -0.000356  0.956753  0.0  0.13246  -0.000254  1.019758  0.0  0.135286  -0.000214  1.018229  0.0  0.101075  0.130646  -0.000181  1.020695  0.0
H  H20  1  0.80716248  0.17285759  0.50016646  1  0.120641  -0.000354  0.956774  0.0  0.132453  -0.000254  1.019797  0.0  0.13528  -0.000214  1.018268  0.0  0.101074  0.130632  -0.000181  1.020739  0.0
H  H21  1  0.54489759  0.83258759  0.72741267  1  0.076392  -5.6e-05  0.976093  0.0  0.086414  -3.1e-05  1.043625  0.0  0.088968  -2.4e-05  1.042889  0.0  0.089429  0.084582  -4.3e-05  1.04436  0.0
H  H22  1  0.45511205  0.16740429  0.27258790  1  0.076374  -5.8e-05  0.976073  0.0  0.086362  -3.1e-05  1.043638  0.0  0.088956  -2.4e-05  1.042863  0.0  0.089417  0.084532  -4.3e-05  1.044369  0.0
H  H23  1  0.25742242  0.03020242  0.34392382  1  0.092906  -4.4e-05  0.958106  0.0  0.100313  -3.8e-05  1.02423  0.0  0.10345  -3.4e-05  1.022944  0.0  0.095804  0.098081  -4.2e-05  1.025261  0.0
H  H24  1  0.74258638  0.96979721  0.65607311  1  0.092962  -4.9e-05  0.958011  0.0  0.100278  -3.7e-05  1.024244  0.0  0.103415  -3.4e-05  1.02296  0.0  0.095812  0.098054  -4.2e-05  1.025253  0.0
C  C25  1  0.18913881  0.21966476  0.89691166  1  -0.020792  -0.008152  3.658008  -0.006  -0.066082  -0.003876  3.932373  -0.003  -0.056676  -0.003282  3.945424  -0.002  0.018181  -0.072398  -0.004256  3.924176  -0.003
C  C26  1  0.81086032  0.78033862  0.10309318  1  -0.020733  -0.008151  3.658159  -0.006  -0.066044  -0.003876  3.932497  -0.003  -0.056642  -0.00328  3.945546  -0.002  0.018252  -0.072361  -0.004255  3.924295  -0.003
C  C27  1  0.23759085  0.34461593  0.94832695  1  -0.009885  0.000591  3.80238  0.001  0.012085  -0.000189  4.057442  0.0  0.004538  -4.1e-05  4.082903  0.0  -0.030152  0.01694  -0.000251  4.040227  0.0
C  C28  1  0.76240786  0.65539132  0.05167453  1  -0.009836  0.000592  3.802436  0.001  0.012254  -0.000188  4.057316  0.0  0.004705  -4.1e-05  4.082778  0.0  -0.030109  0.01711  -0.000251  4.040095  0.0
C  C29  1  0.17438112  0.36258986  0.07965822  1  -0.008834  -0.005649  3.669507  -0.003  -0.062456  -0.002431  3.938811  -0.001  -0.054527  -0.002077  3.953335  -0.001  0.019629  -0.067522  -0.002727  3.929185  -0.001
C  C30  1  0.82561355  0.63741863  0.92034113  1  -0.008897  -0.005648  3.669554  -0.003  -0.062594  -0.002431  3.93883  -0.001  -0.054666  -0.002075  3.953353  -0.001  0.019583  -0.067645  -0.002727  3.92921  -0.001
C  C31  1  0.63051877  0.22067972  0.95930518  1  -0.015049  -0.010272  3.680316  -0.007  -0.059135  -0.004352  3.955383  -0.003  -0.049287  -0.003622  3.968189  -0.002  0.014822  -0.065877  -0.004889  3.94741  -0.003
C  C32  1  0.36947714  0.77931714  0.04069709  1  -0.015201  -0.010267  3.680494  -0.007  -0.059253  -0.004351  3.955582  -0.003  -0.049407  -0.003623  3.968393  -0.002  0.014803  -0.065993  -0.004888  3.947608  -0.003
C  C33  1  0.51605857  0.34389448  0.86151311  1  -0.00953  0.001128  3.801802  0.002  0.014166  -4.1e-05  4.053284  0.0  0.006663  7.9e-05  4.079278  0.0  -0.030784  0.018927  -7.8e-05  4.036  0.0
C  C34  1  0.48394082  0.65610243  0.13848711  1  -0.009446  0.001126  3.801756  0.002  0.014145  -4.2e-05  4.053351  0.0  0.006641  7.9e-05  4.079343  0.0  -0.030799  0.018908  -7.8e-05  4.036062  0.0
C  C35  1  0.61833016  0.35746566  0.75422741  1  -0.029088  -0.007583  3.690023  -0.005  -0.083581  -0.003044  3.956994  -0.002  -0.076375  -0.002557  3.972426  -0.001  0.011179  -0.088285  -0.003468  3.946993  -0.002
C  C36  1  0.38166756  0.64253252  0.24577578  1  -0.029064  -0.007576  3.689902  -0.005  -0.083529  -0.003043  3.956874  -0.002  -0.076325  -0.002558  3.972305  -0.001  0.011206  -0.088236  -0.003468  3.946872  -0.002
C  C37  1  0.32751856  0.44296403  0.87276667  1  -0.147376  -0.000596  3.774757  -0.001  -0.196352  -0.000214  4.020522  0.0  -0.195508  -0.000204  4.034655  0.0  -0.149191  -0.196561  -0.000191  4.010961  0.0
C  C38  1  0.67248104  0.55703806  0.12723009  1  -0.147464  -0.000596  3.774882  -0.001  -0.196426  -0.000214  4.020591  0.0  -0.195574  -0.000205  4.034715  0.0  -0.149243  -0.19663  -0.000191  4.011037  0.0
C  C39  1  0.12652791  0.96170327  0.67752653  1  0.702368  -0.000692  3.817003  0.0  0.660597  0.001311  4.120884  0.002  0.693488  0.000771  4.114026  0.002  0.213313  0.637842  0.001931  4.124578  0.003
C  C40  1  0.87347824  0.03828856  0.32247507  1  0.702283  -0.000696  3.816897  0.0  0.660505  0.001312  4.1208  0.002  0.693395  0.000771  4.113938  0.002  0.213222  0.637753  0.001932  4.124494  0.003
C  C41  1  0.26284304  0.84466865  0.58784270  1  -0.321845  0.002532  3.717226  0.004  -0.366743  0.001867  3.96246  0.003  -0.372155  0.001263  3.969331  0.002  -0.170432  -0.362715  0.002575  3.957301  0.003
C  C42  1  0.73715543  0.15533342  0.41215917  1  -0.321834  0.002536  3.717125  0.004  -0.366745  0.001867  3.962345  0.003  -0.372161  0.001263  3.969221  0.002  -0.170433  -0.362711  0.002576  3.957189  0.003
C  C43  1  0.38684921  0.92165676  0.54058878  1  0.110905  0.00067  3.781093  0.001  0.129875  0.00067  4.016435  0.001  0.129916  0.000421  4.041922  0.001  -0.018852  0.12968  0.001039  3.999064  0.001
C  C44  1  0.61315041  0.07834533  0.45941105  1  0.110878  0.000636  3.781244  0.001  0.129958  0.00067  4.01639  0.001  0.129998  0.000419  4.041886  0.001  -0.018843  0.129759  0.001039  3.99902  0.001
C  C45  1  0.52465041  0.90611978  0.62713554  1  -0.138444  0.000216  3.779848  0.0  -0.154492  0.000226  4.023241  0.0  -0.157915  0.000136  4.04583  0.0  -0.104607  -0.151923  0.000342  4.007888  0.0
C  C46  1  0.47535011  0.09387714  0.37286160  1  -0.13837  0.00025  3.779968  0.0  -0.154419  0.000225  4.023342  0.0  -0.157876  0.000138  4.045918  0.0  -0.1046  -0.151849  0.000343  4.007983  0.0
C  C47  1  0.36378601  0.01674384  0.41268784  1  -0.113161  0.000282  3.759054  0.0  -0.134215  0.00027  4.010742  0.0  -0.136019  0.000159  4.03146  0.0  -0.099649  -0.132802  0.00038  3.996655  0.0
C  C48  1  0.63622652  0.98324936  0.58730139  1  -0.113202  0.000323  3.758974  0.0  -0.134206  0.000269  4.01064  0.0  -0.136007  0.000162  4.031342  0.0  -0.099675  -0.132791  0.000381  3.996559  0.0
N  N49  1  0.10067720  0.16716950  0.99008117  1  -0.143621  -0.011051  3.324525  -0.006  -0.122596  -0.007066  3.639642  -0.005  -0.142473  -0.007189  3.65665  -0.005  -0.260428  -0.109945  -0.00612  3.628539  -0.004
N  N50  1  0.89931805  0.83283771  0.00992543  1  -0.143579  -0.011052  3.324709  -0.006  -0.122538  -0.007067  3.639806  -0.005  -0.142405  -0.007191  3.656807  -0.005  -0.260434  -0.10988  -0.006121  3.628692  -0.004
N  N51  1  0.09452405  0.25387976  0.10084743  1  -0.156235  -0.003075  3.466707  -0.003  -0.096416  -0.001994  3.709518  -0.002  -0.107427  -0.00143  3.728216  -0.001  -0.281356  -0.089405  -0.00238  3.697559  -0.002
N  N52  1  0.90547129  0.74613003  0.89915489  1  -0.156281  -0.00308  3.46669  -0.003  -0.096463  -0.001994  3.709525  -0.002  -0.107478  -0.001431  3.728224  -0.001  -0.281328  -0.089452  -0.002381  3.697558  -0.002
N  N53  1  0.79053695  0.16510702  0.91417300  1  -0.148462  -0.011607  3.34492  -0.007  -0.130585  -0.00762  3.662749  -0.005  -0.150018  -0.0078  3.67852  -0.006  -0.266291  -0.118325  -0.006503  3.652609  -0.005
N  N54  1  0.20945909  0.83489243  0.08583215  1  -0.148388  -0.011613  3.344987  -0.007  -0.130566  -0.007619  3.662853  -0.005  -0.149998  -0.007798  3.678626  -0.006  -0.266302  -0.118312  -0.006503  3.652714  -0.005
N  N55  1  0.78196770  0.25030288  0.78972659  1  -0.165877  -0.003811  3.448394  -0.003  -0.103921  -0.00247  3.697606  -0.002  -0.115472  -0.001772  3.715965  -0.002  -0.275998  -0.096595  -0.00292  3.685807  -0.002
N  N56  1  0.21803001  0.74969530  0.21027558  1  -0.165956  -0.003813  3.448319  -0.003  -0.103961  -0.00247  3.697528  -0.002  -0.115512  -0.001772  3.715885  -0.002  -0.276008  -0.096631  -0.002919  3.685714  -0.002
O  O57  1  0.10210616  0.89211855  0.79206299  1  -0.653037  0.022988  2.036682  0.041  -0.612629  0.020601  2.297279  0.035  -0.641503  0.015986  2.285889  0.027  -0.319386  -0.58995  0.025972  2.303317  0.043
O  O58  1  0.89790531  0.10787466  0.20794157  1  -0.652978  0.02299  2.036766  0.041  -0.612597  0.020602  2.297378  0.035  -0.641476  0.015987  2.286002  0.027  -0.319338  -0.589916  0.025974  2.303411  0.043
O  O59  1  0.04821117  0.11890858  0.63434768  1  -0.614873  -3.8e-05  1.94708  0.001  -0.565606  0.000323  2.16234  0.001  -0.589817  6.5e-05  2.153952  0.001  -0.325169  -0.548383  0.000593  2.167628  0.001
O  O60  1  0.95178744  0.88108443  0.36565079  1  -0.614863  -3.8e-05  1.947038  0.001  -0.565585  0.000323  2.16231  0.001  -0.589794  6.5e-05  2.153921  0.001  -0.32513  -0.548369  0.000593  2.167597  0.001
