# generated using pymatgen
data_CuH7C7SIN
_symmetry_space_group_name_H-M   'P 1'
_cell_length_a   5.53972295
_cell_length_b   9.96175574
_cell_length_c   18.96381753
_cell_angle_alpha   90.00161436
_cell_angle_beta   89.99811710
_cell_angle_gamma   89.42266053
_symmetry_Int_Tables_number   1
_chemical_formula_structural   CuH7C7SIN
_chemical_formula_sum   'Cu4 H28 C28 S4 I4 N4'
_cell_volume   1046.47209840
_cell_formula_units_Z   4
loop_
 _symmetry_equiv_pos_site_id
 _symmetry_equiv_pos_as_xyz
  1  'x, y, z'
loop_
 _atom_site_type_symbol
 _atom_site_label
 _atom_site_symmetry_multiplicity
 _atom_site_fract_x
 _atom_site_fract_y
 _atom_site_fract_z
 _atom_site_occupancy
 _atom_site_pbe_bader_charge
 _atom_site_pbe_bader_spin_density
 _atom_site_pbe_cm5_charge
 _atom_site_pbe_ddec_charge
 _atom_site_pbe_ddec_spin_density
 _atom_site_pbe_ddec_sum_bond_order
 _atom_site_pbe_magmom
Cu  Cu0  1  0.76679114  0.99020095  0.00707003  1  0.389279  0  0.237387  0.18981  0  2.786924  0
Cu  Cu1  1  0.73320364  0.50977494  0.50704310  1  0.389498  0  0.237415  0.189853  0  2.787141  0
Cu  Cu2  1  0.23323766  0.00977856  0.99294232  1  0.389484  0  0.237391  0.189758  0  2.787157  0
Cu  Cu3  1  0.26683584  0.49018014  0.49294974  1  0.389113  0  0.237392  0.18984  0  2.787058  0
H  H4  1  0.70299511  0.19815563  0.73599413  1  0.046179  0  0.094596  0.09095  0  1.040025  0
H  H5  1  0.79699699  0.30188633  0.23599078  1  0.045881  0  0.094591  0.090937  0  1.040175  0
H  H6  1  0.29698284  0.80184352  0.26402086  1  0.046116  0  0.094559  0.090978  0  1.040134  0
H  H7  1  0.20299095  0.69816980  0.76400365  1  0.046002  0  0.094601  0.091058  0  1.040047  0
H  H8  1  0.05328492  0.31766160  0.69136803  1  0.103996  0  0.08603  0.096348  0  1.046529  0
H  H9  1  0.44669749  0.18237868  0.19137175  1  0.104343  0  0.086077  0.096368  0  1.046429  0
H  H10  1  0.94667294  0.68233515  0.30864275  1  0.103828  0  0.085931  0.096264  0  1.046414  0
H  H11  1  0.55330112  0.81767511  0.80860897  1  0.104805  0  0.085967  0.096224  0  1.046631  0
H  H12  1  0.32987868  0.43554850  0.77318397  1  0.049502  0  0.09403  0.09291  0  1.019078  0
H  H13  1  0.17013994  0.06446635  0.27319321  1  0.049814  0  0.09396  0.092774  0  1.019001  0
H  H14  1  0.67010608  0.56444542  0.22682100  1  0.049321  0  0.094  0.092906  0  1.01919  0
H  H15  1  0.82983530  0.93558917  0.72678171  1  0.04979  0  0.094019  0.092962  0  1.019129  0
H  H16  1  0.24827832  0.43181791  0.90310901  1  0.084388  0  0.102884  0.109642  0  0.982931  0
H  H17  1  0.25179143  0.06817654  0.40311775  1  0.084911  0  0.102878  0.109696  0  0.98269  0
H  H18  1  0.75174073  0.56815286  0.09689860  1  0.084559  0  0.10289  0.109739  0  0.983041  0
H  H19  1  0.74818026  0.93183486  0.59685927  1  0.084021  0  0.103004  0.109771  0  0.982778  0
H  H20  1  0.90502956  0.30109924  0.94977917  1  0.140592  0  0.092291  0.103597  0  1.04336  0
H  H21  1  0.59503370  0.19891765  0.44977576  1  0.140832  0  0.092348  0.103668  0  1.043584  0
H  H22  1  0.09498316  0.69888277  0.05023054  1  0.140417  0  0.092225  0.103562  0  1.04335  0
H  H23  1  0.40501243  0.80103019  0.55021075  1  0.140294  0  0.092448  0.103806  0  1.043597  0
H  H24  1  0.48752356  0.07726215  0.78053519  1  0.456386  0  0.310419  0.30082  0  0.949723  0
H  H25  1  0.01252262  0.42274786  0.28053366  1  0.45656  0  0.310507  0.300883  0  0.949916  0
H  H26  1  0.51245675  0.92274396  0.21947453  1  0.456621  0  0.310478  0.300917  0  0.949891  0
H  H27  1  0.98747020  0.57727898  0.71946868  1  0.456668  0  0.310497  0.300914  0  0.949756  0
H  H28  1  0.30207609  0.03378577  0.85126546  1  0.480578  0  0.269761  0.277231  0  1.030385  0
H  H29  1  0.19797784  0.46622027  0.35125486  1  0.480601  0  0.269686  0.27721  0  1.030512  0
H  H30  1  0.69792261  0.96620169  0.14874848  1  0.481002  0  0.269783  0.277263  0  1.030477  0
H  H31  1  0.80204479  0.53377250  0.64874483  1  0.480635  0  0.26973  0.277252  0  1.030523  0
C  C32  1  0.57530818  0.16203004  0.87566021  1  0.438334  0  0.143135  0.298962  0  4.0151  0
C  C33  1  0.92473455  0.33797149  0.37565612  1  0.437337  0  0.143229  0.298986  0  4.014579  0
C  C34  1  0.42467068  0.83795803  0.12435267  1  0.437169  0  0.143101  0.298735  0  4.015135  0
C  C35  1  0.07528563  0.66201332  0.62433673  1  0.437777  0  0.143164  0.298836  0  4.014732  0
C  C36  1  0.77879754  0.23917550  0.84723108  1  0.024293  0  -0.01742  0.012301  0  3.992199  0
C  C37  1  0.72123443  0.26084499  0.34723066  1  0.024353  0  -0.017369  0.012578  0  3.991787  0
C  C38  1  0.22118737  0.76082043  0.15277811  1  0.024969  0  -0.017344  0.012522  0  3.992127  0
C  C39  1  0.27878318  0.73915295  0.65275850  1  0.024554  0  -0.017295  0.012855  0  3.991847  0
C  C40  1  0.82273094  0.24538044  0.77409854  1  -0.011549  0  -0.0921  -0.111118  0  3.957463  0
C  C41  1  0.67726112  0.25465200  0.27409202  1  -0.011598  0  -0.09219  -0.11131  0  3.957554  0
C  C42  1  0.17723586  0.75461503  0.22591434  1  -0.011164  0  -0.09217  -0.111523  0  3.95736  0
C  C43  1  0.32272833  0.74537795  0.72589714  1  -0.010802  0  -0.092138  -0.111546  0  3.957734  0
C  C44  1  0.01994409  0.31505045  0.74802352  1  -0.15756  0  -0.103085  -0.090892  0  4.020416  0
C  C45  1  0.48005526  0.18498530  0.24803415  1  -0.158356  0  -0.103122  -0.090886  0  4.020774  0
C  C46  1  0.98003361  0.68494570  0.25198409  1  -0.158068  0  -0.102926  -0.090536  0  4.020196  0
C  C47  1  0.51993721  0.81505964  0.75195079  1  -0.158953  0  -0.103245  -0.090918  0  4.021212  0
C  C48  1  0.17357581  0.38284095  0.79413843  1  -0.049064  0  -0.095311  -0.084411  0  3.999687  0
C  C49  1  0.32645677  0.11718302  0.29414382  1  -0.048762  0  -0.095251  -0.084283  0  3.999445  0
C  C50  1  0.82641592  0.61714975  0.20587287  1  -0.048491  0  -0.095268  -0.084451  0  3.999444  0
C  C51  1  0.67354299  0.88286270  0.70583742  1  -0.048886  0  -0.095193  -0.0843  0  3.999435  0
C  C52  1  0.12873220  0.38013554  0.86668538  1  -0.048646  0  -0.091861  -0.072793  0  3.995638  0
C  C53  1  0.37130927  0.11987363  0.36669213  1  -0.049673  0  -0.091774  -0.072684  0  3.995335  0
C  C54  1  0.87127299  0.61984268  0.13331748  1  -0.049908  0  -0.091859  -0.072888  0  3.995421  0
C  C55  1  0.62868070  0.88014024  0.63328648  1  -0.048047  0  -0.091862  -0.072714  0  3.994971  0
C  C56  1  0.93523062  0.30747364  0.89308602  1  -0.061861  0  -0.082807  -0.092899  0  3.931511  0
C  C57  1  0.56480595  0.19253906  0.39308616  1  -0.061148  0  -0.082967  -0.093258  0  3.932093  0
C  C58  1  0.06477168  0.69251372  0.10692792  1  -0.061005  0  -0.082772  -0.092932  0  3.931804  0
C  C59  1  0.43520849  0.80744190  0.60690247  1  -0.062092  0  -0.083104  -0.093493  0  3.932242  0
S  S60  1  0.50831112  0.16676042  0.96337317  1  -0.153155  0  -0.200317  -0.279239  0  3.056802  0
S  S61  1  0.99172598  0.33322660  0.46336669  1  -0.152733  0  -0.200346  -0.279266  0  3.057023  0
S  S62  1  0.49169832  0.83322571  0.03664182  1  -0.152969  0  -0.200336  -0.279105  0  3.05692  0
S  S63  1  0.00829603  0.66673604  0.53662667  1  -0.153166  0  -0.200274  -0.279251  0  3.057097  0
I  I64  1  0.99044380  0.87061213  0.89969327  1  -0.459231  0  -0.204499  -0.340829  0  1.793935  0
I  I65  1  0.50952004  0.62938942  0.39969213  1  -0.459203  0  -0.204423  -0.340789  0  1.794136  0
I  I66  1  0.00956011  0.12939527  0.10030801  1  -0.459201  0  -0.2045  -0.340838  0  1.794069  0
I  I67  1  0.49048840  0.37060679  0.60031389  1  -0.459156  0  -0.204445  -0.340843  0  1.794243  0
N  N68  1  0.44296814  0.08938571  0.83205262  1  -1.272493  0  -0.543138  -0.500366  0  3.457888  0
N  N69  1  0.05708367  0.41062120  0.33204242  1  -1.272457  0  -0.543221  -0.500442  0  3.457643  0
N  N70  1  0.55703522  0.91061467  0.16796448  1  -1.272646  0  -0.543213  -0.50041  0  3.457714  0
N  N71  1  0.94291960  0.58937819  0.66795358  1  -1.272757  0  -0.543255  -0.50047  0  3.457703  0
