# generated using pymatgen
data_H22PbC26(NO2)2
_symmetry_space_group_name_H-M   'P 1'
_cell_length_a   5.30150092
_cell_length_b   10.63862691
_cell_length_c   20.21900000
_cell_angle_alpha   103.00853241
_cell_angle_beta   90.00000000
_cell_angle_gamma   104.42820780
_symmetry_Int_Tables_number   1
_chemical_formula_structural   H22PbC26(NO2)2
_chemical_formula_sum   'H44 Pb2 C52 N4 O8'
_cell_volume   1074.15394283
_cell_formula_units_Z   2
loop_
 _symmetry_equiv_pos_site_id
 _symmetry_equiv_pos_as_xyz
  1  'x, y, z'
loop_
 _atom_site_type_symbol
 _atom_site_label
 _atom_site_symmetry_multiplicity
 _atom_site_fract_x
 _atom_site_fract_y
 _atom_site_fract_z
 _atom_site_occupancy
 _atom_site_hle17_bader_spin_density
 _atom_site_hle17_ddec_charge
 _atom_site_hle17_ddec_spin_density
 _atom_site_hle17_ddec_sum_bond_order
 _atom_site_hle17_magmom
 _atom_site_hse06_10hf_bader_spin_density
 _atom_site_hse06_10hf_ddec_charge
 _atom_site_hse06_10hf_ddec_spin_density
 _atom_site_hse06_10hf_ddec_sum_bond_order
 _atom_site_hse06_10hf_magmom
 _atom_site_hse06_bader_spin_density
 _atom_site_hse06_ddec_charge
 _atom_site_hse06_ddec_spin_density
 _atom_site_hse06_ddec_sum_bond_order
 _atom_site_hse06_magmom
 _atom_site_pbe_bader_charge
 _atom_site_pbe_bader_spin_density
 _atom_site_pbe_cm5_charge
 _atom_site_pbe_ddec_charge
 _atom_site_pbe_ddec_spin_density
 _atom_site_pbe_ddec_sum_bond_order
 _atom_site_pbe_magmom
H  H0  1  0.33468235  0.30399176  0.23529222  1  0  0.098929  0  0.981702  0  0  0.104902  0  1.053568  0  0  0.108406  0  1.051594  0  0.103672  0  0.100486  0.10239  0  1.054998  0
H  H1  1  0.03054641  0.69581169  0.26468470  1  0  0.099104  0  0.980448  0  0  0.104719  0  1.052596  0  0  0.108356  0  1.050384  0  0.072275  0  0.100405  0.102075  0  1.054245  0
H  H2  1  0.66533544  0.69603223  0.76470044  1  0  0.098934  0  0.981455  0  0  0.104891  0  1.053386  0  0  0.108398  0  1.051408  0  0.103612  0  0.100414  0.102373  0  1.054824  0
H  H3  1  0.96957302  0.30420431  0.73531739  1  0  0.099085  0  0.980453  0  0  0.104807  0  1.052447  0  0  0.108459  0  1.050229  0  0.072437  0  0.100381  0.10215  0  1.054104  0
H  H4  1  0.77775843  0.29633678  0.05661862  1  0  0.081963  0  0.98396  0  0  0.094536  0  1.04587  0  0  0.096355  0  1.046763  0  0.06272  0  0.092272  0.093281  0  1.045141  0
H  H5  1  0.48250117  0.70342775  0.44315635  1  0  0.08229  0  0.981445  0  0  0.094437  0  1.044165  0  0  0.09631  0  1.04501  0  0.053967  0  0.092131  0.09312  0  1.043528  0
H  H6  1  0.22238472  0.70371914  0.94339859  1  0  0.082128  0  0.983794  0  0  0.094628  0  1.045779  0  0  0.096451  0  1.046698  0  0.063288  0  0.092285  0.093383  0  1.045033  0
H  H7  1  0.51745882  0.29655233  0.55686622  1  0  0.082325  0  0.981573  0  0  0.094472  0  1.044291  0  0  0.096366  0  1.045136  0  0.053712  0  0.092141  0.093155  0  1.043654  0
H  H8  1  0.41988239  0.11352340  0.99046175  1  0  0.101716  0  0.945296  0  0  0.11297  0  1.0022  0  0  0.116291  0  1.000643  0  0.099284  0  0.103258  0.110527  0  1.003503  0
H  H9  1  0.30806923  0.88645568  0.50941430  1  0  0.101969  0  0.944429  0  0  0.11328  0  1.001376  0  0  0.116603  0  0.999846  0  0.104536  0  0.103401  0.110809  0  1.002739  0
H  H10  1  0.58026426  0.88653950  0.00954343  1  0  0.101596  0  0.945266  0  0  0.112954  0  1.002073  0  0  0.116272  0  1.00051  0  0.09926  0  0.103268  0.110513  0  1.003367  0
H  H11  1  0.69186408  0.11353138  0.49059227  1  0  0.101942  0  0.944355  0  0  0.113197  0  1.001404  0  0  0.116531  0  0.999853  0  0.104834  0  0.103377  0.110732  0  1.002753  0
H  H12  1  0.01597178  0.02651451  0.04900364  1  0  0.092964  0  0.985251  0  0  0.103021  0  1.050774  0  0  0.105966  0  1.04895  0  0.092667  0  0.1019  0.100863  0  1.052191  0
H  H13  1  0.99139924  0.97370307  0.45100650  1  0  0.093022  0  0.985649  0  0  0.103245  0  1.050773  0  0  0.106175  0  1.048986  0  0.08339  0  0.102052  0.101065  0  1.052252  0
H  H14  1  0.98415662  0.97351946  0.95097733  1  0  0.092698  0  0.985456  0  0  0.102953  0  1.050755  0  0  0.105907  0  1.048913  0  0.092636  0  0.101767  0.100785  0  1.052202  0
H  H15  1  0.00856614  0.02628399  0.54899217  1  0  0.0928  0  0.98585  0  0  0.10308  0  1.05094  0  0  0.10601  0  1.049154  0  0.083106  0  0.101982  0.100909  0  1.052397  0
H  H16  1  0.81125580  0.52065329  0.17324228  1  0  0.102262  0  0.95544  0  0  0.124318  0  1.018943  0  0  0.124925  0  1.019937  0  0.050752  0  0.087166  0.123796  0  1.018481  0
H  H17  1  0.29101853  0.47925494  0.32662933  1  0  0.102165  0  0.957018  0  0  0.124646  0  1.019839  0  0  0.125238  0  1.020862  0  0.053613  0  0.087473  0.123882  0  1.019583  0
H  H18  1  0.18874200  0.47939864  0.82679869  1  0  0.102384  0  0.955536  0  0  0.124456  0  1.019034  0  0  0.125054  0  1.020037  0  0.050881  0  0.087239  0.123935  0  1.01857  0
H  H19  1  0.70901875  0.52074011  0.67337918  1  0  0.102376  0  0.957012  0  0  0.124769  0  1.019942  0  0  0.12538  0  1.02093  0  0.055366  0  0.087482  0.124004  0  1.019689  0
H  H20  1  0.98694305  0.40289076  0.18092973  1  0  0.105278  0  0.973161  0  0  0.124812  0  1.040494  0  0  0.125502  0  1.041729  0  0.046377  0  0.087534  0.12431  0  1.039644  0
H  H21  1  0.58437368  0.59692266  0.31880158  1  0  0.105237  0  0.972898  0  0  0.124673  0  1.040218  0  0  0.125377  0  1.041434  0  0.032127  0  0.087275  0.124119  0  1.039464  0
H  H22  1  0.01311540  0.59715418  0.81907382  1  0  0.105443  0  0.973075  0  0  0.124948  0  1.040436  0  0  0.125645  0  1.041657  0  0.046683  0  0.087524  0.124443  0  1.039595  0
H  H23  1  0.41568645  0.40308037  0.68121530  1  0  0.105299  0  0.973008  0  0  0.124712  0  1.040315  0  0  0.12541  0  1.041538  0  0.031942  0  0.087299  0.124158  0  1.039562  0
H  H24  1  0.77082283  0.44605842  0.24406411  1  0  0.106527  0  0.960655  0  0  0.130321  0  1.020055  0  0  0.131284  0  1.020482  0  0.050598  0  0.090614  0.129614  0  1.019747  0
H  H25  1  0.32472947  0.55373405  0.25577450  1  0  0.107543  0  0.961091  0  0  0.130645  0  1.021035  0  0  0.131638  0  1.021415  0  0.047471  0  0.090996  0.129899  0  1.020738  0
H  H26  1  0.22923398  0.55392665  0.75595904  1  0  0.106573  0  0.961032  0  0  0.130476  0  1.020272  0  0  0.131444  0  1.020701  0  0.051311  0  0.090646  0.129766  0  1.019964  0
H  H27  1  0.67535977  0.44628195  0.74423699  1  0  0.107424  0  0.961072  0  0  0.130562  0  1.020976  0  0  0.131548  0  1.021367  0  0.04761  0  0.091039  0.129821  0  1.020671  0
H  H28  1  0.83952249  0.33221369  0.33636563  1  0  0.084909  0  0.94863  0  0  0.092461  0  1.014667  0  0  0.095353  0  1.012063  0  0.113199  0  0.116157  0.090413  0  1.016422  0
H  H29  1  0.50784525  0.66833320  0.16349309  1  0  0.08468  0  0.947683  0  0  0.092014  0  1.013831  0  0  0.094863  0  1.011323  0  0.108808  0  0.115937  0.089846  0  1.015759  0
H  H30  1  0.16039134  0.66776838  0.66362749  1  0  0.084976  0  0.948665  0  0  0.092361  0  1.014882  0  0  0.095261  0  1.012251  0  0.113118  0  0.116101  0.090297  0  1.016673  0
H  H31  1  0.49209526  0.33167581  0.83648690  1  0  0.084609  0  0.947518  0  0  0.092049  0  1.013574  0  0  0.094902  0  1.011055  0  0.10812  0  0.115961  0.089879  0  1.015507  0
H  H32  1  0.88062119  0.52304528  0.43560581  1  0  0.100807  0  0.969553  0  0  0.110728  0  1.032097  0  0  0.11331  0  1.032625  0  0.079728  0  0.103872  0.108872  0  1.03184  0
H  H33  1  0.35811771  0.47734094  0.06431698  1  0  0.100445  0  0.970387  0  0  0.110466  0  1.032816  0  0  0.11306  0  1.033379  0  0.054351  0  0.103614  0.108623  0  1.032495  0
H  H34  1  0.11928577  0.47692681  0.56439257  1  0  0.100892  0  0.969656  0  0  0.110811  0  1.032199  0  0  0.113387  0  1.032732  0  0.079066  0  0.103908  0.108961  0  1.031921  0
H  H35  1  0.64179140  0.52265809  0.93568063  1  0  0.10029  0  0.970278  0  0  0.110262  0  1.032787  0  0  0.112857  0  1.033349  0  0.05339  0  0.103568  0.108415  0  1.032478  0
H  H36  1  0.09958643  0.33055316  0.48157972  1  0  0.096263  0  0.985943  0  0  0.104789  0  1.051842  0  0  0.107264  0  1.052501  0  0.081672  0  0.10237  0.103095  0  1.051362  0
H  H37  1  0.76886433  0.66934908  0.01832284  1  0  0.096319  0  0.986609  0  0  0.104513  0  1.05278  0  0  0.106988  0  1.05344  0  0.101167  0  0.102146  0.102792  0  1.052341  0
H  H38  1  0.90035971  0.66936903  0.51843056  1  0  0.096145  0  0.985871  0  0  0.104654  0  1.051774  0  0  0.107131  0  1.052428  0  0.081592  0  0.102259  0.102959  0  1.051296  0
H  H39  1  0.23104784  0.33064098  0.98166480  1  0  0.096503  0  0.986652  0  0  0.10472  0  1.052746  0  0  0.107204  0  1.053382  0  0.102201  0  0.102302  0.102967  0  1.052343  0
H  H40  1  0.08811832  0.15464034  0.37878923  1  0  0.089506  0  0.967736  0  0  0.09441  0  1.03591  0  0  0.097328  0  1.033694  0  0.123073  0  0.114986  0.092335  0  1.037484  0
H  H41  1  0.93345858  0.84552534  0.12101446  1  0  0.090144  0  0.966602  0  0  0.095381  0  1.034571  0  0  0.098409  0  1.032261  0  0.132761  0  0.115348  0.093189  0  1.036178  0
H  H42  1  0.91182244  0.84530880  0.62120346  1  0  0.08915  0  0.967812  0  0  0.094144  0  1.035906  0  0  0.097069  0  1.033694  0  0.123744  0  0.114842  0.09206  0  1.037492  0
H  H43  1  0.06647111  0.15448467  0.87896665  1  0  0.089921  0  0.966771  0  0  0.095217  0  1.03465  0  0  0.098243  0  1.032344  0  0.13307  0  0.115254  0.093026  0  1.036261  0
Pb  Pb44  1  0.45882512  0.99996611  0.25007334  1  0  1.210158  0  1.400084  0  0  1.011048  0  1.792434  0  0  1.071237  0  1.758076  0  1.352343  0  0.613601  0.964981  0  1.821147  0
Pb  Pb45  1  0.54121293  0.00002295  0.74991073  1  0  1.210041  0  1.400139  0  0  1.010956  0  1.792515  0  0  1.071148  0  1.758159  0  1.352393  0  0.613585  0.964873  0  1.821221  0
C  C46  1  0.15257199  0.16095213  0.14477196  1  0  -0.079403  0  3.82382  0  0  -0.05058  0  4.049839  0  0  -0.059283  0  4.075339  0  -0.056664  0  -0.023029  -0.044955  0  4.032306  0
C  C47  1  0.99237434  0.83906387  0.35522271  1  0  -0.08139  0  3.827272  0  0  -0.052162  0  4.052633  0  0  -0.060942  0  4.07827  0  -0.059949  0  -0.023099  -0.046663  0  4.0354  0
C  C48  1  0.84750466  0.83906886  0.85521242  1  0  -0.079873  0  3.824697  0  0  -0.051108  0  4.05081  0  0  -0.059813  0  4.076306  0  -0.057209  0  -0.023374  -0.045487  0  4.033289  0
C  C49  1  0.00766315  0.16093916  0.64477883  1  0  -0.081347  0  3.827282  0  0  -0.052092  0  4.052604  0  0  -0.060881  0  4.078257  0  -0.061096  0  -0.023069  -0.046587  0  4.035367  0
C  C50  1  0.35518033  0.26490157  0.18149728  1  0  -0.158525  0  3.734144  0  0  -0.182495  0  3.968977  0  0  -0.184491  0  3.990252  0  -0.045614  0  -0.090606  -0.18076  0  3.954455  0
C  C51  1  0.09066608  0.73500167  0.31845189  1  0  -0.158824  0  3.735778  0  0  -0.181931  0  3.970356  0  0  -0.18398  0  3.991633  0  -0.052867  0  -0.090767  -0.180146  0  3.955929  0
C  C52  1  0.64486120  0.73512840  0.81850449  1  0  -0.158493  0  3.733819  0  0  -0.182525  0  3.968517  0  0  -0.184526  0  3.989795  0  -0.04388  0  -0.09054  -0.180798  0  3.954013  0
C  C53  1  0.90940248  0.26499937  0.68155140  1  0  -0.158603  0  3.735344  0  0  -0.181782  0  3.96987  0  0  -0.183841  0  3.991158  0  -0.052881  0  -0.090625  -0.179989  0  3.955436  0
C  C54  1  0.58054305  0.31613933  0.15020789  1  0  0.139445  0  3.757131  0  0  0.170037  0  3.987543  0  0  0.169836  0  4.011737  0  -0.029677  0  -0.010904  0.169961  0  3.971157  0
C  C55  1  0.26499734  0.68373297  0.34964859  1  0  0.140637  0  3.756396  0  0  0.170203  0  3.987772  0  0  0.170001  0  4.012003  0  0.003389  0  -0.010491  0.170006  0  3.971292  0
C  C56  1  0.41948328  0.68388665  0.84980577  1  0  0.139297  0  3.756619  0  0  0.170198  0  3.986643  0  0  0.169997  0  4.010843  0  -0.030515  0  -0.010713  0.170118  0  3.970274  0
C  C57  1  0.73503737  0.31627205  0.65035616  1  0  0.140339  0  3.756275  0  0  0.169988  0  3.987593  0  0  0.169782  0  4.011833  0  0.003676  0  -0.010573  0.169793  0  3.971111  0
C  C58  1  0.60007134  0.26009164  0.08114225  1  0  -0.112722  0  3.710241  0  0  -0.136233  0  3.955672  0  0  -0.137275  0  3.975441  0  -0.037027  0  -0.092194  -0.135372  0  3.942275  0
C  C59  1  0.34104149  0.73977967  0.41868939  1  0  -0.113644  0  3.707747  0  0  -0.136706  0  3.953956  0  0  -0.137806  0  3.97368  0  -0.035826  0  -0.092173  -0.135655  0  3.940345  0
C  C60  1  0.39999621  0.73994133  0.91886977  1  0  -0.112839  0  3.709881  0  0  -0.136402  0  3.95531  0  0  -0.137468  0  3.975043  0  -0.038518  0  -0.092309  -0.135546  0  3.941927  0
C  C61  1  0.65893276  0.26022137  0.58132528  1  0  -0.113522  0  3.707792  0  0  -0.136585  0  3.953902  0  0  -0.137717  0  3.97365  0  -0.035558  0  -0.09216  -0.135538  0  3.9403  0
C  C62  1  0.39970320  0.15665014  0.04396371  1  0  -0.068266  0  3.768821  0  0  -0.078183  0  4.022215  0  0  -0.080115  0  4.041072  0  -0.064433  0  -0.091438  -0.076797  0  4.009319  0
C  C63  1  0.24451065  0.84332295  0.45592597  1  0  -0.068168  0  3.765143  0  0  -0.07818  0  4.01865  0  0  -0.080131  0  4.037506  0  -0.037341  0  -0.091625  -0.076798  0  4.005818  0
C  C64  1  0.60040585  0.84338283  0.95603297  1  0  -0.068093  0  3.76849  0  0  -0.078068  0  4.021881  0  0  -0.079984  0  4.040725  0  -0.062209  0  -0.091345  -0.076681  0  4.008992  0
C  C65  1  0.75546776  0.15667508  0.54408636  1  0  -0.068282  0  3.765162  0  0  -0.078293  0  4.018744  0  0  -0.08024  0  4.037605  0  -0.037183  0  -0.091651  -0.076913  0  4.005917  0
C  C66  1  0.17582204  0.10734932  0.07589054  1  0  -0.078388  0  3.743652  0  0  -0.107522  0  3.99427  0  0  -0.107527  0  4.014633  0  -0.109469  0  -0.088724  -0.107248  0  3.980184  0
C  C67  1  0.06991705  0.89273154  0.42406779  1  0  -0.07735  0  3.74253  0  0  -0.106547  0  3.992877  0  0  -0.106535  0  4.013236  0  -0.096444  0  -0.088667  -0.106367  0  3.979267  0
C  C68  1  0.82428352  0.89267666  0.92409344  1  0  -0.077998  0  3.743584  0  0  -0.10724  0  3.994072  0  0  -0.107247  0  4.014432  0  -0.110498  0  -0.088473  -0.106968  0  3.979979  0
C  C69  1  0.93006491  0.10725851  0.57593963  1  0  -0.077092  0  3.742594  0  0  -0.106318  0  3.992849  0  0  -0.106302  0  4.013205  0  -0.096633  0  -0.088558  -0.106141  0  3.979244  0
C  C70  1  0.91242107  0.10611590  0.17883017  1  0  0.59782  0  3.968541  0  0  0.552208  0  4.25061  0  0  0.585689  0  4.247866  0  1.531764  0  0.198609  0.529913  0  4.250763  0
C  C71  1  0.80679564  0.89395099  0.32128231  1  0  0.599126  0  3.965821  0  0  0.553452  0  4.24803  0  0  0.586927  0  4.245227  0  1.524968  0  0.19815  0.531175  0  4.248089  0
C  C72  1  0.08760860  0.89389411  0.82114945  1  0  0.597873  0  3.969067  0  0  0.552292  0  4.251044  0  0  0.585773  0  4.248299  0  1.531838  0  0.1985  0.530004  0  4.251209  0
C  C73  1  0.19321978  0.10603807  0.67871462  1  0  0.598972  0  3.96617  0  0  0.553319  0  4.248359  0  0  0.586797  0  4.245554  0  1.52574  0  0.198021  0.531038  0  4.248427  0
C  C74  1  0.79826972  0.42718093  0.18935091  1  0  -0.331328  0  3.714297  0  0  -0.415176  0  3.948004  0  0  -0.416965  0  3.958202  0  -0.089295  0  -0.243127  -0.413611  0  3.941018  0
C  C75  1  0.37139926  0.57266044  0.31045640  1  0  -0.332678  0  3.715801  0  0  -0.415677  0  3.949153  0  0  -0.417495  0  3.959349  0  -0.084499  0  -0.243691  -0.413921  0  3.942264  0
C  C76  1  0.20175501  0.57283807  0.81066291  1  0  -0.33158  0  3.714587  0  0  -0.415679  0  3.948132  0  0  -0.417469  0  3.958335  0  -0.090494  0  -0.243278  -0.414108  0  3.941152  0
C  C77  1  0.62866141  0.42736255  0.68955146  1  0  -0.332788  0  3.716024  0  0  -0.415747  0  3.949338  0  0  -0.417567  0  3.959529  0  -0.086014  0  -0.243776  -0.413995  0  3.942455  0
C  C78  1  0.67931504  0.33724616  0.36997567  1  0  0.1251  0  3.720856  0  0  0.09688  0  3.975332  0  0  0.103473  0  3.992818  0  0.477962  0  0.048887  0.092651  0  3.96297  0
C  C79  1  0.34245500  0.66317001  0.12989329  1  0  0.126776  0  3.717519  0  0  0.098993  0  3.971666  0  0  0.105589  0  3.989132  0  0.487968  0  0.049884  0.094754  0  3.959547  0
C  C80  1  0.32060652  0.66272494  0.63002506  1  0  0.125415  0  3.720627  0  0  0.097316  0  3.97512  0  0  0.103918  0  3.992612  0  0.476973  0  0.049235  0.093077  0  3.962766  0
C  C81  1  0.65747209  0.33683102  0.87009466  1  0  0.126935  0  3.717056  0  0  0.099028  0  3.971276  0  0  0.105627  0  3.988739  0  0.487783  0  0.049984  0.09479  0  3.959158  0
C  C82  1  0.70093361  0.44334310  0.42629853  1  0  -0.160184  0  3.699546  0  0  -0.176617  0  3.946724  0  0  -0.18383  0  3.967906  0  -0.03699  0  -0.083505  -0.171852  0  3.932341  0
C  C83  1  0.25799367  0.55696330  0.07360640  1  0  -0.16174  0  3.701482  0  0  -0.177841  0  3.948737  0  0  -0.185089  0  3.969844  0  0.010582  0  -0.084031  -0.173076  0  3.934451  0
C  C84  1  0.29897369  0.55660704  0.57370071  1  0  -0.16049  0  3.699347  0  0  -0.177001  0  3.946375  0  0  -0.184214  0  3.967553  0  -0.036429  0  -0.083747  -0.172232  0  3.931997  0
C  C85  1  0.74193271  0.44302876  0.92639038  1  0  -0.161268  0  3.701185  0  0  -0.177229  0  3.948364  0  0  -0.184476  0  3.969483  0  0.011709  0  -0.08373  -0.17247  0  3.934075  0
C  C86  1  0.49273435  0.44548262  0.46928995  1  0  0.078271  0  3.766567  0  0  0.090055  0  3.99694  0  0  0.093625  0  4.017961  0  -0.015516  0  0.006772  0.087909  0  3.982464  0
C  C87  1  0.04731319  0.55457430  0.03067000  1  0  0.079685  0  3.764024  0  0  0.090699  0  3.99635  0  0  0.094274  0  4.017331  0  -0.003074  0  0.007047  0.08845  0  3.982093  0
C  C88  1  0.50719459  0.55446552  0.53071350  1  0  0.077979  0  3.76669  0  0  0.090154  0  3.996658  0  0  0.09373  0  4.017664  0  -0.049553  0  0.006799  0.088007  0  3.982186  0
C  C89  1  0.95259144  0.44541576  0.96932506  1  0  0.079343  0  3.764136  0  0  0.090276  0  3.996509  0  0  0.093843  0  4.017497  0  0.030179  0  0.006784  0.088042  0  3.982238  0
C  C90  1  0.26980887  0.33820914  0.45118474  1  0  -0.163434  0  3.708864  0  0  -0.179218  0  3.953127  0  0  -0.186571  0  3.974309  0  -0.052113  0  -0.084263  -0.174421  0  3.938959  0
C  C91  1  0.93164454  0.66185676  0.04870457  1  0  -0.163771  0  3.706855  0  0  -0.178701  0  3.951543  0  0  -0.186038  0  3.972759  0  -0.179471  0  -0.083952  -0.174044  0  3.9374  0
C  C92  1  0.73013306  0.66173102  0.54882519  1  0  -0.163327  0  3.708677  0  0  -0.179095  0  3.95273  0  0  -0.186442  0  3.973899  0  -0.051188  0  -0.084057  -0.174296  0  3.938557  0
C  C93  1  0.06827052  0.33813529  0.95128678  1  0  -0.163801  0  3.70691  0  0  -0.178725  0  3.95154  0  0  -0.186061  0  3.972758  0  -0.179841  0  -0.084014  -0.174048  0  3.937412  0
C  C94  1  0.26319413  0.23704388  0.39338653  1  0  0.126883  0  3.708044  0  0  0.100188  0  3.96125  0  0  0.106671  0  3.978552  0  0.499229  0  0.049583  0.095702  0  3.949812  0
C  C95  1  0.02621957  0.76314676  0.10644979  1  0  0.126744  0  3.706456  0  0  0.099473  0  3.959939  0  0  0.105826  0  3.97725  0  0.520167  0  0.049407  0.095292  0  3.948101  0
C  C96  1  0.73674690  0.76289828  0.60661028  1  0  0.127215  0  3.707996  0  0  0.100379  0  3.961258  0  0  0.106845  0  3.978572  0  0.498711  0  0.049637  0.095897  0  3.949823  0
C  C97  1  0.97371706  0.23685826  0.89354161  1  0  0.126544  0  3.706615  0  0  0.099286  0  3.959955  0  0  0.105632  0  3.977276  0  0.517681  0  0.049427  0.095109  0  3.948102  0
N  N98  1  0.46479389  0.23533545  0.35320941  1  0  -0.32953  0  3.152533  0  0  -0.265769  0  3.410116  0  0  -0.282682  0  3.42926  0  -1.2101  0  -0.298093  -0.253571  0  3.396807  0
N  N99  1  0.22970237  0.76503082  0.14662446  1  0  -0.330614  0  3.150895  0  0  -0.266712  0  3.408515  0  0  -0.283653  0  3.427715  0  -1.205733  0  -0.298676  -0.25473  0  3.395005  0
N  N100  1  0.53514658  0.76462068  0.64678757  1  0  -0.329699  0  3.152552  0  0  -0.265909  0  3.410083  0  0  -0.282821  0  3.429231  0  -1.209335  0  -0.298252  -0.253716  0  3.396782  0
N  N101  1  0.77022911  0.23497521  0.85336013  1  0  -0.330477  0  3.150488  0  0  -0.266631  0  3.408204  0  0  -0.283576  0  3.427414  0  -1.20449  0  -0.298852  -0.254647  0  3.394686  0
O  O102  1  0.73404863  0.00987234  0.14426883  1  0  -0.621868  0  1.95322  0  0  -0.558329  0  2.18065  0  0  -0.586746  0  2.176463  0  -1.167061  0  -0.303134  -0.538124  0  2.182611  0
O  O103  1  0.72481374  0.99016861  0.35591922  1  0  -0.622487  0  1.951651  0  0  -0.558942  0  2.179095  0  0  -0.587296  0  2.174826  0  -1.168974  0  -0.302946  -0.538814  0  2.181117  0
O  O104  1  0.26599707  0.99012071  0.85570928  1  0  -0.621758  0  1.952912  0  0  -0.558263  0  2.180336  0  0  -0.586675  0  2.176154  0  -1.166587  0  -0.303037  -0.538071  0  2.182297  0
O  O105  1  0.27519086  0.00982144  0.64407931  1  0  -0.622445  0  1.951878  0  0  -0.558932  0  2.179339  0  0  -0.587286  0  2.175071  0  -1.169332  0  -0.302906  -0.538806  0  2.181363  0
O  O106  1  0.89647054  0.15671899  0.24209640  1  0  -0.630049  0  1.947506  0  0  -0.56237  0  2.180756  0  0  -0.591727  0  2.176304  0  -1.157893  0  -0.302166  -0.541298  0  2.182583  0
O  O107  1  0.73987984  0.84337584  0.25802285  1  0  -0.6301  0  1.947063  0  0  -0.562557  0  2.180356  0  0  -0.591904  0  2.17589  0  -1.160025  0  -0.301986  -0.541414  0  2.182276  0
O  O108  1  0.10350337  0.84330399  0.75788377  1  0  -0.629972  0  1.948017  0  0  -0.562284  0  2.181207  0  0  -0.591651  0  2.176766  0  -1.158527  0  -0.302067  -0.541127  0  2.182848  0
O  O109  1  0.26019471  0.15663716  0.74196851  1  0  -0.629931  0  1.946878  0  0  -0.562487  0  2.180264  0  0  -0.59183  0  2.175791  0  -1.160216  0  -0.30195  -0.541347  0  2.182191  0
