# generated using pymatgen
data_CuH10(C7N5)2
_symmetry_space_group_name_H-M   'P 1'
_cell_length_a   8.92231070
_cell_length_b   9.21828711
_cell_length_c   9.92650472
_cell_angle_alpha   80.37308697
_cell_angle_beta   68.19126128
_cell_angle_gamma   70.38252730
_symmetry_Int_Tables_number   1
_chemical_formula_structural   CuH10(C7N5)2
_chemical_formula_sum   'Cu2 H20 C28 N20'
_cell_volume   713.16403440
_cell_formula_units_Z   2
loop_
 _symmetry_equiv_pos_site_id
 _symmetry_equiv_pos_as_xyz
  1  'x, y, z'
loop_
 _atom_site_type_symbol
 _atom_site_label
 _atom_site_symmetry_multiplicity
 _atom_site_fract_x
 _atom_site_fract_y
 _atom_site_fract_z
 _atom_site_occupancy
 _atom_site_hle17_ddec_charge
 _atom_site_hle17_ddec_spin_density
 _atom_site_hle17_ddec_sum_bond_order
 _atom_site_hle17_magmom
 _atom_site_hse06_10hf_ddec_charge
 _atom_site_hse06_10hf_ddec_spin_density
 _atom_site_hse06_10hf_ddec_sum_bond_order
 _atom_site_hse06_10hf_magmom
 _atom_site_hse06_ddec_charge
 _atom_site_hse06_ddec_spin_density
 _atom_site_hse06_ddec_sum_bond_order
 _atom_site_hse06_magmom
 _atom_site_pbe_cm5_charge
 _atom_site_pbe_ddec_charge
 _atom_site_pbe_ddec_spin_density
 _atom_site_pbe_ddec_sum_bond_order
 _atom_site_pbe_magmom
Cu  Cu0  1  0.17323287  0.38652859  0.07348509  1  0.703758  -0.568351  2.021053  -0.38  0.687068  -0.70617  2.451569  -0.528  0.782949  -0.799012  2.373975  -0.629  0.747143  0.640167  -0.644648  2.496364  -0.467
Cu  Cu1  1  0.82676871  0.61346943  0.92651270  1  0.703773  -0.56834  2.021034  -0.38  0.687069  -0.70617  2.45155  -0.528  0.782943  -0.799014  2.373964  -0.629  0.747138  0.640176  -0.644665  2.49632  -0.467
H  H2  1  0.38518146  0.07859862  0.94252066  1  0.081192  -0.000317  0.986185  -0.001  0.083659  -0.000367  1.063993  -0.002  0.086904  -2e-05  1.061076  -0.001  0.114556  0.082396  -0.000651  1.064034  -0.002
H  H3  1  0.61482055  0.92140168  0.05747458  1  0.081221  -0.000319  0.98614  -0.001  0.0837  -0.000367  1.063938  -0.002  0.086984  -2e-05  1.060982  -0.001  0.114572  0.082438  -0.000651  1.063976  -0.002
H  H4  1  0.64674888  0.98069094  0.73001548  1  0.110876  -0.000127  0.955494  0.0  0.121102  -0.000298  1.013407  0.0  0.123444  -0.000247  1.014553  0.0  0.109413  0.118389  -0.000321  1.014408  0.0
H  H5  1  0.35325683  0.01931286  0.26997993  1  0.110939  -0.000125  0.955497  0.0  0.121158  -0.000298  1.013416  0.0  0.1235  -0.000247  1.014562  0.0  0.109437  0.118456  -0.000321  1.014382  0.0
H  H6  1  0.79788913  0.16978575  0.57502472  1  0.101974  -0.000613  0.958505  0.0  0.10993  -0.00042  1.02567  0.0  0.11382  -0.000334  1.021807  0.0  0.108006  0.107166  -0.000518  1.028267  0.0
H  H7  1  0.20211341  0.83022038  0.42497339  1  0.101953  -0.000614  0.958495  0.0  0.109918  -0.00042  1.025649  0.0  0.113808  -0.000334  1.021787  0.0  0.108024  0.107148  -0.000518  1.028252  0.0
H  H8  1  0.68555735  0.44256742  0.64328792  1  0.110551  -0.000366  0.985577  -0.001  0.1203  -0.000564  1.044922  -0.001  0.123236  -0.000437  1.044728  -0.001  0.108877  0.117952  -0.000645  1.04606  -0.001
H  H9  1  0.31444477  0.55743642  0.35671274  1  0.110551  -0.000365  0.985511  -0.001  0.120274  -0.000564  1.044896  -0.001  0.12321  -0.000437  1.044701  -0.001  0.108871  0.117932  -0.000645  1.046031  -0.001
H  H10  1  0.03525504  0.71970858  0.13773266  1  0.09793  -0.00028  0.965347  -0.002  0.107529  -0.000355  1.029053  -0.002  0.111372  -8e-06  1.026007  -0.001  0.12301  0.104822  -0.000649  1.031189  -0.002
H  H11  1  0.96474415  0.28028949  0.86226996  1  0.097939  -0.000279  0.965403  -0.002  0.107561  -0.000355  1.029059  -0.002  0.111406  -8e-06  1.02601  -0.001  0.122997  0.104848  -0.000649  1.031199  -0.002
H  H12  1  0.13139341  0.96060920  0.02899427  1  0.082158  -0.001287  0.976716  0.0  0.091515  -0.001057  1.040563  0.0  0.094744  -0.000727  1.03951  0.0  0.117667  0.088811  -0.000908  1.042213  -0.001
H  H13  1  0.86860217  0.03938888  0.97101060  1  0.082143  -0.001288  0.97669  0.0  0.091495  -0.001057  1.040548  0.0  0.094715  -0.000727  1.039516  0.0  0.11766  0.088791  -0.000907  1.042197  -0.001
H  H14  1  0.42606896  0.81927037  0.56077497  1  0.117004  0.00012  0.951892  0.0  0.125886  4.4e-05  1.01564  0.0  0.129285  3.8e-05  1.014524  0.0  0.109061  0.123657  4.8e-05  1.016268  0.0
H  H15  1  0.57392632  0.18073234  0.43923124  1  0.117011  0.000119  0.951903  0.0  0.125932  4.4e-05  1.015575  0.0  0.129334  3.8e-05  1.01446  0.0  0.109074  0.123701  4.8e-05  1.016204  0.0
H  H16  1  0.66677985  0.87043980  0.34344844  1  0.093752  -1.2e-05  0.947487  0.0  0.104294  2e-06  1.007714  0.0  0.106675  8e-06  1.006299  0.0  0.105809  0.102762  -1.8e-05  1.008248  0.0
H  H17  1  0.33321452  0.12955825  0.65655484  1  0.093759  -1.2e-05  0.947421  0.0  0.104268  2e-06  1.007689  0.0  0.106647  8e-06  1.006277  0.0  0.105799  0.102738  -1.8e-05  1.008222  0.0
H  H18  1  0.95777725  0.78232953  0.36279829  1  0.098101  -0.000353  0.968036  0.0  0.10787  -0.0003  1.031456  0.0  0.110793  -0.000249  1.030289  0.0  0.103918  0.105741  -0.000488  1.032286  0.0
H  H19  1  0.04222063  0.21766498  0.63719833  1  0.098094  -0.000354  0.968062  0.0  0.107868  -0.0003  1.031473  0.0  0.110791  -0.000249  1.030306  0.0  0.103925  0.105745  -0.000488  1.032291  0.0
H  H20  1  0.99723265  0.64404206  0.58923438  1  0.062594  0.000341  0.988895  0.0  0.071583  0.000166  1.054402  0.0  0.07381  0.000173  1.053861  0.0  0.11148  0.070191  0.000142  1.054452  0.0
H  H21  1  0.00276606  0.35595363  0.41076277  1  0.06256  0.000341  0.988874  0.0  0.071534  0.000166  1.0544  0.0  0.073761  0.000173  1.053862  0.0  0.11146  0.070142  0.000142  1.054451  0.0
C  C22  1  0.45884453  0.15394019  0.87529188  1  0.130866  0.006378  3.689622  0.005  0.102857  0.002737  3.943385  0.002  0.11178  0.004463  3.958926  0.003  0.048354  0.097827  0.001563  3.930777  0.001
C  C23  1  0.54115553  0.84606245  0.12470565  1  0.130915  0.006413  3.68953  0.005  0.10288  0.002736  3.943304  0.002  0.111775  0.004463  3.958824  0.003  0.048341  0.09785  0.001563  3.930697  0.001
C  C24  1  0.60355338  0.10115478  0.75603474  1  -0.101674  -0.005455  3.695353  -0.006  -0.113063  -0.003275  3.93942  -0.004  -0.118649  -0.002934  3.95791  -0.004  -0.077457  -0.108813  -0.003488  3.926703  -0.004
C  C25  1  0.39644872  0.89884904  0.24396391  1  -0.101858  -0.005486  3.695379  -0.006  -0.113259  -0.003274  3.939504  -0.004  -0.11885  -0.002934  3.958006  -0.004  -0.077567  -0.109005  -0.003488  3.926784  -0.004
C  C26  1  0.68733191  0.20589410  0.67184228  1  -0.003212  0.006058  3.697543  0.004  -0.017625  0.002824  3.939197  0.002  -0.012209  0.003514  3.952849  0.002  -0.061077  -0.021139  0.002235  3.929725  0.001
C  C27  1  0.31267222  0.79411088  0.32815549  1  -0.002977  0.006097  3.697523  0.004  -0.017396  0.002824  3.939153  0.002  -0.011977  0.003515  3.952799  0.002  -0.060942  -0.020903  0.002235  3.92969  0.001
C  C28  1  0.62472630  0.35900742  0.71057789  1  -0.117214  -0.004045  3.675571  -0.004  -0.135712  -0.002381  3.917486  -0.002  -0.141144  -0.002211  3.935631  -0.002  -0.073138  -0.132157  -0.002358  3.905776  -0.002
C  C29  1  0.37527384  0.64099870  0.28942105  1  -0.117407  -0.004078  3.675633  -0.004  -0.135873  -0.00238  3.91756  -0.002  -0.141305  -0.002212  3.935703  -0.002  -0.07324  -0.132321  -0.002358  3.905856  -0.002
C  C30  1  0.47931760  0.40460558  0.83204214  1  0.172886  0.002462  3.738848  0.001  0.16969  -0.000149  3.98371  -0.001  0.176397  0.000961  4.005811  0.0  0.112764  0.165889  -0.001193  3.968816  -0.002
C  C31  1  0.52068284  0.59539591  0.16795646  1  0.172968  0.002498  3.73891  0.002  0.169765  -0.000151  3.983724  -0.001  0.176476  0.000963  4.005819  0.0  0.11279  0.165964  -0.001193  3.968843  -0.002
C  C32  1  0.39339586  0.56399858  0.88144445  1  0.115676  0.003875  3.669507  0.002  0.103629  0.000629  3.919213  0.0  0.109769  0.001785  3.937726  0.001  0.131037  0.099478  -0.000189  3.907265  -0.001
C  C33  1  0.60660416  0.43600063  0.11855670  1  0.115635  0.00384  3.669637  0.002  0.10361  0.000629  3.919361  0.0  0.109755  0.001781  3.937872  0.001  0.131009  0.099448  -0.000189  3.907414  -0.001
C  C34  1  0.15312314  0.71670011  0.04865332  1  0.091299  0.007969  3.677032  0.006  0.061549  0.003722  3.927558  0.003  0.0692  0.005315  3.940557  0.004  0.054386  0.056767  0.002338  3.919405  0.002
C  C35  1  0.84688005  0.28329680  0.95134713  1  0.091215  0.007939  3.67707  0.006  0.061497  0.003726  3.927521  0.003  0.069154  0.005311  3.94052  0.004  0.054401  0.056716  0.002338  3.919356  0.002
C  C36  1  0.20433573  0.84653465  0.98720774  1  0.082891  -0.005002  3.701111  -0.005  0.06093  -0.002726  3.954912  -0.003  0.063831  -0.002636  3.966155  -0.003  0.051795  0.059302  -0.003328  3.947296  -0.004
C  C37  1  0.79566069  0.15346460  0.01279865  1  0.082864  -0.004975  3.701159  -0.005  0.060876  -0.002728  3.954955  -0.003  0.063775  -0.002632  3.966194  -0.003  0.051743  0.059248  -0.003328  3.947331  -0.004
C  C38  1  0.44125436  0.69861178  0.81959217  1  0.129053  -0.003787  3.676906  -0.004  0.124133  -0.002009  3.929911  -0.002  0.126102  -0.002064  3.946228  -0.002  0.140006  0.122462  -0.002178  3.919431  -0.002
C  C39  1  0.55874452  0.30139092  0.18041080  1  0.12903  -0.003759  3.677107  -0.004  0.123995  -0.002013  3.930189  -0.002  0.125991  -0.002059  3.946522  -0.002  0.13998  0.122334  -0.002178  3.919702  -0.002
C  C40  1  0.58860335  0.70952174  0.68704767  1  0.183625  -0.000101  3.771685  0.0  0.18453  -0.000363  4.020233  -0.001  0.190909  -0.000152  4.039666  0.0  0.121133  0.179603  -0.000806  4.010741  -0.001
C  C41  1  0.41139433  0.29048096  0.31295571  1  0.183632  -0.000112  3.771675  0.0  0.184665  -0.000362  4.020094  -0.001  0.190951  -0.000153  4.039664  0.0  0.121161  0.17973  -0.000806  4.010604  -0.001
C  C42  1  0.55519578  0.78357444  0.56164895  1  -0.139781  -0.000649  3.685466  0.0  -0.159169  -0.000393  3.929196  0.0  -0.165081  -0.000351  3.948757  0.0  -0.077334  -0.155476  -0.000524  3.916961  0.0
C  C43  1  0.44480145  0.21642595  0.43835497  1  -0.139784  -0.000641  3.68533  0.0  -0.159223  -0.000394  3.929019  0.0  -0.165112  -0.00035  3.948613  0.0  -0.077334  -0.15553  -0.000524  3.916783  0.0
C  C44  1  0.68861278  0.81036976  0.44193794  1  0.005219  0.00021  3.714516  0.0  -0.008623  5e-06  3.954062  0.0  -0.004792  0.000115  3.971554  0.0  -0.064134  -0.010385  7.5e-05  3.940989  0.0
C  C45  1  0.31138036  0.18962826  0.55806374  1  0.005228  0.000201  3.714437  0.0  -0.008588  5e-06  3.953987  0.0  -0.004758  0.000113  3.971478  0.0  -0.064127  -0.010351  7.4e-05  3.940915  0.0
C  C46  1  0.85014733  0.76045922  0.45163482  1  -0.108294  -0.000602  3.729862  -0.001  -0.118532  -0.000365  3.971339  0.0  -0.123078  -0.000307  3.989742  0.0  -0.083863  -0.115211  -0.000584  3.958157  -0.001
C  C47  1  0.14985139  0.23953647  0.54836333  1  -0.108362  -0.000593  3.730051  -0.001  -0.118595  -0.000366  3.971507  0.0  -0.12314  -0.000307  3.989907  0.0  -0.083899  -0.115283  -0.000584  3.958321  -0.001
C  C48  1  0.87205418  0.68476366  0.57971279  1  0.118632  0.000764  3.733104  0.0  0.095883  0.000448  3.987412  0.0  0.101827  0.00047  4.005732  0.0  0.036043  0.092242  0.000201  3.975362  0.0
C  C49  1  0.12794416  0.31523321  0.42028630  1  0.118726  0.000751  3.733022  0.0  0.095984  0.000449  3.98734  0.0  0.101932  0.000469  4.005648  0.0  0.036071  0.092345  0.000201  3.975289  0.0
N  N50  1  0.39874146  0.30085584  0.91237987  1  -0.32311  -0.046106  3.305126  -0.054  -0.269237  -0.046759  3.585632  -0.06  -0.296264  -0.04173  3.60467  -0.058  -0.338586  -0.254304  -0.048874  3.574212  -0.059
N  N51  1  0.60126056  0.69914449  0.08761738  1  -0.323182  -0.046129  3.305139  -0.054  -0.269284  -0.046759  3.585647  -0.06  -0.296315  -0.041731  3.604695  -0.058  -0.338568  -0.254352  -0.048876  3.574227  -0.059
N  N52  1  0.24790760  0.57851361  0.99627228  1  -0.28122  -0.043424  3.340507  -0.051  -0.231115  -0.044373  3.627996  -0.057  -0.254227  -0.040158  3.644532  -0.055  -0.328761  -0.218146  -0.047265  3.618765  -0.058
N  N53  1  0.75209122  0.42148562  0.00373028  1  -0.281135  -0.043406  3.340483  -0.051  -0.231044  -0.044373  3.62795  -0.057  -0.254168  -0.040158  3.6445  -0.055  -0.328738  -0.218075  -0.04727  3.618705  -0.058
N  N54  1  0.34630044  0.83729383  0.87348111  1  -0.272358  0.006226  3.045256  0.005  -0.242932  0.003659  3.312189  0.003  -0.247174  0.004107  3.323665  0.003  -0.289704  -0.240424  0.002723  3.303564  0.002
N  N55  1  0.65369644  0.16270775  0.12652575  1  -0.272263  0.006196  3.045432  0.005  -0.242806  0.003669  3.312374  0.003  -0.247045  0.0041  3.323846  0.003  -0.289649  -0.240308  0.002724  3.303746  0.002
N  N56  1  0.74425877  0.65992285  0.69747481  1  -0.366017  0.001322  3.143089  0.0  -0.337504  0.00139  3.431251  0.0  -0.355586  0.001746  3.447079  0.0  -0.322919  -0.327546  0.000888  3.424353  0.0
N  N57  1  0.25574086  0.34007750  0.30252527  1  -0.366038  0.001332  3.142988  0.0  -0.337562  0.001389  3.431111  0.0  -0.355618  0.001747  3.446974  0.0  -0.322935  -0.327607  0.000889  3.424226  0.0
N  N58  1  0.12469837  0.18828523  0.11142290  1  -0.505675  -0.076865  2.743281  -0.091  -0.540293  -0.040507  3.093315  -0.054  -0.58593  -0.020764  3.108483  -0.037  -0.318393  -0.514682  -0.051891  3.08557  -0.063
N  N59  1  0.87530721  0.81171163  0.88857271  1  -0.505594  -0.076854  2.743386  -0.091  -0.540218  -0.040508  3.093422  -0.054  -0.585854  -0.02076  3.108596  -0.037  -0.318358  -0.514614  -0.051888  3.085666  -0.063
N  N60  1  0.03101392  0.14099586  0.21874453  1  0.362844  0.045006  4.215884  0.045  0.412849  0.012278  4.521435  0.014  0.432587  0.016514  4.559946  0.016  0.075816  0.400929  0.007246  4.495143  0.01
N  N61  1  0.96898963  0.85899986  0.78125297  1  0.362774  0.045005  4.216098  0.045  0.412778  0.012279  4.52165  0.014  0.432516  0.016513  4.560161  0.016  0.075791  0.40086  0.007247  4.495337  0.01
N  N62  1  0.94471013  0.08446408  0.31822744  1  -0.365958  -0.137027  2.35867  -0.146  -0.386678  -0.070332  2.598032  -0.08  -0.40295  -0.058696  2.613805  -0.071  -0.186964  -0.375114  -0.079009  2.58605  -0.086
N  N63  1  0.05529380  0.91553047  0.68176913  1  -0.365957  -0.137041  2.358754  -0.146  -0.386678  -0.070332  2.598114  -0.08  -0.402951  -0.058698  2.613888  -0.071  -0.18698  -0.375109  -0.079007  2.586117  -0.086
N  N64  1  0.94282321  0.51624797  0.17948309  1  -0.498737  -0.092739  2.740595  -0.109  -0.545881  -0.045298  3.108501  -0.061  -0.595884  -0.023759  3.125259  -0.042  -0.311412  -0.520152  -0.056535  3.101328  -0.069
N  N65  1  0.05717831  0.48374659  0.82051530  1  -0.498701  -0.092735  2.740638  -0.109  -0.545842  -0.045295  3.108542  -0.061  -0.595844  -0.02376  3.125299  -0.042  -0.311372  -0.520118  -0.056533  3.101359  -0.069
N  N66  1  0.83376882  0.47290311  0.27437241  1  0.365717  0.050232  4.189172  0.051  0.414897  0.013349  4.496935  0.015  0.434934  0.01824  4.53661  0.017  0.076377  0.402954  0.00783  4.472208  0.011
N  N67  1  0.16623233  0.52709263  0.72562792  1  0.365714  0.050229  4.189415  0.051  0.414884  0.013349  4.497172  0.015  0.43492  0.018239  4.536845  0.017  0.076366  0.402939  0.007831  4.47243  0.011
N  N68  1  0.72272976  0.43760127  0.36696853  1  -0.335357  -0.143456  2.368687  -0.153  -0.355317  -0.072796  2.610183  -0.083  -0.371393  -0.060651  2.627881  -0.073  -0.172893  -0.345952  -0.078216  2.598952  -0.085
N  N69  1  0.27727101  0.56239562  0.63303175  1  -0.335379  -0.143457  2.368843  -0.153  -0.355342  -0.072798  2.610343  -0.083  -0.371417  -0.060649  2.628038  -0.073  -0.172923  -0.345976  -0.078213  2.599104  -0.085
