# generated using pymatgen
data_CdH18C18N4O5
_symmetry_space_group_name_H-M   'P 1'
_cell_length_a   9.64296432
_cell_length_b   9.64295985
_cell_length_c   9.72113250
_cell_angle_alpha   95.07963733
_cell_angle_beta   95.07967955
_cell_angle_gamma   93.76610735
_symmetry_Int_Tables_number   1
_chemical_formula_structural   CdH18C18N4O5
_chemical_formula_sum   'Cd2 H36 C36 N8 O10'
_cell_volume   894.38396697
_cell_formula_units_Z   2
loop_
 _symmetry_equiv_pos_site_id
 _symmetry_equiv_pos_as_xyz
  1  'x, y, z'
loop_
 _atom_site_type_symbol
 _atom_site_label
 _atom_site_symmetry_multiplicity
 _atom_site_fract_x
 _atom_site_fract_y
 _atom_site_fract_z
 _atom_site_occupancy
 _atom_site_hle17_bader_spin_density
 _atom_site_hle17_ddec_charge
 _atom_site_hle17_ddec_spin_density
 _atom_site_hle17_ddec_sum_bond_order
 _atom_site_hle17_magmom
 _atom_site_hse06_10hf_bader_spin_density
 _atom_site_hse06_10hf_ddec_charge
 _atom_site_hse06_10hf_ddec_spin_density
 _atom_site_hse06_10hf_ddec_sum_bond_order
 _atom_site_hse06_10hf_magmom
 _atom_site_hse06_bader_spin_density
 _atom_site_hse06_ddec_charge
 _atom_site_hse06_ddec_spin_density
 _atom_site_hse06_ddec_sum_bond_order
 _atom_site_hse06_magmom
 _atom_site_pbe_bader_spin_density
 _atom_site_pbe_cm5_charge
 _atom_site_pbe_ddec_charge
 _atom_site_pbe_ddec_spin_density
 _atom_site_pbe_ddec_sum_bond_order
 _atom_site_pbe_magmom
Cd  Cd0  1  0.50000071  0.49999959  0.50000034  1  0  1.160138  0  1.636704  0  0  0.975733  0  2.077818  0  0  1.031058  0  2.026461  0  0  0.772007  0.936933  0  2.113783  0
Cd  Cd1  1  0.50000081  0.50000037  0.99999985  1  0  1.160142  0  1.636683  0  0  0.975735  0  2.077788  0  0  1.03106  0  2.026435  0  0  0.772014  0.936936  0  2.113753  0
H  H2  1  0.96393717  0.44992411  0.27076018  1  0  0.312532  0  0.935503  0  0  0.29054  0  0.999594  0  0  0.29997  0  0.9925  0  0  0.304566  0.283819  0  1.004651  0
H  H3  1  0.44992178  0.96393522  0.77076121  1  0  0.31251  0  0.935511  0  0  0.290537  0  0.999596  0  0  0.299966  0  0.992504  0  0  0.304548  0.283815  0  1.004645  0
H  H4  1  0.03606536  0.55007611  0.72923864  1  0  0.312509  0  0.935492  0  0  0.290545  0  0.999576  0  0  0.299974  0  0.992482  0  0  0.304556  0.283821  0  1.004633  0
H  H5  1  0.55007755  0.03606396  0.22924032  1  0  0.312541  0  0.935478  0  0  0.290551  0  0.999573  0  0  0.29998  0  0.99248  0  0  0.304566  0.283829  0  1.004628  0
H  H6  1  0.21940979  0.56170637  0.28271101  1  0  0.096809  0  0.946248  0  0  0.105911  0  1.010084  0  0  0.108838  0  1.006002  0  0  0.136029  0.103513  0  1.013949  0
H  H7  1  0.56170751  0.21940834  0.78271374  1  0  0.096772  0  0.946215  0  0  0.10587  0  1.010052  0  0  0.108798  0  1.00597  0  0  0.136014  0.103472  0  1.013923  0
H  H8  1  0.78059274  0.43829386  0.71728781  1  0  0.096777  0  0.946226  0  0  0.105876  0  1.010071  0  0  0.108805  0  1.005987  0  0  0.136015  0.103478  0  1.013933  0
H  H9  1  0.43829294  0.78059189  0.21728798  1  0  0.096773  0  0.946185  0  0  0.10587  0  1.010026  0  0  0.1088  0  1.005943  0  0  0.136018  0.10347  0  1.013892  0
H  H10  1  0.30703242  0.25926269  0.67030283  1  0  0.10217  0  0.978671  0  0  0.112006  0  1.043322  0  0  0.11434  0  1.042625  0  0  0.100922  0.110684  0  1.043003  0
H  H11  1  0.25926111  0.30703212  0.17030311  1  0  0.10214  0  0.97873  0  0  0.111982  0  1.043374  0  0  0.114317  0  1.042678  0  0  0.100911  0.11066  0  1.043054  0
H  H12  1  0.69296803  0.74073754  0.32969684  1  0  0.102141  0  0.978728  0  0  0.111988  0  1.043366  0  0  0.114323  0  1.04267  0  0  0.100923  0.110667  0  1.043048  0
H  H13  1  0.74073710  0.69296602  0.82969618  1  0  0.102155  0  0.978657  0  0  0.112013  0  1.043284  0  0  0.114348  0  1.042588  0  0  0.100937  0.110691  0  1.042965  0
H  H14  1  0.11066404  0.10243824  0.73411050  1  0  0.085911  0  0.968274  0  0  0.097036  0  1.029695  0  0  0.099247  0  1.030166  0  0  0.095386  0.095474  0  1.029499  0
H  H15  1  0.10243549  0.11066508  0.23410875  1  0  0.085958  0  0.968361  0  0  0.097086  0  1.02978  0  0  0.099296  0  1.030251  0  0  0.095405  0.095517  0  1.029587  0
H  H16  1  0.88933545  0.89756303  0.26589020  1  0  0.08595  0  0.968365  0  0  0.097072  0  1.029785  0  0  0.099282  0  1.030258  0  0  0.09541  0.095506  0  1.02959  0
H  H17  1  0.89756183  0.88933515  0.76588961  1  0  0.085971  0  0.968358  0  0  0.097095  0  1.029776  0  0  0.099305  0  1.030249  0  0  0.09541  0.095525  0  1.029583  0
H  H18  1  0.87647677  0.09126351  0.60587679  1  0  0.082493  0  0.967048  0  0  0.095784  0  1.026805  0  0  0.097772  0  1.02715  0  0  0.096557  0.094554  0  1.026833  0
H  H19  1  0.09126195  0.87647600  0.10587880  1  0  0.08246  0  0.96705  0  0  0.095782  0  1.026776  0  0  0.097768  0  1.027127  0  0  0.096549  0.094548  0  1.026808  0
H  H20  1  0.12352287  0.90873985  0.39412205  1  0  0.082476  0  0.967047  0  0  0.095778  0  1.02679  0  0  0.097765  0  1.02714  0  0  0.096558  0.094549  0  1.026823  0
H  H21  1  0.90873842  0.12352319  0.89412282  1  0  0.082467  0  0.96706  0  0  0.095771  0  1.026799  0  0  0.097759  0  1.027146  0  0  0.096554  0.094538  0  1.026833  0
H  H22  1  0.82779636  0.24013145  0.41102169  1  0  0.111016  0  0.956136  0  0  0.121561  0  1.014922  0  0  0.12466  0  1.013544  0  0  0.10328  0.119751  0  1.015623  0
H  H23  1  0.24012856  0.82779561  0.91102275  1  0  0.111008  0  0.956142  0  0  0.121547  0  1.014938  0  0  0.124645  0  1.013561  0  0  0.10328  0.119733  0  1.015639  0
H  H24  1  0.17220424  0.75987087  0.58897714  1  0  0.111004  0  0.956153  0  0  0.121543  0  1.014947  0  0  0.124641  0  1.01357  0  0  0.103279  0.119733  0  1.015649  0
H  H25  1  0.75987077  0.17220357  0.08897879  1  0  0.111021  0  0.956132  0  0  0.121562  0  1.014925  0  0  0.12466  0  1.013547  0  0  0.103283  0.119746  0  1.015631  0
H  H26  1  0.46083627  0.65345870  0.73483460  1  0  0.412779  0  0.89801  0  0  0.378341  0  0.968357  0  0  0.39034  0  0.951097  0  0  0.2806  0.369799  0  0.980684  0
H  H27  1  0.65345975  0.46083477  0.23483510  1  0  0.412775  0  0.898026  0  0  0.37832  0  0.968395  0  0  0.39032  0  0.951134  0  0  0.280588  0.369776  0  0.980727  0
H  H28  1  0.53916514  0.34654048  0.26516609  1  0  0.41277  0  0.898031  0  0  0.378313  0  0.968405  0  0  0.390313  0  0.951142  0  0  0.280584  0.369767  0  0.980738  0
H  H29  1  0.34654166  0.53916442  0.76516559  1  0  0.41274  0  0.898067  0  0  0.378305  0  0.968411  0  0  0.390304  0  0.951149  0  0  0.280583  0.369756  0  0.980749  0
H  H30  1  0.35734457  0.02036976  0.55588574  1  0  0.098582  0  0.95012  0  0  0.110293  0  1.016765  0  0  0.112041  0  1.017337  0  0  0.098377  0.109453  0  1.015321  0
H  H31  1  0.02037057  0.35734541  0.05588416  1  0  0.098587  0  0.950098  0  0  0.110306  0  1.016748  0  0  0.112053  0  1.017321  0  0  0.098397  0.109468  0  1.015308  0
H  H32  1  0.64265476  0.97962943  0.44411682  1  0  0.098568  0  0.950091  0  0  0.110304  0  1.016742  0  0  0.112051  0  1.017314  0  0  0.098401  0.109465  0  1.015303  0
H  H33  1  0.97962996  0.64265586  0.94411457  1  0  0.098583  0  0.950103  0  0  0.110297  0  1.016752  0  0  0.112044  0  1.017325  0  0  0.098381  0.109463  0  1.015305  0
H  H34  1  0.38172800  0.95234682  0.38478740  1  0  0.099858  0  0.937437  0  0  0.114806  0  0.997749  0  0  0.116708  0  0.997409  0  0  0.099166  0.11315  0  0.998482  0
H  H35  1  0.95234699  0.38172901  0.88478521  1  0  0.099854  0  0.9374  0  0  0.114789  0  0.997761  0  0  0.11669  0  0.997421  0  0  0.099156  0.113135  0  0.998496  0
H  H36  1  0.61827028  0.04765237  0.61521507  1  0  0.099838  0  0.937392  0  0  0.114778  0  0.997769  0  0  0.116679  0  0.997428  0  0  0.099159  0.113124  0  0.998506  0
H  H37  1  0.04765242  0.61827121  0.11521334  1  0  0.099839  0  0.937466  0  0  0.114796  0  0.997771  0  0  0.116698  0  0.997432  0  0  0.099161  0.113143  0  0.998512  0
C  C38  1  0.18289744  0.48485086  0.34907180  1  0  0.257911  0  3.683773  0  0  0.19495  0  3.963299  0  0  0.212828  0  3.973154  0  0  0.156038  0.182612  0  3.95784  0
C  C39  1  0.48484954  0.18289608  0.84907430  1  0  0.257971  0  3.683681  0  0  0.195048  0  3.963203  0  0  0.212927  0  3.973058  0  0  0.156062  0.182704  0  3.957749  0
C  C40  1  0.81710404  0.51514936  0.65092590  1  0  0.257965  0  3.683734  0  0  0.195044  0  3.963265  0  0  0.212924  0  3.97312  0  0  0.156073  0.182711  0  3.957799  0
C  C41  1  0.51515091  0.81710415  0.15092742  1  0  0.257979  0  3.683727  0  0  0.195025  0  3.963253  0  0  0.212904  0  3.973109  0  0  0.156059  0.182693  0  3.957784  0
C  C42  1  0.20394147  0.25368108  0.61399188  1  0  -0.132516  0  3.747059  0  0  -0.152048  0  3.999027  0  0  -0.15342  0  4.018477  0  0  -0.0964  -0.151409  0  3.983925  0
C  C43  1  0.25367921  0.20394188  0.11399326  1  0  -0.132448  0  3.747016  0  0  -0.151984  0  3.998966  0  0  -0.153356  0  4.018415  0  0  -0.096345  -0.15135  0  3.983864  0
C  C44  1  0.79605809  0.74632124  0.38600789  1  0  -0.132495  0  3.74709  0  0  -0.152024  0  3.999052  0  0  -0.153393  0  4.018501  0  0  -0.0964  -0.151386  0  3.983951  0
C  C45  1  0.74631827  0.79606044  0.88600736  1  0  -0.13247  0  3.747109  0  0  -0.152038  0  3.999062  0  0  -0.153406  0  4.018501  0  0  -0.096436  -0.151405  0  3.983964  0
C  C46  1  0.09325842  0.16749762  0.64887242  1  0  -0.09186  0  3.795856  0  0  -0.109449  0  4.054277  0  0  -0.112375  0  4.076982  0  0  -0.105788  -0.106265  0  4.039163  0
C  C47  1  0.16749671  0.09325896  0.14887391  1  0  -0.091886  0  3.796037  0  0  -0.109495  0  4.054468  0  0  -0.11242  0  4.077173  0  0  -0.105837  -0.106311  0  4.03935  0
C  C48  1  0.90674106  0.83250365  0.35112622  1  0  -0.091893  0  3.796062  0  0  -0.109489  0  4.054487  0  0  -0.112417  0  4.077192  0  0  -0.105841  -0.106308  0  4.039374  0
C  C49  1  0.83250158  0.90674022  0.85112548  1  0  -0.091993  0  3.795963  0  0  -0.109592  0  4.054411  0  0  -0.112519  0  4.07712  0  0  -0.105863  -0.106406  0  4.039293  0
C  C50  1  0.95936502  0.16169224  0.57618817  1  0  -0.078691  0  3.806989  0  0  -0.094961  0  4.06111  0  0  -0.09721  0  4.085119  0  0  -0.102668  -0.094294  0  4.048811  0
C  C51  1  0.16169141  0.95936506  0.07618929  1  0  -0.078721  0  3.807005  0  0  -0.095014  0  4.061134  0  0  -0.097261  0  4.085136  0  0  -0.102686  -0.094343  0  4.04883  0
C  C52  1  0.04063454  0.83831008  0.42381057  1  0  -0.078728  0  3.806981  0  0  -0.095011  0  4.061121  0  0  -0.097256  0  4.085113  0  0  -0.102688  -0.094343  0  4.048827  0
C  C53  1  0.83830912  0.04063621  0.92381151  1  0  -0.078641  0  3.806903  0  0  -0.094915  0  4.061027  0  0  -0.09716  0  4.085022  0  0  -0.102643  -0.094244  0  4.048727  0
C  C54  1  0.93103412  0.24315281  0.46709428  1  0  -0.156871  0  3.758745  0  0  -0.173641  0  4.009565  0  0  -0.176841  0  4.029412  0  0  -0.100029  -0.173185  0  3.999123  0
C  C55  1  0.24315210  0.93103384  0.96709553  1  0  -0.156851  0  3.758743  0  0  -0.173638  0  4.009604  0  0  -0.176836  0  4.029445  0  0  -0.100041  -0.173184  0  3.999158  0
C  C56  1  0.06896641  0.75684846  0.53290548  1  0  -0.156852  0  3.758726  0  0  -0.173622  0  4.009554  0  0  -0.176821  0  4.0294  0  0  -0.100032  -0.173169  0  3.999116  0
C  C57  1  0.75684827  0.06896535  0.03290506  1  0  -0.156888  0  3.758774  0  0  -0.173675  0  4.00962  0  0  -0.176873  0  4.029465  0  0  -0.100057  -0.17322  0  3.999178  0
C  C58  1  0.04187217  0.33077475  0.43382077  1  0  0.145969  0  3.798568  0  0  0.138253  0  4.041914  0  0  0.14265  0  4.063744  0  0  0.089002  0.135529  0  4.027234  0
C  C59  1  0.33077282  0.04187192  0.93382126  1  0  0.146003  0  3.798526  0  0  0.138316  0  4.04187  0  0  0.142714  0  4.063698  0  0  0.089049  0.13559  0  4.02718  0
C  C60  1  0.95812739  0.66922757  0.56617900  1  0  0.145992  0  3.798554  0  0  0.138329  0  4.041906  0  0  0.142727  0  4.063736  0  0  0.08905  0.135603  0  4.027222  0
C  C61  1  0.66922667  0.95812936  0.06617944  1  0  0.146017  0  3.798459  0  0  0.138296  0  4.041777  0  0  0.142693  0  4.063607  0  0  0.08904  0.135576  0  4.027086  0
C  C62  1  0.17754905  0.33575601  0.50430704  1  0  0.14433  0  3.81728  0  0  0.143709  0  4.058601  0  0  0.146903  0  4.082393  0  0  0.082963  0.1425  0  4.040899  0
C  C63  1  0.33575380  0.17754879  0.00430735  1  0  0.144254  0  3.817166  0  0  0.143667  0  4.058435  0  0  0.146861  0  4.082229  0  0  0.082928  0.142464  0  4.040728  0
C  C64  1  0.82245156  0.66424631  0.49569385  1  0  0.144347  0  3.817248  0  0  0.14371  0  4.058574  0  0  0.146901  0  4.082368  0  0  0.082979  0.142504  0  4.040871  0
C  C65  1  0.66424449  0.82245039  0.99569204  1  0  0.144315  0  3.817322  0  0  0.143752  0  4.058554  0  0  0.146948  0  4.082346  0  0  0.082995  0.142543  0  4.040849  0
C  C66  1  0.44080974  0.81773533  0.54218540  1  0  0.705338  0  3.852265  0  0  0.656285  0  4.156272  0  0  0.689978  0  4.148888  0  0  0.210879  0.633668  0  4.159634  0
C  C67  1  0.81773636  0.44080995  0.04218405  1  0  0.705325  0  3.852253  0  0  0.656263  0  4.15629  0  0  0.689958  0  4.148905  0  0  0.21087  0.633661  0  4.159637  0
C  C68  1  0.55918959  0.18226385  0.45781511  1  0  0.705251  0  3.852207  0  0  0.656178  0  4.156286  0  0  0.689879  0  4.148891  0  0  0.210839  0.633571  0  4.159635  0
C  C69  1  0.18226409  0.55919028  0.95781561  1  0  0.705312  0  3.852206  0  0  0.656274  0  4.156197  0  0  0.689968  0  4.148809  0  0  0.210862  0.633661  0  4.159557  0
C  C70  1  0.42689382  0.96130994  0.49306208  1  0  -0.250551  0  3.669699  0  0  -0.290559  0  3.921501  0  0  -0.295494  0  3.928069  0  0  -0.167555  -0.28714  0  3.916368  0
C  C71  1  0.96131174  0.42689517  0.99306107  1  0  -0.250512  0  3.669682  0  0  -0.290577  0  3.921524  0  0  -0.29551  0  3.928091  0  0  -0.167567  -0.28717  0  3.916406  0
C  C72  1  0.57310439  0.03868821  0.50693927  1  0  -0.250426  0  3.669587  0  0  -0.290537  0  3.92147  0  0  -0.295467  0  3.928029  0  0  -0.167582  -0.287134  0  3.916351  0
C  C73  1  0.03868983  0.57310610  0.00693878  1  0  -0.250524  0  3.669743  0  0  -0.290554  0  3.921528  0  0  -0.295489  0  3.928096  0  0  -0.167561  -0.287148  0  3.916413  0
N  N74  1  0.04977598  0.42673407  0.33668250  1  0  -0.349557  0  3.392556  0  0  -0.285989  0  3.629701  0  0  -0.304705  0  3.642293  0  0  -0.378441  -0.273221  0  3.621631  0
N  N75  1  0.42673223  0.04977473  0.83668294  1  0  -0.349563  0  3.392482  0  0  -0.286089  0  3.629719  0  0  -0.304809  0  3.642316  0  0  -0.378467  -0.273311  0  3.621627  0
N  N76  1  0.95022551  0.57326616  0.66331623  1  0  -0.349549  0  3.392436  0  0  -0.286103  0  3.629686  0  0  -0.304823  0  3.642281  0  0  -0.378476  -0.273325  0  3.621598  0
N  N77  1  0.57326710  0.95022445  0.16331757  1  0  -0.349633  0  3.392497  0  0  -0.286082  0  3.629664  0  0  -0.304799  0  3.642257  0  0  -0.378479  -0.273316  0  3.621585  0
N  N78  1  0.26368374  0.43278909  0.44744044  1  0  -0.46022  0  3.155858  0  0  -0.388885  0  3.433648  0  0  -0.412106  0  3.448608  0  0  -0.356165  -0.372219  0  3.422642  0
N  N79  1  0.43278834  0.26368157  0.94744082  1  0  -0.460186  0  3.15582  0  0  -0.388854  0  3.433573  0  0  -0.412077  0  3.448537  0  0  -0.356152  -0.372198  0  3.422581  0
N  N80  1  0.73631783  0.56721218  0.55256044  1  0  -0.460206  0  3.155877  0  0  -0.388861  0  3.433653  0  0  -0.412081  0  3.448615  0  0  -0.356155  -0.372205  0  3.422659  0
N  N81  1  0.56721099  0.73631761  0.05255968  1  0  -0.460179  0  3.155889  0  0  -0.388855  0  3.433642  0  0  -0.412077  0  3.448604  0  0  -0.356148  -0.3722  0  3.422644  0
O  O82  1  0.44228477  0.71671297  0.44927277  1  0  -0.650063  0  2.009029  0  0  -0.582138  0  2.263302  0  0  -0.612092  0  2.253339  0  0  -0.327094  -0.562019  0  2.268781  0
O  O83  1  0.71671356  0.44228362  0.94927237  1  0  -0.650069  0  2.009067  0  0  -0.582127  0  2.26334  0  0  -0.61208  0  2.253378  0  0  -0.327086  -0.562012  0  2.268817  0
O  O84  1  0.55771561  0.28328621  0.55072885  1  0  -0.65005  0  2.009025  0  0  -0.582097  0  2.263295  0  0  -0.612052  0  2.253331  0  0  -0.327066  -0.561979  0  2.268768  0
O  O85  1  0.28328569  0.55771452  0.05072701  1  0  -0.650074  0  2.009087  0  0  -0.582146  0  2.263346  0  0  -0.612099  0  2.253382  0  0  -0.327095  -0.562027  0  2.268822  0
O  O86  1  0.45605131  0.80958232  0.67301511  1  0  -0.640751  0  1.984936  0  0  -0.578471  0  2.201856  0  0  -0.604109  0  2.192887  0  0  -0.313361  -0.560748  0  2.207296  0
O  O87  1  0.80958427  0.45605157  0.17301590  1  0  -0.640716  0  1.984875  0  0  -0.578446  0  2.201831  0  0  -0.604083  0  2.192857  0  0  -0.313347  -0.560729  0  2.207267  0
O  O88  1  0.54394794  0.19041582  0.32698529  1  0  -0.640699  0  1.984904  0  0  -0.578414  0  2.201858  0  0  -0.604057  0  2.192885  0  0  -0.313346  -0.560696  0  2.207291  0
O  O89  1  0.19041714  0.54394761  0.82698376  1  0  -0.640704  0  1.984802  0  0  -0.578453  0  2.201737  0  0  -0.604087  0  2.192757  0  0  -0.313342  -0.56073  0  2.207179  0
O  O90  1  0.44857265  0.55142621  0.75000100  1  0  -0.849416  0  1.864967  0  0  -0.782348  0  2.073034  0  0  -0.806867  0  2.036346  0  0  -0.584494  -0.76486  0  2.099136  0
O  O91  1  0.55142765  0.44857193  0.24999950  1  0  -0.849443  0  1.864933  0  0  -0.782338  0  2.073045  0  0  -0.806858  0  2.036359  0  0  -0.584481  -0.764844  0  2.099132  0
