# generated using pymatgen
data_SrH14C24(NO2)4
_symmetry_space_group_name_H-M   'P 1'
_cell_length_a   9.48674415
_cell_length_b   9.49809499
_cell_length_c   13.49200000
_cell_angle_alpha   99.08053439
_cell_angle_beta   110.01173905
_cell_angle_gamma   106.63644788
_symmetry_Int_Tables_number   1
_chemical_formula_structural   SrH14C24(NO2)4
_chemical_formula_sum   'Sr2 H28 C48 N8 O16'
_cell_volume   1049.38442545
_cell_formula_units_Z   2
loop_
 _symmetry_equiv_pos_site_id
 _symmetry_equiv_pos_as_xyz
  1  'x, y, z'
loop_
 _atom_site_type_symbol
 _atom_site_label
 _atom_site_symmetry_multiplicity
 _atom_site_fract_x
 _atom_site_fract_y
 _atom_site_fract_z
 _atom_site_occupancy
 _atom_site_pbe_bader_charge
 _atom_site_pbe_bader_spin_density
 _atom_site_pbe_cm5_charge
 _atom_site_pbe_ddec_charge
 _atom_site_pbe_ddec_spin_density
 _atom_site_pbe_ddec_sum_bond_order
 _atom_site_pbe_magmom
Sr  Sr0  1  0.94068895  0.19069167  0.74998452  1  1.667498  0  0.97207  1.299505  0  1.662734  0
Sr  Sr1  1  0.05931168  0.80930870  0.25001627  1  1.667485  0  0.972078  1.299511  0  1.662729  0
H  H2  1  0.91736961  0.46840467  0.35021130  1  0.64825  0  0.295628  0.360108  0  0.990793  0
H  H3  1  0.61810923  0.56695091  0.14977239  1  0.654787  0  0.295527  0.360008  0  0.990779  0
H  H4  1  0.08263101  0.53159570  0.64978874  1  0.648251  0  0.295632  0.360106  0  0.990838  0
H  H5  1  0.38188983  0.43304831  0.85022715  1  0.654787  0  0.295526  0.360006  0  0.990779  0
H  H6  1  0.33640703  0.05200880  0.95990231  1  0.097073  0  0.113405  0.123876  0  1.00741  0
H  H7  1  0.59205862  0.37581686  0.53972306  1  0.124693  0  0.113341  0.12323  0  1.006696  0
H  H8  1  0.66359359  0.94799157  0.04009773  1  0.097072  0  0.113374  0.123825  0  1.007448  0
H  H9  1  0.40794044  0.62418236  0.46027647  1  0.124675  0  0.113343  0.123223  0  1.006752  0
H  H10  1  0.35951126  0.25361567  0.06951979  1  0.117934  0  0.110279  0.120713  0  1.026518  0
H  H11  1  0.68418502  0.28941211  0.43026079  1  0.12449  0  0.110575  0.121502  0  1.024849  0
H  H12  1  0.64048780  0.74638356  0.93047975  1  0.117933  0  0.110279  0.120707  0  1.026506  0
H  H13  1  0.31581560  0.71058826  0.56974000  1  0.124493  0  0.110587  0.121495  0  1.024868  0
H  H14  1  0.98185323  0.13774538  0.24514105  1  0.132055  0  0.118123  0.081787  0  1.046856  0
H  H15  1  0.39269780  0.73737771  0.25499308  1  0.151395  0  0.118268  0.082062  0  1.045066  0
H  H16  1  0.01814583  0.86225384  0.75485849  1  0.132056  0  0.118127  0.081772  0  1.046873  0
H  H17  1  0.60730170  0.26262266  0.74500669  1  0.1516  0  0.118273  0.082045  0  1.045094  0
H  H18  1  0.37233197  0.81576224  0.88001992  1  0.087519  0  0.113201  0.113757  0  0.995552  0
H  H19  1  0.43541852  0.49174445  0.61964654  1  0.124046  0  0.113368  0.113615  0  0.994408  0
H  H20  1  0.62766709  0.18423698  0.11997962  1  0.087522  0  0.113206  0.113767  0  0.995536  0
H  H21  1  0.56458166  0.50825478  0.38035253  1  0.12404  0  0.113366  0.113613  0  0.994403  0
H  H22  1  0.30601421  0.46682423  0.16059267  1  0.119701  0  0.113657  0.116226  0  1.005709  0
H  H23  1  0.80665957  0.14493470  0.33908809  1  0.121901  0  0.113903  0.116256  0  1.00675  0
H  H24  1  0.69398641  0.53317614  0.83940811  1  0.119702  0  0.113652  0.116222  0  1.005696  0
H  H25  1  0.19334105  0.85506567  0.66091195  1  0.121909  0  0.113888  0.116233  0  1.00679  0
H  H26  1  0.12979478  0.58393228  0.05877330  1  0.141064  0  0.125009  0.084068  0  1.029226  0
H  H27  1  0.02493409  0.07158258  0.44151804  1  0.133313  0  0.125405  0.084852  0  1.029457  0
H  H28  1  0.87020428  0.41606695  0.94122698  1  0.141089  0  0.125013  0.084084  0  1.029208  0
H  H29  1  0.97506609  0.92841664  0.55848103  1  0.133291  0  0.125401  0.08484  0  1.029481  0
C  C30  1  0.26563008  0.53374573  0.91794961  1  1.583332  0  0.239995  0.601036  0  4.145  0
C  C31  1  0.11547289  0.34772775  0.58192037  1  1.552598  0  0.240759  0.602956  0  4.141874  0
C  C32  1  0.73436898  0.46625349  0.08204993  1  1.58359  0  0.240022  0.601063  0  4.145013  0
C  C33  1  0.88452617  0.65227147  0.41807917  1  1.552574  0  0.240726  0.602932  0  4.141881  0
C  C34  1  0.29680578  0.94805804  0.98337811  1  -0.004096  0  -0.075544  -0.156401  0  3.931049  0
C  C35  1  0.46461983  0.31300976  0.51641765  1  -0.060086  0  -0.075051  -0.155604  0  3.930751  0
C  C36  1  0.70319440  0.05194118  0.01662170  1  -0.004098  0  -0.075522  -0.15632  0  3.931016  0
C  C37  1  0.53537923  0.68698946  0.48358189  1  -0.060078  0  -0.075056  -0.155585  0  3.930786  0
C  C38  1  0.27559373  0.22922952  0.10849013  1  -0.0341  0  -0.072058  -0.142283  0  3.895793  0
C  C39  1  0.62088843  0.16680521  0.39126799  1  -0.021631  0  -0.071631  -0.141338  0  3.894065  0
C  C40  1  0.72440758  0.77076970  0.89151069  1  -0.034107  0  -0.072048  -0.142259  0  3.895784  0
C  C41  1  0.37911195  0.83319745  0.60873225  1  -0.021563  0  -0.071646  -0.141324  0  3.894125  0
C  C42  1  0.09006393  0.44033505  0.26172765  1  1.586086  0  0.216085  0.58488  0  4.233713  0
C  C43  1  0.67860670  0.82822464  0.23810155  1  1.593063  0  0.21619  0.58596  0  4.236303  0
C  C44  1  0.90993557  0.55966532  0.73827286  1  1.586081  0  0.216129  0.584942  0  4.2338  0
C  C45  1  0.32139348  0.17177459  0.76189826  1  1.59305  0  0.216189  0.58594  0  4.236333  0
C  C46  1  0.06690420  0.16701380  0.20730799  1  0.522766  0  0.056097  0.089161  0  3.96723  0
C  C47  1  0.45984425  0.85995482  0.29280102  1  0.527789  0  0.056117  0.088163  0  3.966103  0
C  C48  1  0.93309598  0.83298543  0.79269182  1  0.522728  0  0.056066  0.089205  0  3.967256  0
C  C49  1  0.54015726  0.14004784  0.70719949  1  0.527629  0  0.056084  0.088131  0  3.966157  0
C  C50  1  0.25556447  0.68171409  0.96445856  1  0.028608  0  -0.008016  -0.083825  0  3.964562  0
C  C51  1  0.21705337  0.29108882  0.53540887  1  -0.02179  0  -0.007802  -0.084695  0  3.965853  0
C  C52  1  0.74443571  0.31828513  0.03554125  1  0.028609  0  -0.008073  -0.083844  0  3.964608  0
C  C53  1  0.78294726  0.70891155  0.46459117  1  -0.021809  0  -0.007811  -0.084742  0  3.965925  0
C  C54  1  0.31554977  0.81624359  0.93784894  1  -0.064622  0  -0.057873  -0.039168  0  3.935513  0
C  C55  1  0.37825329  0.37736864  0.56194442  1  -0.027308  0  -0.058046  -0.038052  0  3.935528  0
C  C56  1  0.68445041  0.18375563  0.06215087  1  -0.064615  0  -0.05785  -0.039183  0  3.935487  0
C  C57  1  0.62174734  0.62263173  0.43805562  1  -0.027293  0  -0.058047  -0.038047  0  3.935526  0
C  C58  1  0.19922535  0.08008415  0.11019709  1  0.485624  0  0.127242  0.174908  0  3.981673  0
C  C59  1  0.46992817  0.08897195  0.38973499  1  0.500551  0  0.127117  0.173695  0  3.982644  0
C  C60  1  0.80077371  0.91991507  0.88980171  1  0.485658  0  0.127264  0.174918  0  3.981659  0
C  C61  1  0.53007154  0.91103186  0.61026299  1  0.500355  0  0.127123  0.173753  0  3.982583  0
C  C62  1  0.24556159  0.34993280  0.15964541  1  -0.003559  0  -0.055762  -0.02426  0  3.900297  0
C  C63  1  0.69057172  0.08563688  0.34011199  1  -0.091936  0  -0.055925  -0.025335  0  3.899355  0
C  C64  1  0.75443904  0.65006757  0.84035537  1  -0.003364  0  -0.055764  -0.02427  0  3.900363  0
C  C65  1  0.30942935  0.91436464  0.65988903  1  -0.091991  0  -0.055913  -0.025334  0  3.899399  0
C  C66  1  0.17863385  0.68658146  0.03612490  1  0.498496  0  0.069816  0.094533  0  3.942419  0
C  C67  1  0.15025817  0.14276174  0.46395513  1  0.509894  0  0.069216  0.092892  0  3.94357  0
C  C68  1  0.82136521  0.31341776  0.96387538  1  0.498497  0  0.069826  0.094496  0  3.94243  0
C  C69  1  0.84974245  0.85723863  0.53604491  1  0.509897  0  0.06923  0.09293  0  3.943587  0
C  C70  1  0.22233211  0.94417859  0.05720090  1  0.494749  0  0.132483  0.183803  0  3.967984  0
C  C71  1  0.38692022  0.16503109  0.44275157  1  0.511544  0  0.131392  0.182136  0  3.968151  0
C  C72  1  0.77766807  0.05582064  0.94279891  1  0.49474  0  0.132463  0.183745  0  3.968036  0
C  C73  1  0.61307928  0.83496928  0.55724820  1  0.511556  0  0.131473  0.182181  0  3.968139  0
C  C74  1  0.13692551  0.31937505  0.20921169  1  -0.06793  0  -0.014415  -0.090142  0  3.944648  0
C  C75  1  0.61033718  0.92774848  0.29069062  1  -0.023583  0  -0.014811  -0.08904  0  3.943264  0
C  C76  1  0.86307512  0.68062532  0.79078983  1  -0.068156  0  -0.014372  -0.09012  0  3.94467  0
C  C77  1  0.38966457  0.07225189  0.70931043  1  -0.02355  0  -0.014807  -0.089024  0  3.943293  0
N  N78  1  0.09843868  0.05121228  0.16156815  1  -1.229287  0  -0.358475  -0.333665  0  3.422851  0
N  N79  1  0.38968562  0.93716462  0.33858294  1  -1.244318  0  -0.358839  -0.333503  0  3.423224  0
N  N80  1  0.90156150  0.94878695  0.83843166  1  -1.229279  0  -0.358517  -0.333745  0  3.422998  0
N  N81  1  0.61031633  0.06283919  0.66141781  1  -1.24425  0  -0.35882  -0.333492  0  3.423206  0
N  N82  1  0.16427453  0.81351937  0.08258609  1  -1.216976  0  -0.346615  -0.317555  0  3.411821  0
N  N83  1  0.23083861  0.08185140  0.41750298  1  -1.223723  0  -0.344718  -0.315235  0  3.409166  0
N  N84  1  0.83572565  0.18647985  0.91741372  1  -1.216987  0  -0.346591  -0.317492  0  3.411806  0
N  N85  1  0.76916045  0.91814783  0.58249656  1  -1.223707  0  -0.344768  -0.3153  0  3.409235  0
O  O86  1  0.37981364  0.54578294  0.88280278  1  -1.181626  0  -0.311972  -0.481578  0  2.312004  0
O  O87  1  0.16294599  0.49673903  0.61713166  1  -1.161822  0  -0.312409  -0.482437  0  2.309568  0
O  O88  1  0.62018586  0.45421743  0.11719625  1  -1.18189  0  -0.311986  -0.481586  0  2.312002  0
O  O89  1  0.83705307  0.50326019  0.38286788  1  -1.161828  0  -0.312386  -0.482409  0  2.309482  0
O  O90  1  0.16877862  0.40999734  0.91384441  1  -1.192347  0  -0.338144  -0.559335  0  2.21815  0
O  O91  1  0.99554471  0.25533248  0.58608486  1  -1.189021  0  -0.340324  -0.561767  0  2.218205  0
O  O92  1  0.83122044  0.59000188  0.08615512  1  -1.192329  0  -0.338139  -0.559337  0  2.218181  0
O  O93  1  0.00445591  0.74466789  0.41391444  1  -1.188979  0  -0.340353  -0.561793  0  2.218211  0
O  O94  1  0.14210588  0.57460095  0.25442035  1  -1.213627  0  -0.360291  -0.596824  0  2.233489  0
O  O95  1  0.82026413  0.88732075  0.24525872  1  -1.210423  0  -0.36209  -0.598704  0  2.235872  0
O  O96  1  0.85789430  0.42539827  0.74557946  1  -1.213647  0  -0.360301  -0.596845  0  2.233479  0
O  O97  1  0.17973606  0.11267847  0.75474109  1  -1.210418  0  -0.362079  -0.598684  0  2.235892  0
O  O98  1  0.99674442  0.39241658  0.30906632  1  -1.171433  0  -0.316881  -0.552159  0  2.258906  0
O  O99  1  0.58344042  0.68791549  0.19096168  1  -1.185568  0  -0.316567  -0.552775  0  2.259078  0
O  O100  1  0.00325419  0.60758150  0.69093373  1  -1.171379  0  -0.316919  -0.55219  0  2.258984  0
O  O101  1  0.41655908  0.31208488  0.80903810  1  -1.185562  0  -0.316579  -0.552766  0  2.259063  0
