# generated using pymatgen
data_YbH8C10(NO4)2
_symmetry_space_group_name_H-M   'P 1'
_cell_length_a   6.69277472
_cell_length_b   7.41866403
_cell_length_c   11.86193618
_cell_angle_alpha   87.08677232
_cell_angle_beta   77.30912089
_cell_angle_gamma   80.76735975
_symmetry_Int_Tables_number   1
_chemical_formula_structural   YbH8C10(NO4)2
_chemical_formula_sum   'Yb2 H16 C20 N4 O16'
_cell_volume   567.05588623
_cell_formula_units_Z   2
loop_
 _symmetry_equiv_pos_site_id
 _symmetry_equiv_pos_as_xyz
  1  'x, y, z'
loop_
 _atom_site_type_symbol
 _atom_site_label
 _atom_site_symmetry_multiplicity
 _atom_site_fract_x
 _atom_site_fract_y
 _atom_site_fract_z
 _atom_site_occupancy
 _atom_site_hle17_bader_spin_density
 _atom_site_hle17_ddec_charge
 _atom_site_hle17_ddec_spin_density
 _atom_site_hle17_ddec_sum_bond_order
 _atom_site_hle17_magmom
 _atom_site_hse06_10hf_bader_spin_density
 _atom_site_hse06_10hf_ddec_charge
 _atom_site_hse06_10hf_ddec_spin_density
 _atom_site_hse06_10hf_ddec_sum_bond_order
 _atom_site_hse06_10hf_magmom
 _atom_site_hse06_bader_spin_density
 _atom_site_hse06_ddec_charge
 _atom_site_hse06_ddec_spin_density
 _atom_site_hse06_ddec_sum_bond_order
 _atom_site_hse06_magmom
 _atom_site_pbe_bader_spin_density
 _atom_site_pbe_cm5_charge
 _atom_site_pbe_ddec_charge
 _atom_site_pbe_ddec_spin_density
 _atom_site_pbe_ddec_sum_bond_order
 _atom_site_pbe_magmom
Yb  Yb0  1  0.82360163  0.16682545  0.92233756  1  0  2.183686  0  1.75113  0  0  2.115536  0  2.071703  0  0  2.172756  0  2.025738  0  0  1.565745  2.082163  0  2.09831  0
Yb  Yb1  1  0.17640105  0.83317783  0.07766260  1  0  2.183692  0  1.751142  0  0  2.115513  0  2.071731  0  0  2.172733  0  2.025767  0  0  1.565737  2.082138  0  2.098333  0
H  H2  1  0.76182072  0.80801407  0.03662783  1  0  0.455806  0  0.819234  0  0  0.425881  0  0.890698  0  0  0.43888  0  0.871795  0  0  0.317363  0.417415  0  0.902979  0
H  H3  1  0.23817497  0.19198645  0.96337234  1  0  0.45588  0  0.819141  0  0  0.425953  0  0.890589  0  0  0.438951  0  0.871687  0  0  0.317411  0.41749  0  0.90288  0
H  H4  1  0.90479957  0.77867089  0.91236696  1  0  0.447472  0  0.85201  0  0  0.411961  0  0.925957  0  0  0.425926  0  0.906176  0  0  0.305428  0.402718  0  0.939127  0
H  H5  1  0.09519521  0.22132828  0.08763235  1  0  0.447423  0  0.85209  0  0  0.411921  0  0.926011  0  0  0.425885  0  0.906231  0  0  0.305425  0.402678  0  0.939181  0
H  H6  1  0.00900888  0.35489739  0.70732089  1  0  0.402517  0  0.916933  0  0  0.3631  0  0.99595  0  0  0.375803  0  0.977904  0  0  0.28451  0.354636  0  1.008028  0
H  H7  1  0.99098914  0.64510043  0.29267843  1  0  0.402677  0  0.916754  0  0  0.363251  0  0.995779  0  0  0.375954  0  0.977732  0  0  0.284567  0.354785  0  1.007857  0
H  H8  1  0.84251997  0.49994428  0.78065186  1  0  0.429516  0  0.875597  0  0  0.396176  0  0.943944  0  0  0.407878  0  0.927338  0  0  0.292179  0.38832  0  0.955146  0
H  H9  1  0.15747872  0.50005626  0.21934831  1  0  0.429529  0  0.875576  0  0  0.396208  0  0.943889  0  0  0.407905  0  0.927291  0  0  0.292198  0.388352  0  0.955091  0
H  H10  1  0.28876296  0.71603483  0.35356282  1  0  0.323635  0  0.87372  0  0  0.310325  0  0.923453  0  0  0.318633  0  0.916808  0  0  0.327033  0.30459  0  0.928064  0
H  H11  1  0.71123245  0.28395335  0.64643999  1  0  0.323661  0  0.873704  0  0  0.310269  0  0.92355  0  0  0.318573  0  0.916916  0  0  0.327019  0.304535  0  0.92815  0
H  H12  1  0.62675727  0.58524351  0.23325561  1  0  0.098794  0  0.934209  0  0  0.110197  0  0.991833  0  0  0.112785  0  0.988449  0  0  0.143216  0.108471  0  0.993899  0
H  H13  1  0.37323790  0.41474605  0.76674719  1  0  0.09885  0  0.934107  0  0  0.110246  0  0.991747  0  0  0.112833  0  0.988362  0  0  0.143225  0.108521  0  0.993818  0
H  H14  1  0.92198773  0.68759893  0.57176584  1  0  0.115574  0  0.946593  0  0  0.124625  0  1.009882  0  0  0.128329  0  1.007326  0  0  0.107755  0.121898  0  1.011897  0
H  H15  1  0.07801495  0.31240165  0.42823174  1  0  0.115627  0  0.946563  0  0  0.124655  0  1.009876  0  0  0.128372  0  1.007306  0  0  0.107762  0.121926  0  1.011892  0
H  H16  1  0.15610726  0.87622788  0.59592922  1  0  0.11932  0  0.942337  0  0  0.129469  0  1.002534  0  0  0.133097  0  0.999915  0  0  0.109831  0.126875  0  1.004451  0
H  H17  1  0.84389140  0.12376714  0.40407357  1  0  0.119284  0  0.942333  0  0  0.129421  0  1.002545  0  0  0.133048  0  0.999929  0  0  0.109823  0.126836  0  1.004447  0
C  C18  1  0.60904855  0.63195238  0.32045157  1  0  0.289098  0  3.628277  0  0  0.221992  0  3.916742  0  0  0.240252  0  3.923575  0  0  0.172664  0.210314  0  3.911162  0
C  C19  1  0.39094597  0.36804266  0.67955035  1  0  0.289056  0  3.628191  0  0  0.221958  0  3.916628  0  0  0.240219  0  3.923458  0  0  0.172678  0.210272  0  3.911056  0
C  C20  1  0.66963670  0.70481977  0.48185214  1  0  0.149751  0  3.843828  0  0  0.14486  0  4.098623  0  0  0.148703  0  4.120901  0  0  0.088371  0.142361  0  4.083413  0
C  C21  1  0.33036257  0.29517941  0.51814717  1  0  0.149802  0  3.843929  0  0  0.144912  0  4.098717  0  0  0.148754  0  4.120999  0  0  0.088383  0.14241  0  4.083512  0
C  C22  1  0.75719757  0.73052953  0.57510693  1  0  -0.151825  0  3.723838  0  0  -0.181608  0  3.980218  0  0  -0.182728  0  3.997187  0  0  -0.090254  -0.180691  0  3.968705  0
C  C23  1  0.24280569  0.26946970  0.42488978  1  0  -0.151843  0  3.72398  0  0  -0.181618  0  3.980336  0  0  -0.182752  0  3.997302  0  0  -0.090259  -0.180704  0  3.968824  0
C  C24  1  0.62724553  0.80997604  0.67405955  1  0  -0.075298  0  3.749431  0  0  -0.068756  0  3.996726  0  0  -0.073075  0  4.016652  0  0  -0.019345  -0.065509  0  3.982536  0
C  C25  1  0.37275624  0.19002588  0.32593975  1  0  -0.075558  0  3.749464  0  0  -0.068963  0  3.996701  0  0  -0.073282  0  4.016632  0  0  -0.019445  -0.065714  0  3.982509  0
C  C26  1  0.41102605  0.86187499  0.68112685  1  0  -0.069942  0  3.709624  0  0  -0.061337  0  3.951974  0  0  -0.066962  0  3.971911  0  0  -0.016057  -0.057187  0  3.93758  0
C  C27  1  0.58897903  0.13812695  0.31887159  1  0  -0.069699  0  3.709253  0  0  -0.061183  0  3.951647  0  0  -0.066809  0  3.971581  0  0  -0.016041  -0.057034  0  3.937256  0
C  C28  1  0.32239831  0.83655791  0.58792770  1  0  -0.140158  0  3.713733  0  0  -0.172432  0  3.974973  0  0  -0.172459  0  3.992563  0  0  -0.082032  -0.17214  0  3.962874  0
C  C29  1  0.67760227  0.16343852  0.41207334  1  0  -0.140156  0  3.7137  0  0  -0.172387  0  3.974949  0  0  -0.172413  0  3.99254  0  0  -0.08203  -0.172102  0  3.962837  0
C  C30  1  0.45297473  0.75559218  0.48924766  1  0  0.150535  0  3.781402  0  0  0.139612  0  4.03597  0  0  0.143056  0  4.059169  0  0  0.097071  0.137284  0  4.020322  0
C  C31  1  0.54702585  0.24440424  0.51075339  1  0  0.150481  0  3.78156  0  0  0.139552  0  4.036124  0  0  0.142996  0  4.059323  0  0  0.097107  0.13722  0  4.020473  0
C  C32  1  0.72726582  0.84812799  0.76946832  1  0  0.71  0  3.83641  0  0  0.655864  0  4.138386  0  0  0.693079  0  4.125126  0  0  0.228272  0.631544  0  4.145897  0
C  C33  1  0.27273547  0.15188217  0.23052836  1  0  0.709882  0  3.836409  0  0  0.655782  0  4.138324  0  0  0.692996  0  4.125064  0  0  0.228319  0.631459  0  4.14584  0
C  C34  1  0.27101703  0.92449431  0.79373510  1  0  0.729772  0  3.818149  0  0  0.686199  0  4.107073  0  0  0.725128  0  4.092743  0  0  0.229672  0.661386  0  4.11529  0
C  C35  1  0.72898814  0.07551171  0.20626505  1  0  0.729751  0  3.817973  0  0  0.686253  0  4.106786  0  0  0.725186  0  4.092455  0  0  0.229699  0.661439  0  4.115007  0
C  C36  1  0.41468683  0.45516029  0.98317643  1  0  0.56417  0  3.898215  0  0  0.51656  0  4.205914  0  0  0.549045  0  4.194804  0  0  0.21533  0.49587  0  4.212818  0
C  C37  1  0.58530903  0.54484557  0.01683236  1  0  0.563989  0  3.898302  0  0  0.516455  0  4.20596  0  0  0.548939  0  4.194852  0  0  0.215273  0.495766  0  4.212858  0
N  N38  1  0.42157918  0.70460033  0.38457458  1  0  -0.333167  0  3.373363  0  0  -0.272811  0  3.613725  0  0  -0.290748  0  3.625517  0  0  -0.370383  -0.260652  0  3.605145  0
N  N39  1  0.57841882  0.29539198  0.61542735  1  0  -0.333146  0  3.373329  0  0  -0.272727  0  3.613754  0  0  -0.290664  0  3.625549  0  0  -0.370343  -0.260553  0  3.60516  0
N  N40  1  0.76228743  0.62971813  0.37513810  1  0  -0.420036  0  3.068435  0  0  -0.367395  0  3.331166  0  0  -0.383963  0  3.341341  0  0  -0.332898  -0.355863  0  3.323467  0
N  N41  1  0.23771208  0.37027969  0.62486122  1  0  -0.420061  0  3.068574  0  0  -0.367422  0  3.331298  0  0  -0.383987  0  3.34147  0  0  -0.332956  -0.35589  0  3.323609  0
O  O42  1  0.68909395  0.00897858  0.80895710  1  0  -0.715165  0  2.072391  0  0  -0.68052  0  2.337192  0  0  -0.709297  0  2.328138  0  0  -0.417268  -0.662926  0  2.343937  0
O  O43  1  0.31091289  0.99102481  0.19103614  1  0  -0.715127  0  2.072327  0  0  -0.680458  0  2.337059  0  0  -0.709239  0  2.328007  0  0  -0.417308  -0.662865  0  2.343804  0
O  O44  1  0.85391608  0.71858778  0.80186819  1  0  -0.61366  0  2.014856  0  0  -0.541844  0  2.221333  0  0  -0.567287  0  2.209711  0  0  -0.290026  -0.523088  0  2.22763  0
O  O45  1  0.14608601  0.28141416  0.19813025  1  0  -0.613523  0  2.014929  0  0  -0.54178  0  2.221467  0  0  -0.567219  0  2.209847  0  0  -0.290031  -0.523023  0  2.22775  0
O  O46  1  0.10820370  0.03849510  0.79108394  1  0  -0.721438  0  2.057154  0  0  -0.678961  0  2.305662  0  0  -0.707844  0  2.297749  0  0  -0.40646  -0.661021  0  2.311457  0
O  O47  1  0.89179897  0.96150818  0.20891622  1  0  -0.72143  0  2.057326  0  0  -0.678972  0  2.305806  0  0  -0.707854  0  2.29789  0  0  -0.406437  -0.661031  0  2.3116  0
O  O48  1  0.32155987  0.85317846  0.88540294  1  0  -0.72552  0  2.077868  0  0  -0.683312  0  2.325462  0  0  -0.713161  0  2.318228  0  0  -0.403797  -0.664493  0  2.330536  0
O  O49  1  0.67844822  0.14683169  0.11459546  1  0  -0.725544  0  2.077613  0  0  -0.683362  0  2.325175  0  0  -0.713213  0  2.317939  0  0  -0.403855  -0.664544  0  2.330252  0
O  O50  1  0.23347996  0.54162081  0.00231472  1  0  -0.61426  0  2.074159  0  0  -0.576733  0  2.317202  0  0  -0.600766  0  2.308333  0  0  -0.366011  -0.561555  0  2.323215  0
O  O51  1  0.76652189  0.45838519  0.99768629  1  0  -0.614148  0  2.074104  0  0  -0.576683  0  2.317134  0  0  -0.600715  0  2.308262  0  0  -0.365999  -0.561511  0  2.323157  0
O  O52  1  0.47201803  0.29788032  0.93738284  1  0  -0.656733  0  2.068666  0  0  -0.612559  0  2.31267  0  0  -0.638355  0  2.3029  0  0  -0.360479  -0.596003  0  2.319384  0
O  O53  1  0.52798013  0.70211463  0.06262513  1  0  -0.656683  0  2.068799  0  0  -0.612528  0  2.312746  0  0  -0.638322  0  2.302976  0  0  -0.360467  -0.595972  0  2.319459  0
O  O54  1  0.89198112  0.84496608  0.98918129  1  0  -1.007224  0  2.038189  0  0  -0.969377  0  2.263336  0  0  -0.997455  0  2.231055  0  0  -0.675162  -0.954752  0  2.287463  0
O  O55  1  0.10801359  0.15503722  0.01081627  1  0  -1.007274  0  2.038319  0  0  -0.969423  0  2.263454  0  0  -0.997503  0  2.23117  0  0  -0.675211  -0.954781  0  2.28755  0
O  O56  1  0.86808273  0.36560396  0.76407989  1  0  -0.925224  0  1.922298  0  0  -0.884683  0  2.125895  0  0  -0.909218  0  2.094312  0  0  -0.654215  -0.869943  0  2.14811  0
O  O57  1  0.13191413  0.63439655  0.23592114  1  0  -0.925387  0  1.922175  0  0  -0.88487  0  2.125806  0  0  -0.909402  0  2.094224  0  0  -0.654296  -0.870125  0  2.148008  0
