# generated using pymatgen
data_CdH14C24(NO2)2
_symmetry_space_group_name_H-M   'P 1'
_cell_length_a   7.21185829
_cell_length_b   11.70737701
_cell_length_c   12.56770621
_cell_angle_alpha   117.75068205
_cell_angle_beta   97.95707269
_cell_angle_gamma   90.01720561
_symmetry_Int_Tables_number   1
_chemical_formula_structural   CdH14C24(NO2)2
_chemical_formula_sum   'Cd2 H28 C48 N4 O8'
_cell_volume   927.48527361
_cell_formula_units_Z   2
loop_
 _symmetry_equiv_pos_site_id
 _symmetry_equiv_pos_as_xyz
  1  'x, y, z'
loop_
 _atom_site_type_symbol
 _atom_site_label
 _atom_site_symmetry_multiplicity
 _atom_site_fract_x
 _atom_site_fract_y
 _atom_site_fract_z
 _atom_site_occupancy
 _atom_site_hle17_bader_spin_density
 _atom_site_hle17_ddec_charge
 _atom_site_hle17_ddec_spin_density
 _atom_site_hle17_ddec_sum_bond_order
 _atom_site_hle17_magmom
 _atom_site_hse06_10hf_bader_spin_density
 _atom_site_hse06_10hf_ddec_charge
 _atom_site_hse06_10hf_ddec_spin_density
 _atom_site_hse06_10hf_ddec_sum_bond_order
 _atom_site_hse06_10hf_magmom
 _atom_site_hse06_bader_spin_density
 _atom_site_hse06_ddec_charge
 _atom_site_hse06_ddec_spin_density
 _atom_site_hse06_ddec_sum_bond_order
 _atom_site_hse06_magmom
 _atom_site_pbe_bader_spin_density
 _atom_site_pbe_cm5_charge
 _atom_site_pbe_ddec_charge
 _atom_site_pbe_ddec_spin_density
 _atom_site_pbe_ddec_sum_bond_order
 _atom_site_pbe_magmom
Cd  Cd0  1  0.25006291  0.61372306  0.00005670  1  0  1.186304  0  1.679037  0  0  0.996047  0  2.143132  0  0  1.053429  0  2.084535  0  0  0.789311  0.955139  0  2.183497  0
Cd  Cd1  1  0.74993505  0.38627803  0.99994075  1  0  1.186284  0  1.679047  0  0  0.996032  0  2.143146  0  0  1.053411  0  2.084551  0  0  0.789306  0.955124  0  2.183512  0
H  H2  1  0.98267577  0.56875339  0.74580578  1  0  0.085632  0  0.955734  0  0  0.091755  0  1.022357  0  0  0.093723  0  1.021319  0  0  0.115841  0.090289  0  1.023143  0
H  H3  1  0.51747904  0.82309211  0.25454723  1  0  0.08604  0  0.956075  0  0  0.091623  0  1.023078  0  0  0.093686  0  1.021976  0  0  0.115955  0.090094  0  1.023918  0
H  H4  1  0.01732769  0.43124673  0.25419566  1  0  0.085624  0  0.955736  0  0  0.091747  0  1.022363  0  0  0.093713  0  1.021327  0  0  0.11584  0.090281  0  1.023149  0
H  H5  1  0.48251612  0.17690896  0.74545556  1  0  0.086049  0  0.956169  0  0  0.091655  0  1.02313  0  0  0.093718  0  1.022028  0  0  0.115965  0.090126  0  1.02397  0
H  H6  1  0.87061820  0.69066054  0.63117514  1  0  0.105378  0  0.942886  0  0  0.117563  0  0.997663  0  0  0.119778  0  0.998706  0  0  0.108339  0.11595  0  0.997091  0
H  H7  1  0.63003098  0.05958307  0.36906054  1  0  0.105282  0  0.944012  0  0  0.117612  0  0.998565  0  0  0.119818  0  0.999618  0  0  0.10858  0.116034  0  0.997968  0
H  H8  1  0.12938236  0.30933861  0.36882406  1  0  0.105376  0  0.942906  0  0  0.117566  0  0.997674  0  0  0.119781  0  0.998718  0  0  0.108344  0.115955  0  0.997105  0
H  H9  1  0.36996409  0.94041704  0.63094023  1  0  0.10529  0  0.943984  0  0  0.117618  0  0.998535  0  0  0.119825  0  0.999588  0  0  0.10858  0.116036  0  0.997937  0
H  H10  1  0.97554496  0.92678133  0.72391549  1  0  0.092508  0  0.974509  0  0  0.102802  0  1.041137  0  0  0.104697  0  1.040377  0  0  0.10382  0.101421  0  1.04165  0
H  H11  1  0.52491550  0.20303259  0.27645041  1  0  0.091986  0  0.975539  0  0  0.102638  0  1.04171  0  0  0.104581  0  1.040971  0  0  0.103988  0.101244  0  1.042222  0
H  H12  1  0.02445431  0.07321878  0.27608482  1  0  0.092502  0  0.974519  0  0  0.102797  0  1.041147  0  0  0.10469  0  1.040385  0  0  0.103827  0.101418  0  1.041663  0
H  H13  1  0.47508526  0.79696849  0.72355203  1  0  0.09202  0  0.9755  0  0  0.102672  0  1.041675  0  0  0.104615  0  1.040937  0  0  0.104002  0.101276  0  1.042184  0
H  H14  1  0.14561301  0.12645033  0.90191950  1  0  0.118191  0  0.952716  0  0  0.127137  0  1.015225  0  0  0.129998  0  1.014578  0  0  0.106081  0.124929  0  1.015974  0
H  H15  1  0.35446993  0.22483368  0.09855585  1  0  0.118351  0  0.952552  0  0  0.12731  0  1.014975  0  0  0.130229  0  1.014182  0  0  0.106048  0.125077  0  1.015795  0
H  H16  1  0.85438646  0.87355172  0.09808167  1  0  0.118189  0  0.952694  0  0  0.12716  0  1.015172  0  0  0.130033  0  1.014509  0  0  0.106089  0.124943  0  1.015936  0
H  H17  1  0.64552814  0.77516837  0.90144521  1  0  0.118275  0  0.952563  0  0  0.127232  0  1.015  0  0  0.130161  0  1.014194  0  0  0.106006  0.124997  0  1.015818  0
H  H18  1  0.78247526  0.34034142  0.64333440  1  0  0.100436  0  0.97293  0  0  0.107794  0  1.038599  0  0  0.110497  0  1.037879  0  0  0.100461  0.10582  0  1.039222  0
H  H19  1  0.71767887  0.69685514  0.35702933  1  0  0.100686  0  0.972156  0  0  0.107603  0  1.038492  0  0  0.110309  0  1.03778  0  0  0.100153  0.105617  0  1.039104  0
H  H20  1  0.21752981  0.65966064  0.35666484  1  0  0.100416  0  0.97291  0  0  0.107788  0  1.038566  0  0  0.110491  0  1.037847  0  0  0.100476  0.105809  0  1.039194  0
H  H21  1  0.28232149  0.30314208  0.64296981  1  0  0.100701  0  0.97213  0  0  0.107609  0  1.038473  0  0  0.110318  0  1.03776  0  0  0.100168  0.105625  0  1.039086  0
H  H22  1  0.78180521  0.32759891  0.44008581  1  0  0.085898  0  0.972331  0  0  0.097602  0  1.033702  0  0  0.100257  0  1.03364  0  0  0.09488  0.095717  0  1.033797  0
H  H23  1  0.71843399  0.88744769  0.56022581  1  0  0.086575  0  0.972858  0  0  0.09823  0  1.034152  0  0  0.100889  0  1.034091  0  0  0.095294  0.09634  0  1.034233  0
H  H24  1  0.21819716  0.67240411  0.55991363  1  0  0.085847  0  0.97238  0  0  0.09756  0  1.03374  0  0  0.100216  0  1.033678  0  0  0.094855  0.095673  0  1.033832  0
H  H25  1  0.28157028  0.11254663  0.43977318  1  0  0.086507  0  0.972898  0  0  0.098182  0  1.034173  0  0  0.100839  0  1.034116  0  0  0.095286  0.096292  0  1.034254  0
H  H26  1  0.35666255  0.61086049  0.71941263  1  0  0.099105  0  0.975834  0  0  0.105876  0  1.04621  0  0  0.109215  0  1.044531  0  0  0.101191  0.103446  0  1.047543  0
H  H27  1  0.14303852  0.89140478  0.28046983  1  0  0.098741  0  0.975263  0  0  0.10537  0  1.045975  0  0  0.108743  0  1.044177  0  0  0.100719  0.102898  0  1.047347  0
H  H28  1  0.64333692  0.38914157  0.28058615  1  0  0.099108  0  0.975781  0  0  0.105877  0  1.046162  0  0  0.109217  0  1.044481  0  0  0.10119  0.103449  0  1.047496  0
H  H29  1  0.85696194  0.10859340  0.71952973  1  0  0.098726  0  0.975281  0  0  0.105356  0  1.045989  0  0  0.108731  0  1.04419  0  0  0.100731  0.102881  0  1.047371  0
C  C30  1  0.02263695  0.67154745  0.78253706  1  0  0.142303  0  3.690257  0  0  0.111767  0  3.945494  0  0  0.119214  0  3.962852  0  0  0.058855  0.106968  0  3.933534  0
C  C31  1  0.47764517  0.88918239  0.21783206  1  0  0.142785  0  3.691325  0  0  0.112649  0  3.946443  0  0  0.120002  0  3.963777  0  0  0.059104  0.107903  0  3.93452  0
C  C32  1  0.97736242  0.32845363  0.21746447  1  0  0.142339  0  3.690281  0  0  0.11179  0  3.945527  0  0  0.119234  0  3.962891  0  0  0.058825  0.106991  0  3.93357  0
C  C33  1  0.52235129  0.11081772  0.78216882  1  0  0.142724  0  3.691477  0  0  0.112585  0  3.946589  0  0  0.119938  0  3.963923  0  0  0.05909  0.107838  0  3.934662  0
C  C34  1  0.96161462  0.74028731  0.71901481  1  0  -0.126547  0  3.747798  0  0  -0.138598  0  4.003303  0  0  -0.145457  0  4.024747  0  0  -0.085276  -0.134085  0  3.988735  0
C  C35  1  0.53885422  0.02141743  0.28131490  1  0  -0.125363  0  3.749422  0  0  -0.137612  0  4.004791  0  0  -0.144449  0  4.026252  0  0  -0.084599  -0.133144  0  3.990218  0
C  C36  1  0.03838484  0.25971474  0.28098716  1  0  -0.126585  0  3.747819  0  0  -0.138634  0  4.003323  0  0  -0.145493  0  4.024765  0  0  -0.085273  -0.134121  0  3.988766  0
C  C37  1  0.46114794  0.97858366  0.71868606  1  0  -0.125343  0  3.749456  0  0  -0.137592  0  4.004829  0  0  -0.144429  0  4.026291  0  0  -0.084604  -0.133122  0  3.990248  0
C  C38  1  0.01853141  0.87021898  0.77037532  1  0  -0.053543  0  3.705357  0  0  -0.079608  0  3.955685  0  0  -0.077378  0  3.974748  0  0  -0.066756  -0.080731  0  3.942564  0
C  C39  1  0.48185855  0.10002441  0.22999905  1  0  -0.05403  0  3.706174  0  0  -0.080547  0  3.956482  0  0  -0.078399  0  3.975478  0  0  -0.068171  -0.081659  0  3.943431  0
C  C40  1  0.98146936  0.12978211  0.22962553  1  0  -0.053527  0  3.705354  0  0  -0.079593  0  3.955709  0  0  -0.07736  0  3.974769  0  0  -0.066763  -0.080724  0  3.942592  0
C  C41  1  0.51814092  0.89997764  0.77000371  1  0  -0.054106  0  3.706266  0  0  -0.080635  0  3.956576  0  0  -0.078489  0  3.975573  0  0  -0.068209  -0.081744  0  3.943511  0
C  C42  1  0.13371195  0.93196938  0.88525866  1  0  0.018869  0  3.801474  0  0  0.036416  0  4.030916  0  0  0.034057  0  4.055276  0  0  -0.003118  0.037789  0  4.014507  0
C  C43  1  0.36652917  0.04693769  0.11514702  1  0  0.018453  0  3.801041  0  0  0.036106  0  4.029836  0  0  0.033727  0  4.054347  0  0  -0.002547  0.037543  0  4.013276  0
C  C44  1  0.86628601  0.06803170  0.11474277  1  0  0.018887  0  3.801443  0  0  0.036388  0  4.030944  0  0  0.034028  0  4.055309  0  0  -0.003115  0.037785  0  4.014502  0
C  C45  1  0.63346910  0.95306629  0.88485569  1  0  0.018412  0  3.801119  0  0  0.036082  0  4.029885  0  0  0.033703  0  4.054396  0  0  -0.002512  0.037518  0  4.013322  0
C  C46  1  0.18998693  0.85405149  0.94166895  1  0  0.131052  0  3.748483  0  0  0.124649  0  3.985024  0  0  0.129162  0  4.006427  0  0  0.120836  0.121646  0  3.970528  0
C  C47  1  0.31020214  0.91260480  0.05875600  1  0  0.131162  0  3.750674  0  0  0.126162  0  3.985666  0  0  0.130579  0  4.007203  0  0  0.121153  0.123212  0  3.971066  0
C  C48  1  0.81000823  0.14594959  0.05833225  1  0  0.131085  0  3.748478  0  0  0.12471  0  3.984994  0  0  0.129224  0  4.006398  0  0  0.120848  0.121703  0  3.970495  0
C  C49  1  0.68979582  0.08739628  0.94124463  1  0  0.131208  0  3.750746  0  0  0.126199  0  3.985735  0  0  0.130616  0  4.007271  0  0  0.121146  0.123245  0  3.971138  0
C  C50  1  0.19326948  0.06702294  0.94496060  1  0  -0.090334  0  3.701491  0  0  -0.113766  0  3.957368  0  0  -0.117069  0  3.980224  0  0  -0.082703  -0.111417  0  3.941988  0
C  C51  1  0.30686772  0.12233720  0.05549411  1  0  -0.09124  0  3.700806  0  0  -0.114746  0  3.956518  0  0  -0.118051  0  3.979395  0  0  -0.083572  -0.112408  0  3.941095  0
C  C52  1  0.80672859  0.93297910  0.05504045  1  0  -0.090374  0  3.701436  0  0  -0.113814  0  3.957325  0  0  -0.117128  0  3.980181  0  0  -0.082735  -0.111468  0  3.94195  0
C  C53  1  0.69312884  0.87766387  0.94450720  1  0  -0.091064  0  3.700577  0  0  -0.114569  0  3.956268  0  0  -0.117882  0  3.979143  0  0  -0.083496  -0.112227  0  3.94084  0
C  C54  1  0.57629821  0.48869377  0.81819633  1  0  0.664101  0  3.917322  0  0  0.610326  0  4.214303  0  0  0.6462  0  4.205181  0  0  0.206611  0.58592  0  4.219728  0
C  C55  1  0.92363161  0.67049209  0.18198217  1  0  0.664057  0  3.917426  0  0  0.610653  0  4.214288  0  0  0.646521  0  4.205133  0  0  0.206359  0.586246  0  4.219739  0
C  C56  1  0.42370085  0.51130441  0.18179994  1  0  0.664122  0  3.917562  0  0  0.610396  0  4.21444  0  0  0.646259  0  4.205338  0  0  0.206648  0.58599  0  4.219866  0
C  C57  1  0.07636746  0.32950609  0.81801489  1  0  0.664006  0  3.917407  0  0  0.610609  0  4.214267  0  0  0.646477  0  4.205113  0  0  0.206342  0.586202  0  4.219717  0
C  C58  1  0.57044119  0.47888975  0.69373242  1  0  -0.054686  0  3.749962  0  0  -0.03137  0  3.984908  0  0  -0.037884  0  4.005784  0  0  -0.017507  -0.027269  0  3.971009  0
C  C59  1  0.92963836  0.78504774  0.30650114  1  0  -0.053359  0  3.747786  0  0  -0.030409  0  3.982766  0  0  -0.036929  0  4.003655  0  0  -0.017016  -0.026256  0  3.968765  0
C  C60  1  0.42956098  0.52111134  0.30626616  1  0  -0.054835  0  3.75003  0  0  -0.031566  0  3.985024  0  0  -0.038076  0  4.005902  0  0  -0.017613  -0.027468  0  3.971134  0
C  C61  1  0.07036321  0.21494754  0.69349804  1  0  -0.053313  0  3.747842  0  0  -0.030381  0  3.982845  0  0  -0.036898  0  4.003731  0  0  -0.01703  -0.02623  0  3.968845  0
C  C62  1  0.68901412  0.39624360  0.61325195  1  0  -0.075602  0  3.749977  0  0  -0.097448  0  3.99661  0  0  -0.097456  0  4.016221  0  0  -0.088548  -0.097325  0  3.983408  0
C  C63  1  0.81119477  0.78282995  0.38705846  1  0  -0.076288  0  3.750253  0  0  -0.097639  0  3.996932  0  0  -0.097657  0  4.016571  0  0  -0.08887  -0.097515  0  3.983688  0
C  C64  1  0.31098835  0.60376040  0.38674792  1  0  -0.075555  0  3.749847  0  0  -0.097409  0  3.996483  0  0  -0.097417  0  4.016095  0  0  -0.088562  -0.097282  0  3.983282  0
C  C65  1  0.18880679  0.21716533  0.61293914  1  0  -0.076393  0  3.750444  0  0  -0.09774  0  3.997154  0  0  -0.097762  0  4.016795  0  0  -0.088925  -0.097615  0  3.983914  0
C  C66  1  0.68688872  0.38857434  0.50036620  1  0  -0.126018  0  3.75973  0  0  -0.140753  0  4.003151  0  0  -0.143751  0  4.023604  0  0  -0.096287  -0.138702  0  3.989257  0
C  C67  1  0.81331682  0.88812840  0.49988295  1  0  -0.126221  0  3.761349  0  0  -0.140929  0  4.004286  0  0  -0.143955  0  4.024737  0  0  -0.095897  -0.138848  0  3.990387  0
C  C68  1  0.31311515  0.61142965  0.49963378  1  0  -0.12589  0  3.75977  0  0  -0.14062  0  4.003173  0  0  -0.143618  0  4.023629  0  0  -0.096221  -0.138565  0  3.98927  0
C  C69  1  0.18668495  0.11186882  0.50011629  1  0  -0.12607  0  3.761511  0  0  -0.140792  0  4.00444  0  0  -0.143818  0  4.02489  0  0  -0.095839  -0.138708  0  3.990542  0
C  C70  1  0.56176630  0.45939095  0.45997583  1  0  0.04715  0  3.808546  0  0  0.063014  0  4.037116  0  0  0.062592  0  4.061118  0  0  -0.01192  0.063278  0  4.020837  0
C  C71  1  0.93833853  0.99937126  0.54007411  1  0  0.046113  0  3.809923  0  0  0.062158  0  4.038024  0  0  0.061774  0  4.061947  0  0  -0.012734  0.062389  0  4.021809  0
C  C72  1  0.43823597  0.54061111  0.54002318  1  0  0.047103  0  3.808718  0  0  0.06295  0  4.037298  0  0  0.062527  0  4.0613  0  0  -0.011936  0.063215  0  4.021017  0
C  C73  1  0.06166313  0.00062499  0.45992551  1  0  0.046118  0  3.809793  0  0  0.06218  0  4.037883  0  0  0.061799  0  4.061804  0  0  -0.012758  0.062411  0  4.02167  0
C  C74  1  0.44800510  0.54915225  0.65688198  1  0  -0.124058  0  3.713539  0  0  -0.153228  0  3.961942  0  0  -0.152934  0  3.97938  0  0  -0.086271  -0.153259  0  3.950207  0
C  C75  1  0.05193529  0.89222405  0.34315037  1  0  -0.123878  0  3.710634  0  0  -0.153  0  3.959114  0  0  -0.152713  0  3.976534  0  0  -0.085839  -0.152996  0  3.947433  0
C  C76  1  0.55199586  0.45085078  0.34311735  1  0  -0.124008  0  3.713364  0  0  -0.153176  0  3.961774  0  0  -0.152884  0  3.979214  0  0  -0.086235  -0.153209  0  3.950046  0
C  C77  1  0.94806218  0.10777219  0.65684731  1  0  -0.123883  0  3.710719  0  0  -0.152991  0  3.959203  0  0  -0.152705  0  3.976622  0  0  -0.085874  -0.152988  0  3.947514  0
N  N78  1  0.13438938  0.72671631  0.88955725  1  0  -0.332194  0  3.22415  0  0  -0.266893  0  3.486109  0  0  -0.284856  0  3.503446  0  0  -0.314552  -0.254546  0  3.474103  0
N  N79  1  0.36577797  0.83738413  0.11085783  1  0  -0.332891  0  3.225587  0  0  -0.26786  0  3.486908  0  0  -0.285784  0  3.504264  0  0  -0.314527  -0.255548  0  3.474908  0
N  N80  1  0.86560858  0.27328477  0.11044259  1  0  -0.332258  0  3.224153  0  0  -0.266929  0  3.48606  0  0  -0.284892  0  3.503396  0  0  -0.314537  -0.25458  0  3.474056  0
N  N81  1  0.63422139  0.16261695  0.88914291  1  0  -0.332883  0  3.225614  0  0  -0.267862  0  3.486935  0  0  -0.285787  0  3.504292  0  0  -0.314545  -0.255552  0  3.474933  0
O  O82  1  0.52222914  0.58924523  0.90119930  1  0  -0.649513  0  2.003181  0  0  -0.593571  0  2.261301  0  0  -0.619057  0  2.247157  0  0  -0.331531  -0.575641  0  2.270444  0
O  O83  1  0.97794777  0.68808500  0.09903401  1  0  -0.649322  0  2.004116  0  0  -0.593276  0  2.262044  0  0  -0.618789  0  2.247927  0  0  -0.330429  -0.575294  0  2.271082  0
O  O84  1  0.47777243  0.41075006  0.09879830  1  0  -0.649482  0  2.003099  0  0  -0.593553  0  2.261186  0  0  -0.619033  0  2.247045  0  0  -0.33152  -0.575623  0  2.270327  0
O  O85  1  0.02205000  0.31191415  0.90096576  1  0  -0.649312  0  2.003978  0  0  -0.593262  0  2.261907  0  0  -0.618773  0  2.247789  0  0  -0.330418  -0.57528  0  2.270948  0
O  O86  1  0.63822753  0.39080257  0.82746751  1  0  -0.65078  0  2.04556  0  0  -0.57912  0  2.305903  0  0  -0.609877  0  2.29405  0  0  -0.327038  -0.557446  0  2.313239  0
O  O87  1  0.86137138  0.56332194  0.17257195  1  0  -0.651292  0  2.04408  0  0  -0.580515  0  2.305358  0  0  -0.61126  0  2.293461  0  0  -0.327862  -0.558845  0  2.312716  0
O  O88  1  0.36177264  0.60919272  0.17252600  1  0  -0.650774  0  2.045815  0  0  -0.579106  0  2.306104  0  0  -0.609859  0  2.294258  0  0  -0.327009  -0.557431  0  2.313438  0
O  O89  1  0.13863048  0.43667625  0.82742534  1  0  -0.651263  0  2.044078  0  0  -0.580488  0  2.305349  0  0  -0.611235  0  2.293454  0  0  -0.327841  -0.55882  0  2.312707  0
