# generated using pymatgen
data_MnH11C16(NO3)2
_symmetry_space_group_name_H-M   'P 1'
_cell_length_a   8.64806875
_cell_length_b   8.71367916
_cell_length_c   10.21770915
_cell_angle_alpha   105.43757752
_cell_angle_beta   94.86752495
_cell_angle_gamma   103.02042098
_symmetry_Int_Tables_number   1
_chemical_formula_structural   MnH11C16(NO3)2
_chemical_formula_sum   'Mn2 H22 C32 N4 O12'
_cell_volume   714.45945779
_cell_formula_units_Z   2
loop_
 _symmetry_equiv_pos_site_id
 _symmetry_equiv_pos_as_xyz
  1  'x, y, z'
loop_
 _atom_site_type_symbol
 _atom_site_label
 _atom_site_symmetry_multiplicity
 _atom_site_fract_x
 _atom_site_fract_y
 _atom_site_fract_z
 _atom_site_occupancy
 _atom_site_hle17_ddec_charge
 _atom_site_hle17_ddec_spin_density
 _atom_site_hle17_ddec_sum_bond_order
 _atom_site_hle17_magmom
 _atom_site_hse06_10hf_ddec_charge
 _atom_site_hse06_10hf_ddec_spin_density
 _atom_site_hse06_10hf_ddec_sum_bond_order
 _atom_site_hse06_10hf_magmom
 _atom_site_hse06_ddec_charge
 _atom_site_hse06_ddec_spin_density
 _atom_site_hse06_ddec_sum_bond_order
 _atom_site_hse06_magmom
 _atom_site_pbe_cm5_charge
 _atom_site_pbe_ddec_charge
 _atom_site_pbe_ddec_spin_density
 _atom_site_pbe_ddec_sum_bond_order
 _atom_site_pbe_magmom
Mn  Mn0  1  0.52235744  0.23994493  0.41128332  1  1.234278  4.787752  1.788327  4.679  1.079554  4.700478  2.299715  4.527  1.133922  4.75133  2.224981  4.597  0.628019  1.038701  4.64358  2.354737  4.452
Mn  Mn1  1  0.47764512  0.76005818  0.58871582  1  1.234311  4.78778  1.788276  4.679  1.079556  4.700518  2.299677  4.527  1.133919  4.751362  2.224947  4.597  0.628024  1.038696  4.643629  2.354698  4.452
H  H2  1  0.12621077  0.10141587  0.32153085  1  0.110155  -0.000667  0.964489  0.0  0.11441  -0.000312  1.035671  0.0  0.11789  -0.000376  1.033269  0.0  0.110593  0.111815  -0.000242  1.037337  0.0
H  H3  1  0.87378798  0.89858604  0.67846969  1  0.110133  -0.000634  0.964467  0.0  0.114367  -0.000312  1.03568  0.0  0.117848  -0.000377  1.033261  0.0  0.110587  0.111772  -0.000242  1.037339  0.0
H  H4  1  0.02660298  0.62676037  0.39085639  1  0.112767  -0.000549  0.939648  0.0  0.119541  -0.000202  1.00613  0.0  0.124088  -0.000295  1.001545  0.0  0.110809  0.116118  -0.000104  1.009618  0.0
H  H5  1  0.97340157  0.37324149  0.60914361  1  0.112762  -0.000563  0.939645  0.0  0.119532  -0.000201  1.006131  0.0  0.124078  -0.000295  1.001548  0.0  0.110821  0.116114  -0.000104  1.009607  0.0
H  H6  1  0.63828323  0.84591955  0.32287552  1  0.120216  -0.00081  0.946933  0.0  0.123845  -0.000577  1.017578  0.0  0.128701  -0.000645  1.012759  0.0  0.11711  0.120123  -0.0005  1.021388  0.0
H  H7  1  0.36171922  0.15407862  0.67712351  1  0.120178  -0.000813  0.946926  0.0  0.123832  -0.000577  1.017557  0.0  0.128688  -0.000646  1.012738  0.0  0.117125  0.120111  -0.0005  1.021367  0.0
H  H8  1  0.85414558  0.35418800  0.33221986  1  0.410261  -0.000396  0.873509  0.0  0.377351  -0.000204  0.955473  0.0  0.390642  -0.000322  0.940962  0.0  0.30882  0.36798  -6.4e-05  0.965594  0.0
H  H9  1  0.14585370  0.64581143  0.66777920  1  0.410277  -0.000398  0.873461  0.0  0.377315  -0.000204  0.955506  0.0  0.390603  -0.000322  0.941004  0.0  0.308807  0.367945  -6.4e-05  0.965626  0.0
H  H10  1  0.69117834  0.49962118  0.69461520  1  0.118896  -0.000883  0.955387  0.0  0.124129  -0.000558  1.022802  0.0  0.127386  -0.00065  1.019048  0.0  0.141566  0.1216  -0.000454  1.025695  0.0
H  H11  1  0.30881861  0.50037828  0.30538564  1  0.118883  -0.000887  0.955484  0.0  0.124171  -0.000558  1.022836  0.0  0.12743  -0.000649  1.019078  0.0  0.141568  0.12164  -0.000454  1.025737  0.0
H  H12  1  0.63622454  0.97037196  0.89603450  1  0.112208  -0.000114  0.949089  0.0  0.123334  9.8e-05  1.006156  0.0  0.125685  1.9e-05  1.00525  0.0  0.123104  0.121706  0.000172  1.006905  0.0
H  H13  1  0.36377391  0.02962871  0.10396476  1  0.11223  -0.000114  0.949103  0.0  0.123323  9.8e-05  1.006187  0.0  0.125677  1.9e-05  1.005281  0.0  0.123093  0.121696  0.000172  1.006938  0.0
H  H14  1  0.85293700  0.88557762  0.06689703  1  0.102577  0.00015  1.007804  0.0  0.110685  0.000308  1.073719  0.0  0.112084  0.000203  1.074777  0.0  0.112723  0.109612  0.000435  1.073212  0.0
H  H15  1  0.14705880  0.11442185  0.93310372  1  0.102575  0.000155  1.007779  0.0  0.110678  0.000308  1.073699  0.0  0.112076  0.000204  1.07476  0.0  0.11272  0.109605  0.000435  1.073187  0.0
H  H16  1  0.11243946  0.76545949  0.95639644  1  0.11057  -2.3e-05  0.949239  0.0  0.122301  5e-06  1.009581  0.0  0.124866  -1.5e-05  1.008815  0.0  0.108137  0.120476  2.7e-05  1.010217  0.0
H  H17  1  0.88755984  0.23453993  0.04360163  1  0.11058  -2.8e-05  0.949173  0.0  0.122325  5e-06  1.00951  0.0  0.12489  -1.5e-05  1.008743  0.0  0.108145  0.120497  2.7e-05  1.010146  0.0
H  H18  1  0.61888892  0.26846296  0.00577675  1  0.119658  -0.000139  0.941431  0.0  0.142272  -0.000169  0.999268  0.0  0.143816  -0.000171  0.999051  0.0  0.095715  0.141105  -0.000167  0.999504  0.0
H  H19  1  0.38111120  0.73153525  0.99422406  1  0.119684  -0.000132  0.941418  0.0  0.142296  -0.000169  0.999256  0.0  0.143844  -0.000171  0.999035  0.0  0.095732  0.141129  -0.000167  0.999493  0.0
H  H20  1  0.60894827  0.27987872  0.83436528  1  0.125212  -0.00022  0.949509  0.0  0.147227  -0.000194  1.010142  0.0  0.148037  -0.000233  1.010593  0.0  0.098588  0.146501  -0.000159  1.009949  0.0
H  H21  1  0.39104889  0.72011704  0.16563476  1  0.125195  -0.000223  0.949538  0.0  0.14721  -0.000194  1.010174  0.0  0.148018  -0.000233  1.010629  0.0  0.098578  0.146484  -0.000159  1.009984  0.0
H  H22  1  0.58600537  0.44669313  0.96742551  1  0.107842  -1.4e-05  0.968779  0.0  0.127501  4e-06  1.032062  0.0  0.129137  -4e-06  1.031614  0.0  0.091297  0.126285  1.2e-05  1.032367  0.0
H  H23  1  0.41399441  0.55330385  0.03257696  1  0.107832  -1.1e-05  0.968788  0.0  0.127506  4e-06  1.032047  0.0  0.129144  -4e-06  1.031599  0.0  0.091301  0.12629  1.2e-05  1.032352  0.0
C  C24  1  0.26991737  0.87824054  0.38615862  1  0.67817  0.013077  3.892443  0.014  0.624471  0.020368  4.186352  0.02  0.660367  0.015659  4.179643  0.016  0.22523  0.599327  0.025537  4.190015  0.024
C  C25  1  0.73007980  0.12175521  0.61384044  1  0.678348  0.013078  3.892234  0.014  0.624692  0.020366  4.186061  0.02  0.660588  0.015658  4.179353  0.016  0.22537  0.599545  0.025536  4.189724  0.024
C  C26  1  0.09291841  0.86238147  0.35343255  1  -0.089676  -0.00433  3.752496  -0.003  -0.061592  -0.002171  3.991492  -0.001  -0.073712  -0.003263  4.015343  -0.002  -0.018061  -0.054054  -0.001784  3.976268  -0.001
C  C27  1  0.90708297  0.13762167  0.64657043  1  -0.089896  -0.004332  3.752626  -0.003  -0.061819  -0.002169  3.991609  -0.001  -0.073942  -0.003266  4.015462  -0.002  -0.018113  -0.054281  -0.001783  3.976382  -0.001
C  C28  1  0.03918990  0.99226615  0.32648622  1  -0.0416  0.007006  3.665806  0.006  -0.083197  0.007837  3.917476  0.006  -0.076726  0.006422  3.934676  0.005  -0.067595  -0.087235  0.010664  3.90603  0.008
C  C29  1  0.96081054  0.00773327  0.67351292  1  -0.041507  0.006939  3.665783  0.006  -0.083084  0.007839  3.917465  0.006  -0.076608  0.006423  3.934661  0.005  -0.067597  -0.087121  0.010662  3.90601  0.008
C  C30  1  0.98189514  0.72412709  0.36534466  1  -0.032137  0.007064  3.661274  0.006  -0.077669  0.008412  3.919668  0.007  -0.070552  0.006735  3.934734  0.006  -0.065648  -0.082443  0.011686  3.910067  0.009
C  C31  1  0.01810909  0.27587355  0.63465602  1  -0.031971  0.007102  3.661318  0.006  -0.077505  0.008409  3.919696  0.007  -0.07039  0.006736  3.934764  0.006  -0.065608  -0.08228  0.011684  3.910095  0.009
C  C32  1  0.87451170  0.98359591  0.31137957  1  -0.104958  -0.005916  3.803377  -0.004  -0.07404  -0.003648  4.036784  -0.003  -0.086717  -0.004477  4.059615  -0.003  -0.021487  -0.065937  -0.003292  4.022317  -0.003
C  C33  1  0.12548905  0.01640476  0.68862183  1  -0.105025  -0.005909  3.803328  -0.004  -0.074135  -0.003647  4.03678  -0.003  -0.086808  -0.004479  4.059604  -0.003  -0.021502  -0.066031  -0.003292  4.022309  -0.003
C  C34  1  0.81850950  0.71856927  0.35612996  1  -0.081409  -0.00468  3.758406  -0.003  -0.052988  -0.001839  3.997432  -0.001  -0.064024  -0.003052  4.018909  -0.002  -0.016668  -0.046103  -0.001297  3.983616  -0.001
C  C35  1  0.18149358  0.28143137  0.64386965  1  -0.081567  -0.004709  3.758573  -0.003  -0.053127  -0.001837  3.997614  -0.001  -0.064163  -0.003055  4.019093  -0.002  -0.016728  -0.046243  -0.001296  3.983799  -0.001
C  C36  1  0.76482162  0.84728532  0.32705049  1  -0.041926  0.006179  3.668478  0.006  -0.084294  0.006814  3.918987  0.006  -0.077883  0.005623  3.934172  0.005  -0.064216  -0.08909  0.009785  3.909824  0.008
C  C37  1  0.23517999  0.15271408  0.67294776  1  -0.041749  0.006195  3.668321  0.006  -0.084151  0.006812  3.918841  0.006  -0.077741  0.005625  3.934026  0.005  -0.064174  -0.08895  0.009783  3.909677  0.008
C  C38  1  0.80974682  0.12145251  0.29324575  1  0.656695  0.010958  3.796438  0.011  0.602206  0.017691  4.09243  0.016  0.638577  0.01323  4.081996  0.012  0.234447  0.57632  0.023511  4.100297  0.021
C  C39  1  0.19025478  0.87854691  0.70675446  1  0.656785  0.010958  3.796504  0.011  0.602327  0.017684  4.092433  0.016  0.638695  0.013227  4.082  0.012  0.234502  0.57644  0.023503  4.100297  0.02
C  C40  1  0.70031405  0.58847262  0.39262278  1  0.688636  0.01031  3.853393  0.011  0.633747  0.0166  4.143642  0.015  0.669865  0.012546  4.136072  0.012  0.232726  0.608604  0.020791  4.147682  0.019
C  C41  1  0.29968472  0.41152927  0.60737482  1  0.688523  0.010334  3.853472  0.011  0.633624  0.016604  4.143731  0.015  0.669736  0.012549  4.136169  0.012  0.232694  0.60848  0.020796  4.147772  0.019
C  C42  1  0.70273951  0.61680482  0.77095579  1  0.186671  0.004856  3.591142  0.005  0.127417  0.006537  3.857016  0.007  0.142074  0.005693  3.867513  0.006  0.152938  0.117765  0.007415  3.84962  0.007
C  C43  1  0.29725860  0.38319464  0.22904612  1  0.186641  0.004865  3.591144  0.005  0.127332  0.006537  3.857025  0.007  0.14199  0.005693  3.867522  0.006  0.152922  0.117681  0.007415  3.849631  0.007
C  C44  1  0.68074135  0.86114362  0.87985478  1  -0.000211  0.001447  3.76248  0.002  -0.032509  0.002886  4.030014  0.003  -0.030739  0.002394  4.050091  0.003  -0.000589  -0.033833  0.003351  4.016195  0.003
C  C45  1  0.31925708  0.13885707  0.12014644  1  -0.0003  0.00145  3.762596  0.002  -0.03256  0.002885  4.030109  0.003  -0.030794  0.002394  4.050188  0.003  -0.000608  -0.033886  0.003351  4.016296  0.003
C  C46  1  0.78786823  0.82263550  0.96449805  1  -0.070583  -0.000703  3.685229  0.0  -0.10847  0.00023  3.939899  0.0  -0.108154  -0.000349  3.960898  0.0  -0.005898  -0.108357  0.000723  3.925425  0.001
C  C47  1  0.21212756  0.17736397  0.03550369  1  -0.070512  -0.000722  3.685236  0.0  -0.108396  0.00023  3.939886  0.0  -0.108078  -0.000349  3.960884  0.0  -0.00584  -0.108279  0.000723  3.92541  0.001
C  C48  1  0.89920161  0.57839303  0.94691648  1  0.118125  0.000491  3.745816  0.0  0.104903  0.000714  3.995355  0.001  0.108436  0.00053  4.018947  0.0  0.092323  0.102541  0.000971  3.979336  0.001
C  C49  1  0.10079799  0.42160763  0.05308287  1  0.118145  0.000481  3.745803  0.0  0.104914  0.000714  3.995352  0.001  0.108447  0.000528  4.018945  0.0  0.092325  0.102552  0.000971  3.979333  0.001
C  C50  1  0.06455652  0.64913246  0.97738621  1  -0.179829  9e-05  3.723354  0.0  -0.208856  0.000293  3.978494  0.0  -0.212557  0.000177  3.999762  0.0  -0.088473  -0.206283  0.000444  3.964268  0.0
C  C51  1  0.93544424  0.35086819  0.02261225  1  -0.179806  0.000118  3.723252  0.0  -0.208843  0.000291  3.978399  0.0  -0.212544  0.000179  3.999669  0.0  -0.088447  -0.206268  0.000444  3.964169  0.0
C  C52  1  0.82981761  0.42715159  0.96937076  1  0.095556  7.9e-05  3.741842  0.0  0.11334  0.000278  3.988915  0.0  0.112621  0.000159  4.013735  0.0  -0.003961  0.113682  0.000381  3.972109  0.0
C  C53  1  0.17018201  0.57284906  0.03062663  1  0.095581  9.8e-05  3.741915  0.0  0.113366  0.000277  3.98898  0.0  0.112649  0.000161  4.013801  0.0  -0.003928  0.113707  0.000381  3.972179  0.0
C  C54  1  0.65178730  0.35133725  0.94272077  1  -0.330473  -5.8e-05  3.704858  0.0  -0.412798  -3e-05  3.940461  0.0  -0.414893  -6.9e-05  3.95004  0.0  -0.237902  -0.410921  3.1e-05  3.933816  0.0
C  C55  1  0.34821282  0.64866095  0.05728004  1  -0.33048  -6.9e-05  3.704924  0.0  -0.412803  -3e-05  3.940515  0.0  -0.414901  -6.9e-05  3.95009  0.0  -0.237906  -0.410925  3.1e-05  3.933873  0.0
N  N56  1  0.62916230  0.73253302  0.75936762  1  -0.398573  0.025762  3.240804  0.01  -0.33347  0.028287  3.53677  0.008  -0.354329  0.025683  3.549316  0.006  -0.343549  -0.318159  0.030691  3.527727  0.01
N  N57  1  0.37083582  0.26746643  0.24063331  1  -0.398549  0.025759  3.240811  0.01  -0.333446  0.028289  3.536791  0.008  -0.354304  0.025682  3.549338  0.006  -0.343563  -0.318137  0.030691  3.527755  0.01
N  N58  1  0.80010734  0.66679549  0.89489112  1  -0.090839  0.001109  3.601522  0.001  0.001512  0.002188  3.809986  0.002  -0.013533  0.001712  3.835924  0.002  -0.227096  0.01165  0.002628  3.792045  0.002
N  N59  1  0.19988961  0.33320397  0.10510972  1  -0.090818  0.001109  3.601406  0.001  0.00154  0.002188  3.809873  0.002  -0.013504  0.001712  3.835812  0.002  -0.227086  0.01168  0.002628  3.791932  0.002
O  O60  1  0.36891873  0.00048102  0.37026300  1  -0.653077  0.034363  2.090076  0.021  -0.593055  0.044964  2.377118  0.028  -0.622194  0.039203  2.360826  0.022  -0.306642  -0.571248  0.051238  2.387834  0.034
O  O61  1  0.63108118  0.99952088  0.62973763  1  -0.65312  0.034354  2.090175  0.021  -0.593086  0.044965  2.377156  0.028  -0.622219  0.039204  2.360858  0.022  -0.306679  -0.571297  0.051239  2.387916  0.034
O  O62  1  0.30743126  0.76541405  0.43042109  1  -0.662153  0.032499  2.069686  0.02  -0.596362  0.039958  2.343231  0.024  -0.626667  0.03518  2.328631  0.02  -0.316105  -0.573423  0.044925  2.352397  0.029
O  O63  1  0.69257394  0.23459026  0.56957754  1  -0.662233  0.03251  2.069463  0.02  -0.596467  0.039958  2.343001  0.024  -0.626774  0.035181  2.328402  0.02  -0.316189  -0.573528  0.044925  2.35217  0.029
O  O64  1  0.91750047  0.26545892  0.31897799  1  -0.540482  0.002166  2.077581  0.003  -0.490546  0.005492  2.302785  0.006  -0.512372  0.00372  2.28797  0.005  -0.322812  -0.475864  0.007666  2.313272  0.008
O  O65  1  0.08250029  0.73454174  0.68102145  1  -0.540523  0.00217  2.077572  0.003  -0.490548  0.005491  2.302779  0.006  -0.512373  0.003719  2.287967  0.005  -0.322817  -0.475865  0.007663  2.313262  0.008
O  O66  1  0.66291741  0.10324563  0.26130439  1  -0.585882  0.012585  2.017631  0.001  -0.533664  0.017634  2.269031  0.003  -0.55698  0.015846  2.255628  0.002  -0.283677  -0.517388  0.019348  2.27862  0.004
O  O67  1  0.33708133  0.89675630  0.73869811  1  -0.585913  0.012584  2.017746  0.001  -0.533704  0.017637  2.269137  0.003  -0.557021  0.015847  2.255735  0.002  -0.283677  -0.517428  0.019351  2.278725  0.004
O  O68  1  0.72859967  0.44862618  0.38480485  1  -0.651583  0.027745  2.081084  0.019  -0.585312  0.038287  2.332972  0.028  -0.615017  0.033553  2.319708  0.024  -0.293349  -0.563461  0.043066  2.341227  0.033
O  O69  1  0.27140250  0.55137070  0.61518604  1  -0.651526  0.027731  2.081248  0.019  -0.585215  0.038286  2.333145  0.028  -0.614905  0.03355  2.319877  0.024  -0.293344  -0.563364  0.043064  2.3414  0.033
O  O70  1  0.57435526  0.62401015  0.43159254  1  -0.653157  0.033794  2.125675  0.018  -0.59099  0.043519  2.413624  0.023  -0.621215  0.038289  2.39781  0.018  -0.300472  -0.568167  0.048961  2.423656  0.028
O  O71  1  0.42564572  0.37598678  0.56840316  1  -0.653113  0.033795  2.125491  0.018  -0.59095  0.04352  2.413417  0.023  -0.621178  0.03829  2.397613  0.018  -0.300459  -0.568127  0.048963  2.42345  0.028
