# generated using pymatgen
data_Cs2CaH8(CO3)4
_symmetry_space_group_name_H-M   'P 1'
_cell_length_a   7.65660067
_cell_length_b   9.42796675
_cell_length_c   11.34744740
_cell_angle_alpha   84.77503323
_cell_angle_beta   70.28836885
_cell_angle_gamma   66.08466960
_symmetry_Int_Tables_number   1
_chemical_formula_structural   Cs2CaH8(CO3)4
_chemical_formula_sum   'Cs4 Ca2 H16 C8 O24'
_cell_volume   703.93156116
_cell_formula_units_Z   2
loop_
 _symmetry_equiv_pos_site_id
 _symmetry_equiv_pos_as_xyz
  1  'x, y, z'
loop_
 _atom_site_type_symbol
 _atom_site_label
 _atom_site_symmetry_multiplicity
 _atom_site_fract_x
 _atom_site_fract_y
 _atom_site_fract_z
 _atom_site_occupancy
 _atom_site_hle17_bader_spin_density
 _atom_site_hle17_ddec_charge
 _atom_site_hle17_ddec_spin_density
 _atom_site_hle17_ddec_sum_bond_order
 _atom_site_hle17_magmom
 _atom_site_hse06_10hf_bader_spin_density
 _atom_site_hse06_10hf_ddec_charge
 _atom_site_hse06_10hf_ddec_spin_density
 _atom_site_hse06_10hf_ddec_sum_bond_order
 _atom_site_hse06_10hf_magmom
 _atom_site_hse06_bader_spin_density
 _atom_site_hse06_ddec_charge
 _atom_site_hse06_ddec_spin_density
 _atom_site_hse06_ddec_sum_bond_order
 _atom_site_hse06_magmom
 _atom_site_pbe_bader_spin_density
 _atom_site_pbe_cm5_charge
 _atom_site_pbe_ddec_charge
 _atom_site_pbe_ddec_spin_density
 _atom_site_pbe_ddec_sum_bond_order
 _atom_site_pbe_magmom
Cs  Cs0  1  0.82383477  0.79879748  0.90156886  1  0  0.974269  0  0.486809  0  0  0.925108  0  0.691662  0  0  0.941476  0  0.668388  0  0  0.843703  0.913043  0  0.70823  0
Cs  Cs1  1  0.52373617  0.70119546  0.59855310  1  0  0.974322  0  0.487308  0  0  0.925511  0  0.691968  0  0  0.941875  0  0.668691  0  0  0.844684  0.91304  0  0.708968  0
Cs  Cs2  1  0.17616968  0.20120570  0.09843097  1  0  0.974269  0  0.486797  0  0  0.925096  0  0.691668  0  0  0.941472  0  0.668385  0  0  0.843708  0.913034  0  0.708234  0
Cs  Cs3  1  0.47626877  0.29880204  0.40145046  1  0  0.974315  0  0.487294  0  0  0.925511  0  0.691944  0  0  0.941877  0  0.66867  0  0  0.844684  0.913041  0  0.708943  0
Ca  Ca4  1  0.64950388  0.25006276  0.74980333  1  0  1.515847  0  1.166517  0  0  1.39551  0  1.512837  0  0  1.437781  0  1.47097  0  0  0.885362  1.363751  0  1.542569  0
Ca  Ca5  1  0.35050046  0.74993591  0.25020026  1  0  1.515883  0  1.16648  0  0  1.395573  0  1.512763  0  0  1.437843  0  1.4709  0  0  0.88537  1.363816  0  1.542493  0
H  H6  1  0.78851617  0.04045018  0.13734411  1  0  0.401731  0  0.918235  0  0  0.369221  0  0.986654  0  0  0.381234  0  0.968991  0  0  0.287451  0.360751  0  0.999084  0
H  H7  1  0.96647226  0.45965350  0.36258187  1  0  0.401911  0  0.918173  0  0  0.369418  0  0.986488  0  0  0.381422  0  0.968844  0  0  0.287397  0.360982  0  0.998851  0
H  H8  1  0.21148397  0.95955295  0.86265449  1  0  0.401646  0  0.918357  0  0  0.36917  0  0.986747  0  0  0.381188  0  0.969078  0  0  0.287432  0.360699  0  0.999179  0
H  H9  1  0.03352393  0.54035438  0.63741978  1  0  0.401944  0  0.918111  0  0  0.369441  0  0.986442  0  0  0.381445  0  0.968796  0  0  0.287421  0.361004  0  0.998806  0
H  H10  1  0.89010449  0.91783241  0.22252735  1  0  0.413805  0  0.892552  0  0  0.384522  0  0.954195  0  0  0.39501  0  0.938939  0  0  0.297755  0.377268  0  0.964727  0
H  H11  1  0.03024247  0.58237244  0.27739841  1  0  0.414009  0  0.892518  0  0  0.384922  0  0.953937  0  0  0.395383  0  0.938698  0  0  0.297702  0.377521  0  0.964688  0
H  H12  1  0.10988962  0.08216131  0.77746801  1  0  0.413875  0  0.892417  0  0  0.384544  0  0.954111  0  0  0.395029  0  0.938861  0  0  0.297788  0.377288  0  0.964643  0
H  H13  1  0.96975797  0.41762840  0.72260104  1  0  0.413974  0  0.892563  0  0  0.384884  0  0.95399  0  0  0.395345  0  0.938751  0  0  0.297702  0.377484  0  0.964739  0
H  H14  1  0.40504213  0.06153826  0.77104229  1  0  0.429124  0  0.880049  0  0  0.398481  0  0.942977  0  0  0.410496  0  0.925391  0  0  0.293389  0.390003  0  0.955333  0
H  H15  1  0.23771882  0.43845238  0.72898190  1  0  0.428207  0  0.881212  0  0  0.397369  0  0.944574  0  0  0.40938  0  0.927003  0  0  0.292862  0.388846  0  0.957024  0
H  H16  1  0.59495047  0.93846821  0.22895247  1  0  0.429011  0  0.880228  0  0  0.398383  0  0.943127  0  0  0.410397  0  0.925543  0  0  0.293351  0.389906  0  0.955484  0
H  H17  1  0.76228426  0.56154624  0.27102019  1  0  0.428142  0  0.881287  0  0  0.397304  0  0.944654  0  0  0.409315  0  0.927084  0  0  0.292838  0.388781  0  0.957106  0
H  H18  1  0.61379358  0.00350138  0.65150487  1  0  0.421795  0  0.890591  0  0  0.38894  0  0.959208  0  0  0.400609  0  0.942132  0  0  0.295441  0.380674  0  0.971286  0
H  H19  1  0.26925929  0.49633366  0.84850175  1  0  0.422029  0  0.890289  0  0  0.388962  0  0.95922  0  0  0.400674  0  0.942098  0  0  0.295336  0.380669  0  0.971315  0
H  H20  1  0.38620314  0.99649826  0.34849332  1  0  0.421838  0  0.890515  0  0  0.388988  0  0.959126  0  0  0.400658  0  0.942047  0  0  0.295437  0.380722  0  0.971204  0
H  H21  1  0.73073997  0.50366608  0.15149944  1  0  0.422045  0  0.890282  0  0  0.388978  0  0.959213  0  0  0.400688  0  0.942094  0  0  0.295348  0.380684  0  0.971309  0
C  C22  1  0.97731621  0.24039462  0.48859816  1  0  0.566289  0  3.933935  0  0  0.521625  0  4.236935  0  0  0.551599  0  4.2281  0  0  0.211586  0.501189  0  4.242368  0
C  C23  1  0.70577646  0.25968212  0.01123945  1  0  0.564186  0  3.930126  0  0  0.519596  0  4.233216  0  0  0.549611  0  4.224273  0  0  0.210486  0.499153  0  4.238731  0
C  C24  1  0.02267532  0.75961185  0.51139630  1  0  0.56633  0  3.933853  0  0  0.521677  0  4.236866  0  0  0.551652  0  4.228021  0  0  0.211649  0.50124  0  4.242302  0
C  C25  1  0.29421432  0.74032829  0.98876787  1  0  0.564011  0  3.930127  0  0  0.519368  0  4.233309  0  0  0.549379  0  4.224368  0  0  0.210414  0.498925  0  4.238823  0
C  C26  1  0.09528246  0.10412533  0.55879413  1  0  0.554139  0  3.915847  0  0  0.507991  0  4.218347  0  0  0.536683  0  4.210903  0  0  0.213294  0.488533  0  4.222752  0
C  C27  1  0.75783431  0.39608034  0.94123901  1  0  0.554789  0  3.910469  0  0  0.508758  0  4.212812  0  0  0.537401  0  4.205384  0  0  0.213093  0.489238  0  4.21732  0
C  C28  1  0.90470860  0.89586627  0.44120681  1  0  0.554314  0  3.915704  0  0  0.508122  0  4.218292  0  0  0.536817  0  4.210843  0  0  0.213459  0.488664  0  4.222702  0
C  C29  1  0.24217369  0.60391245  0.05876238  1  0  0.554968  0  3.910525  0  0  0.508958  0  4.212837  0  0  0.537603  0  4.205411  0  0  0.213219  0.489438  0  4.217346  0
O  O30  1  0.78664133  0.30895754  0.54148183  1  0  -0.724978  0  1.998232  0  0  -0.672676  0  2.242136  0  0  -0.698796  0  2.233515  0  0  -0.431059  -0.653978  0  2.247512  0
O  O31  1  0.63689936  0.19101168  0.95805518  1  0  -0.724636  0  1.99652  0  0  -0.672185  0  2.240223  0  0  -0.698299  0  2.231563  0  0  -0.430956  -0.653539  0  2.245596  0
O  O32  1  0.21336615  0.69104220  0.45851943  1  0  -0.72504  0  1.998132  0  0  -0.672728  0  2.242005  0  0  -0.698862  0  2.233409  0  0  -0.431089  -0.65403  0  2.247381  0
O  O33  1  0.36310727  0.80898339  0.04194506  1  0  -0.724597  0  1.99668  0  0  -0.672149  0  2.240453  0  0  -0.69827  0  2.231816  0  0  -0.430976  -0.653499  0  2.245813  0
O  O34  1  0.08035583  0.27450545  0.38630588  1  0  -0.667965  0  2.079754  0  0  -0.616457  0  2.310953  0  0  -0.640366  0  2.301506  0  0  -0.407876  -0.599854  0  2.316996  0
O  O35  1  0.74032513  0.22556190  0.11362070  1  0  -0.666675  0  2.078064  0  0  -0.615241  0  2.309222  0  0  -0.63914  0  2.299757  0  0  -0.406889  -0.598596  0  2.315536  0
O  O36  1  0.91964410  0.72549893  0.61369513  1  0  -0.668032  0  2.07972  0  0  -0.616519  0  2.310919  0  0  -0.640426  0  2.301469  0  0  -0.407935  -0.599916  0  2.316963  0
O  O37  1  0.25968776  0.77443662  0.88637848  1  0  -0.666618  0  2.078016  0  0  -0.615179  0  2.309212  0  0  -0.639079  0  2.299749  0  0  -0.40687  -0.598533  0  2.315524  0
O  O38  1  0.28045810  0.02563402  0.50567381  1  0  -0.628042  0  2.054814  0  0  -0.58046  0  2.287636  0  0  -0.603106  0  2.279537  0  0  -0.370749  -0.564594  0  2.292792  0
O  O39  1  0.81148065  0.47447177  0.99451793  1  0  -0.62781  0  2.052508  0  0  -0.580148  0  2.285356  0  0  -0.602764  0  2.277192  0  0  -0.37046  -0.564382  0  2.290754  0
O  O40  1  0.71953483  0.97436203  0.49432159  1  0  -0.628033  0  2.054902  0  0  -0.580432  0  2.287747  0  0  -0.603078  0  2.279648  0  0  -0.370711  -0.564565  0  2.292905  0
O  O41  1  0.18851534  0.52553394  0.00548784  1  0  -0.627831  0  2.052792  0  0  -0.580179  0  2.285647  0  0  -0.602798  0  2.277481  0  0  -0.370485  -0.564405  0  2.291027  0
O  O42  1  0.99225074  0.08462526  0.66957476  1  0  -0.692715  0  2.026411  0  0  -0.631923  0  2.261146  0  0  -0.658631  0  2.252593  0  0  -0.373398  -0.613215  0  2.26645  0
O  O43  1  0.74621221  0.41576083  0.83042779  1  0  -0.692169  0  2.023112  0  0  -0.631688  0  2.258079  0  0  -0.658349  0  2.249496  0  0  -0.372732  -0.612715  0  2.263421  0
O  O44  1  0.00775488  0.91535780  0.33041419  1  0  -0.692818  0  2.0261  0  0  -0.632023  0  2.260847  0  0  -0.658734  0  2.252288  0  0  -0.373578  -0.613317  0  2.266156  0
O  O45  1  0.25378349  0.58424033  0.16958054  1  0  -0.692298  0  2.023227  0  0  -0.63181  0  2.25817  0  0  -0.658472  0  2.249591  0  0  -0.372808  -0.612837  0  2.263514  0
O  O46  1  0.82169289  0.92888060  0.15965383  1  0  -0.851946  0  1.828348  0  0  -0.797339  0  1.985877  0  0  -0.817932  0  1.954611  0  0  -0.618702  -0.782858  0  2.007294  0
O  O47  1  0.91013051  0.57116874  0.34029555  1  0  -0.852129  0  1.828745  0  0  -0.79778  0  1.98625  0  0  -0.818256  0  1.954958  0  0  -0.618054  -0.783203  0  2.008121  0
O  O48  1  0.17830471  0.07111900  0.84034348  1  0  -0.851929  0  1.828339  0  0  -0.797301  0  1.985904  0  0  -0.817898  0  1.954634  0  0  -0.618689  -0.782818  0  2.007325  0
O  O49  1  0.08986864  0.42883334  0.65970599  1  0  -0.852145  0  1.828716  0  0  -0.797792  0  1.986232  0  0  -0.818269  0  1.954941  0  0  -0.618072  -0.783215  0  2.008096  0
O  O50  1  0.55104847  0.04952640  0.73941703  1  0  -0.953775  0  1.790373  0  0  -0.895263  0  1.975445  0  0  -0.917696  0  1.941662  0  0  -0.684297  -0.879181  0  1.998991  0
O  O51  1  0.34025138  0.45034138  0.76055245  1  0  -0.953575  0  1.790712  0  0  -0.894732  0  1.975996  0  0  -0.917246  0  1.942148  0  0  -0.684358  -0.878511  0  1.999649  0
O  O52  1  0.44895138  0.95047774  0.26057714  1  0  -0.953709  0  1.790469  0  0  -0.895211  0  1.975527  0  0  -0.917643  0  1.941744  0  0  -0.684246  -0.87913  0  1.999068  0
O  O53  1  0.65975073  0.54965147  0.23945068  1  0  -0.953552  0  1.790711  0  0  -0.894719  0  1.975994  0  0  -0.917231  0  1.942149  0  0  -0.684372  -0.878496  0  1.99965  0
