# generated using pymatgen
data_LaAgH6C14(NO4)2
_symmetry_space_group_name_H-M   'P 1'
_cell_length_a   7.44276551
_cell_length_b   10.32836058
_cell_length_c   11.60954441
_cell_angle_alpha   98.34879893
_cell_angle_beta   101.07925517
_cell_angle_gamma   95.83933333
_symmetry_Int_Tables_number   1
_chemical_formula_structural   LaAgH6C14(NO4)2
_chemical_formula_sum   'La2 Ag2 H12 C28 N4 O16'
_cell_volume   858.77068981
_cell_formula_units_Z   2
loop_
 _symmetry_equiv_pos_site_id
 _symmetry_equiv_pos_as_xyz
  1  'x, y, z'
loop_
 _atom_site_type_symbol
 _atom_site_label
 _atom_site_symmetry_multiplicity
 _atom_site_fract_x
 _atom_site_fract_y
 _atom_site_fract_z
 _atom_site_occupancy
 _atom_site_hle17_bader_spin_density
 _atom_site_hle17_ddec_charge
 _atom_site_hle17_ddec_spin_density
 _atom_site_hle17_ddec_sum_bond_order
 _atom_site_hle17_magmom
 _atom_site_hse06_10hf_bader_spin_density
 _atom_site_hse06_10hf_ddec_charge
 _atom_site_hse06_10hf_ddec_spin_density
 _atom_site_hse06_10hf_ddec_sum_bond_order
 _atom_site_hse06_10hf_magmom
 _atom_site_hse06_bader_spin_density
 _atom_site_hse06_ddec_charge
 _atom_site_hse06_ddec_spin_density
 _atom_site_hse06_ddec_sum_bond_order
 _atom_site_hse06_magmom
 _atom_site_pbe_bader_spin_density
 _atom_site_pbe_cm5_charge
 _atom_site_pbe_ddec_charge
 _atom_site_pbe_ddec_spin_density
 _atom_site_pbe_ddec_sum_bond_order
 _atom_site_pbe_magmom
La  La0  1  0.26082518  0.47146807  0.07330407  1  0  2.091171  0  1.78473  0  0  1.975283  0  2.286255  0  0  2.076936  0  2.192364  0  0  1.41575  1.899319  0  2.351044  0
La  La1  1  0.73917576  0.52852985  0.92669728  1  0  2.091172  0  1.784754  0  0  1.975337  0  2.286192  0  0  2.076986  0  2.192307  0  0  1.415775  1.899365  0  2.350994  0
Ag  Ag2  1  0.28884410  0.76287879  0.69946330  1  0  0.54146  0  1.322465  0  0  0.383555  0  1.733159  0  0  0.417161  0  1.689722  0  0  0.473859  0.360433  0  1.762662  0
Ag  Ag3  1  0.71115317  0.23712106  0.30054050  1  0  0.541446  0  1.322429  0  0  0.383504  0  1.733141  0  0  0.417105  0  1.689701  0  0  0.473843  0.360379  0  1.762647  0
H  H4  1  0.58281605  0.62552844  0.53474785  1  0  0.109456  0  0.950844  0  0  0.119104  0  1.013911  0  0  0.122628  0  1.012656  0  0  0.108234  0.116415  0  1.015239  0
H  H5  1  0.41718865  0.37447445  0.46525301  1  0  0.109425  0  0.950836  0  0  0.119081  0  1.013905  0  0  0.1226  0  1.012655  0  0  0.108226  0.116391  0  1.015235  0
H  H6  1  0.87420166  0.69969493  0.68689873  1  0  0.089185  0  0.963266  0  0  0.095067  0  1.033317  0  0  0.098331  0  1.029547  0  0  0.121411  0.092686  0  1.036046  0
H  H7  1  0.12580548  0.30029992  0.31310373  1  0  0.089152  0  0.963321  0  0  0.094997  0  1.033398  0  0  0.098252  0  1.029638  0  0  0.121401  0.092617  0  1.036128  0
H  H8  1  0.19252496  0.65358721  0.43037436  1  0  0.092363  0  0.9296  0  0  0.10199  0  0.991903  0  0  0.105303  0  0.988379  0  0  0.122897  0.099501  0  0.994616  0
H  H9  1  0.80748049  0.34641260  0.56962868  1  0  0.092306  0  0.929566  0  0  0.101925  0  0.991883  0  0  0.105238  0  0.98836  0  0  0.122862  0.099432  0  0.9946  0
H  H10  1  0.27657217  0.02708065  0.84112861  1  0  0.089737  0  0.931376  0  0  0.098293  0  0.996446  0  0  0.101921  0  0.992057  0  0  0.122375  0.09552  0  0.999833  0
H  H11  1  0.72342077  0.97291842  0.15887025  1  0  0.089699  0  0.93144  0  0  0.098264  0  0.996505  0  0  0.10189  0  0.99211  0  0  0.122315  0.095492  0  0.99989  0
H  H12  1  0.72333501  0.84287393  0.76964057  1  0  0.080034  0  0.944316  0  0  0.090876  0  1.007305  0  0  0.092665  0  1.005119  0  0  0.122799  0.089437  0  1.00916  0
H  H13  1  0.27665320  0.15712227  0.23035641  1  0  0.080042  0  0.944339  0  0  0.090863  0  1.007326  0  0  0.092658  0  1.005135  0  0  0.122789  0.089424  0  1.009182  0
H  H14  1  0.94662250  0.02840124  0.89338978  1  0  0.123411  0  0.935634  0  0  0.134248  0  0.993981  0  0  0.137755  0  0.992798  0  0  0.116951  0.131574  0  0.995265  0
H  H15  1  0.05337527  0.97159487  0.10660746  1  0  0.123436  0  0.935674  0  0  0.134278  0  0.994011  0  0  0.137782  0  0.992829  0  0  0.116957  0.131607  0  0.995295  0
C  C16  1  0.55232396  0.54746188  0.29387131  1  0  0.649204  0  3.934431  0  0  0.603081  0  4.233377  0  0  0.637513  0  4.226095  0  0  0.200605  0.579402  0  4.237457  0
C  C17  1  0.44768293  0.45254503  0.70612786  1  0  0.649363  0  3.93435  0  0  0.603275  0  4.233243  0  0  0.637715  0  4.225943  0  0  0.200676  0.579591  0  4.237322  0
C  C18  1  0.72563981  0.59372026  0.38803403  1  0  0.020116  0  3.674913  0  0  0.027705  0  3.908325  0  0  0.031658  0  3.923178  0  0  0.019202  0.024872  0  3.89874  0
C  C19  1  0.27436256  0.40628476  0.61196343  1  0  0.020032  0  3.675155  0  0  0.027677  0  3.908455  0  0  0.031627  0  3.923307  0  0  0.019196  0.024846  0  3.898866  0
C  C20  1  0.71492033  0.63088179  0.50702907  1  0  -0.138846  0  3.700092  0  0  -0.155144  0  3.944953  0  0  -0.163673  0  3.965427  0  0  -0.079841  -0.149699  0  3.931667  0
C  C21  1  0.28508478  0.36912316  0.49296957  1  0  -0.138752  0  3.700286  0  0  -0.155094  0  3.945113  0  0  -0.16362  0  3.965592  0  0  -0.079829  -0.149648  0  3.931826  0
C  C22  1  0.87588121  0.67404197  0.59283566  1  0  0.140064  0  3.683759  0  0  0.103148  0  3.936642  0  0  0.112748  0  3.953324  0  0  0.049484  0.096794  0  3.925423  0
C  C23  1  0.12412485  0.32596099  0.40716278  1  0  0.140118  0  3.683803  0  0  0.103244  0  3.93667  0  0  0.112846  0  3.95334  0  0  0.049563  0.096886  0  3.925457  0
C  C24  1  0.05573594  0.64695682  0.45139646  1  0  0.116982  0  3.688487  0  0  0.075929  0  3.933227  0  0  0.085057  0  3.95098  0  0  0.050628  0.069624  0  3.922092  0
C  C25  1  0.94427422  0.35304599  0.54860503  1  0  0.117041  0  3.688468  0  0  0.076009  0  3.933166  0  0  0.085129  0  3.950919  0  0  0.050657  0.069723  0  3.921997  0
C  C26  1  0.90142986  0.60071248  0.36014425  1  0  -0.119159  0  3.697162  0  0  -0.10304  0  3.93005  0  0  -0.113617  0  3.949251  0  0  -0.005476  -0.096575  0  3.91778  0
C  C27  1  0.09857840  0.39929429  0.63985850  1  0  -0.119097  0  3.697398  0  0  -0.102999  0  3.930288  0  0  -0.113575  0  3.949491  0  0  -0.005452  -0.096536  0  3.918017  0
C  C28  1  0.93147712  0.55937661  0.23625832  1  0  0.696357  0  3.88694  0  0  0.650213  0  4.183084  0  0  0.687515  0  4.173644  0  0  0.233222  0.624684  0  4.188659  0
C  C29  1  0.06852559  0.44062334  0.76374183  1  0  0.696366  0  3.886885  0  0  0.650169  0  4.183122  0  0  0.687471  0  4.173685  0  0  0.233235  0.624637  0  4.188696  0
C  C30  1  0.45197658  0.25007450  0.97741884  1  0  0.67956  0  3.888566  0  0  0.630075  0  4.186089  0  0  0.666323  0  4.180227  0  0  0.218614  0.605145  0  4.189332  0
C  C31  1  0.54802142  0.74992241  0.02258372  1  0  0.679475  0  3.888856  0  0  0.629915  0  4.186465  0  0  0.666165  0  4.180608  0  0  0.218542  0.604983  0  4.189705  0
C  C32  1  0.54063152  0.14070298  0.92241568  1  0  -0.117334  0  3.708731  0  0  -0.100955  0  3.943146  0  0  -0.111842  0  3.963377  0  0  -0.001975  -0.094258  0  3.930046  0
C  C33  1  0.45936333  0.85929208  0.07758363  1  0  -0.11743  0  3.70889  0  0  -0.101022  0  3.943251  0  0  -0.111911  0  3.963479  0  0  -0.001985  -0.09432  0  3.93015  0
C  C34  1  0.42581687  0.03111889  0.85224060  1  0  0.128482  0  3.674717  0  0  0.086804  0  3.921045  0  0  0.096337  0  3.937821  0  0  0.056877  0.080853  0  3.909517  0
C  C35  1  0.57417566  0.96887818  0.14775875  1  0  0.128485  0  3.67471  0  0  0.08678  0  3.921026  0  0  0.096324  0  3.937794  0  0  0.056915  0.080832  0  3.909498  0
C  C36  1  0.67458333  0.92946201  0.81229883  1  0  0.153331  0  3.691801  0  0  0.11835  0  3.942041  0  0  0.128912  0  3.958434  0  0  0.056591  0.111045  0  3.931368  0
C  C37  1  0.32540879  0.07053303  0.18770187  1  0  0.153277  0  3.691986  0  0  0.118354  0  3.942168  0  0  0.12891  0  3.958567  0  0  0.056601  0.111051  0  3.931496  0
C  C38  1  0.79896813  0.03389657  0.88158458  1  0  -0.120976  0  3.673074  0  0  -0.141324  0  3.919031  0  0  -0.148727  0  3.937414  0  0  -0.071185  -0.136831  0  3.907541  0
C  C39  1  0.20102713  0.96610050  0.11841424  1  0  -0.121022  0  3.673186  0  0  -0.141418  0  3.919122  0  0  -0.148823  0  3.937508  0  0  -0.071219  -0.136928  0  3.907636  0
C  C40  1  0.73324211  0.14189073  0.93961159  1  0  0.018052  0  3.637769  0  0  0.026151  0  3.870284  0  0  0.029621  0  3.885526  0  0  0.030771  0.02342  0  3.860603  0
C  C41  1  0.26675608  0.85810732  0.06038686  1  0  0.018015  0  3.637942  0  0  0.026162  0  3.870328  0  0  0.029635  0  3.885567  0  0  0.030743  0.02343  0  3.86065  0
C  C42  1  0.87342700  0.24510605  0.02583554  1  0  0.692428  0  3.877984  0  0  0.642417  0  4.179624  0  0  0.678515  0  4.169352  0  0  0.234729  0.617592  0  4.185904  0
C  C43  1  0.12656867  0.75489309  0.97416106  1  0  0.692433  0  3.878172  0  0  0.642496  0  4.179642  0  0  0.678598  0  4.169365  0  0  0.234769  0.617668  0  4.185924  0
N  N44  1  0.04473520  0.68371864  0.56560095  1  0  -0.314368  0  3.383149  0  0  -0.224323  0  3.673077  0  0  -0.245147  0  3.689279  0  0  -0.351367  -0.210235  0  3.661504  0
N  N45  1  0.95527044  0.31628231  0.43439799  1  0  -0.314437  0  3.382966  0  0  -0.22438  0  3.672852  0  0  -0.245183  0  3.689029  0  0  -0.351432  -0.210296  0  3.661284  0
N  N46  1  0.48986337  0.92672014  0.79797396  1  0  -0.314531  0  3.362715  0  0  -0.226536  0  3.652016  0  0  -0.247132  0  3.666778  0  0  -0.348446  -0.212418  0  3.641291  0
N  N47  1  0.51013252  0.07327976  0.20202882  1  0  -0.314386  0  3.362646  0  0  -0.226395  0  3.651896  0  0  -0.246992  0  3.66666  0  0  -0.348383  -0.212277  0  3.641171  0
O  O48  1  0.49979085  0.42292175  0.26136271  1  0  -0.685239  0  1.955169  0  0  -0.630673  0  2.216746  0  0  -0.663817  0  2.206197  0  0  -0.354727  -0.606652  0  2.223015  0
O  O49  1  0.50022012  0.57708523  0.73863350  1  0  -0.685302  0  1.95499  0  0  -0.630767  0  2.216575  0  0  -0.663915  0  2.206022  0  0  -0.354758  -0.606747  0  2.222847  0
O  O50  1  0.46457533  0.63493036  0.25293183  1  0  -0.624158  0  1.924072  0  0  -0.586665  0  2.150996  0  0  -0.616803  0  2.144641  0  0  -0.351778  -0.564588  0  2.154224  0
O  O51  1  0.53542432  0.36507451  0.74707046  1  0  -0.624258  0  1.924221  0  0  -0.586784  0  2.151108  0  0  -0.616924  0  2.144741  0  0  -0.35184  -0.564713  0  2.154352  0
O  O52  1  0.80147793  0.56493920  0.15019382  1  0  -0.65422  0  2.049633  0  0  -0.610208  0  2.300168  0  0  -0.642632  0  2.293836  0  0  -0.348814  -0.586888  0  2.303616  0
O  O53  1  0.19852320  0.43505980  0.84980514  1  0  -0.654246  0  2.049616  0  0  -0.610217  0  2.300217  0  0  -0.642644  0  2.29389  0  0  -0.348833  -0.586896  0  2.303663  0
O  O54  1  0.08751351  0.52241213  0.22944253  1  0  -0.694909  0  2.05339  0  0  -0.653698  0  2.316316  0  0  -0.68799  0  2.308206  0  0  -0.384363  -0.628673  0  2.320562  0
O  O55  1  0.91248449  0.47758487  0.77055746  1  0  -0.694891  0  2.053261  0  0  -0.653665  0  2.316182  0  0  -0.687954  0  2.308066  0  0  -0.384369  -0.628643  0  2.320435  0
O  O56  1  0.54395908  0.36656625  0.00542944  1  0  -0.737813  0  2.106872  0  0  -0.683952  0  2.370374  0  0  -0.722549  0  2.365995  0  0  -0.409143  -0.655896  0  2.372382  0
O  O57  1  0.45604049  0.63343173  0.99457089  1  0  -0.737661  0  2.106818  0  0  -0.683797  0  2.370408  0  0  -0.722396  0  2.36603  0  0  -0.409089  -0.655743  0  2.372414  0
O  O58  1  0.29087120  0.22734026  0.99612627  1  0  -0.635589  0  1.942758  0  0  -0.592404  0  2.181519  0  0  -0.62353  0  2.176761  0  0  -0.342639  -0.570162  0  2.184062  0
O  O59  1  0.70912702  0.77265757  0.00387819  1  0  -0.635529  0  1.94289  0  0  -0.592331  0  2.181662  0  0  -0.623456  0  2.176905  0  0  -0.342604  -0.570087  0  2.184202  0
O  O60  1  0.93406407  0.21781710  0.12606541  1  0  -0.598763  0  1.908828  0  0  -0.550936  0  2.14904  0  0  -0.577595  0  2.139047  0  0  -0.290532  -0.531807  0  2.155289  0
O  O61  1  0.06593023  0.78218201  0.87393189  1  0  -0.598819  0  1.90889  0  0  -0.551036  0  2.14908  0  0  -0.577696  0  2.139083  0  0  -0.290605  -0.531903  0  2.155329  0
O  O62  1  0.92880441  0.34988121  0.98667343  1  0  -0.755491  0  2.083232  0  0  -0.702432  0  2.346197  0  0  -0.741845  0  2.338286  0  0  -0.414708  -0.673625  0  2.350091  0
O  O63  1  0.07119535  0.65011790  0.01332280  1  0  -0.755449  0  2.08331  0  0  -0.702426  0  2.346246  0  0  -0.741841  0  2.338339  0  0  -0.414669  -0.673623  0  2.350143  0
