# generated using pymatgen
data_Ag2H9C17N3(O2F3)2
_symmetry_space_group_name_H-M   'P 1'
_cell_length_a   8.32110806
_cell_length_b   10.53211953
_cell_length_c   12.40415285
_cell_angle_alpha   65.03013866
_cell_angle_beta   87.22869729
_cell_angle_gamma   70.06878168
_symmetry_Int_Tables_number   1
_chemical_formula_structural   Ag2H9C17N3(O2F3)2
_chemical_formula_sum   'Ag4 H18 C34 N6 O8 F12'
_cell_volume   920.60690623
_cell_formula_units_Z   2
loop_
 _symmetry_equiv_pos_site_id
 _symmetry_equiv_pos_as_xyz
  1  'x, y, z'
loop_
 _atom_site_type_symbol
 _atom_site_label
 _atom_site_symmetry_multiplicity
 _atom_site_fract_x
 _atom_site_fract_y
 _atom_site_fract_z
 _atom_site_occupancy
 _atom_site_pbe_bader_spin_density
 _atom_site_pbe_cm5_charge
 _atom_site_pbe_ddec_charge
 _atom_site_pbe_ddec_spin_density
 _atom_site_pbe_ddec_sum_bond_order
 _atom_site_pbe_magmom
Ag  Ag0  1  0.75969014  0.80791261  0.48011184  1  0  0.431444  0.36133  0  1.936196  0
Ag  Ag1  1  0.24030915  0.19208957  0.51988669  1  0  0.431454  0.361372  0  1.936171  0
Ag  Ag2  1  0.74326166  0.07935398  0.49575190  1  0  0.42727  0.454314  0  1.858582  0
Ag  Ag3  1  0.25673225  0.92065269  0.50424355  1  0  0.427248  0.454274  0  1.858686  0
H  H4  1  0.01575972  0.70891557  0.70787990  1  0  0.109937  0.092563  0  1.039281  0
H  H5  1  0.98423708  0.29108670  0.29212432  1  0  0.109922  0.092562  0  1.039342  0
H  H6  1  0.15752690  0.48564401  0.89864701  1  0  0.102128  0.113938  0  1.017816  0
H  H7  1  0.84247563  0.51435599  0.10135787  1  0  0.102126  0.113983  0  1.017852  0
H  H8  1  0.13611225  0.23845066  0.93362796  1  0  0.103336  0.103759  0  1.003773  0
H  H9  1  0.86388306  0.76154936  0.06637471  1  0  0.103317  0.10373  0  1.003835  0
H  H10  1  0.96938983  0.22826382  0.77949546  1  0  0.101291  0.109528  0  1.044834  0
H  H11  1  0.03060854  0.77174064  0.22050470  1  0  0.101279  0.109522  0  1.044836  0
H  H12  1  0.86308695  0.22181787  0.64234894  1  0  0.115898  0.094093  0  1.023469  0
H  H13  1  0.13691278  0.77818321  0.35765079  1  0  0.115901  0.0941  0  1.02349  0
H  H14  1  0.53747177  0.35849163  0.29372872  1  0  0.100088  0.123612  0  1.054476  0
H  H15  1  0.46252311  0.64150949  0.70627275  1  0  0.100105  0.123686  0  1.054426  0
H  H16  1  0.39234033  0.60168921  0.11743066  1  0  0.100377  0.10308  0  0.999711  0
H  H17  1  0.60765832  0.39830854  0.88257113  1  0  0.100368  0.103019  0  0.999687  0
H  H18  1  0.40116542  0.83907767  0.11014569  1  0  0.10094  0.111728  0  1.001659  0
H  H19  1  0.59883119  0.16092225  0.88985052  1  0  0.100916  0.111687  0  1.001712  0
H  H20  1  0.55842632  0.83547863  0.27758952  1  0  0.103167  0.122833  0  1.032098  0
H  H21  1  0.44156938  0.16452355  0.72240671  1  0  0.103174  0.122821  0  1.032086  0
C  C22  1  0.00756501  0.60056285  0.72648512  1  0  0.04204  0.090458  0  3.936398  0
C  C23  1  0.99243345  0.39943830  0.27351946  1  0  0.042085  0.090497  0  3.936268  0
C  C24  1  0.08701178  0.47527056  0.83315434  1  0  -0.081288  -0.113145  0  3.955482  0
C  C25  1  0.91298747  0.52473167  0.16684741  1  0  -0.081337  -0.113256  0  3.955462  0
C  C26  1  0.07457344  0.33922279  0.85205257  1  0  -0.067449  -0.019816  0  3.957199  0
C  C27  1  0.92542538  0.66078054  0.14794718  1  0  -0.067432  -0.0198  0  3.957183  0
C  C28  1  0.98118832  0.33356961  0.76495052  1  0  -0.079047  -0.142245  0  3.924357  0
C  C29  1  0.01881046  0.66643375  0.23505244  1  0  -0.078997  -0.142209  0  3.924369  0
C  C30  1  0.90512480  0.46362176  0.65975712  1  0  0.113725  0.161267  0  3.977466  0
C  C31  1  0.09487205  0.53638047  0.34024389  1  0  0.113792  0.161411  0  3.9776  0
C  C32  1  0.80665817  0.46419149  0.56286542  1  0  0.130002  0.137978  0  3.976554  0
C  C33  1  0.19333945  0.53581184  0.43713436  1  0  0.129979  0.137919  0  3.976636  0
C  C34  1  0.79924019  0.32898195  0.56653222  1  0  0.060269  0.021526  0  3.924571  0
C  C35  1  0.20075864  0.67102138  0.43346753  1  0  0.060274  0.021537  0  3.924582  0
C  C36  1  0.63283218  0.45895757  0.38404869  1  0  0.109043  0.155541  0  3.990521  0
C  C37  1  0.36716665  0.54104575  0.61595106  1  0  0.109076  0.155513  0  3.990628  0
C  C38  1  0.54268152  0.46295551  0.28834871  1  0  -0.088022  -0.149799  0  3.927156  0
C  C39  1  0.45731580  0.53704557  0.71165029  1  0  -0.088033  -0.1499  0  3.92728  0
C  C40  1  0.46134251  0.59845252  0.19163744  1  0  -0.081608  -0.06131  0  3.978663  0
C  C41  1  0.53865405  0.40154745  0.80836199  1  0  -0.081621  -0.061238  0  3.978523  0
C  C42  1  0.46628902  0.73359472  0.18731105  1  0  -0.080859  -0.062159  0  3.968805  0
C  C43  1  0.53371118  0.26640520  0.81268667  1  0  -0.080764  -0.062037  0  3.968642  0
C  C44  1  0.55332122  0.73271493  0.27957580  1  0  -0.082394  -0.137662  0  3.92425  0
C  C45  1  0.44667810  0.26728722  0.72042033  1  0  -0.082456  -0.137717  0  3.924251  0
C  C46  1  0.63852410  0.59566233  0.37964455  1  0  0.110858  0.159972  0  4.003177  0
C  C47  1  0.36147640  0.40433985  0.62035396  1  0  0.110879  0.160006  0  4.003167  0
C  C48  1  0.85376930  0.05078431  0.26691177  1  0  0.18822  0.403516  0  4.32899  0
C  C49  1  0.14623344  0.94921225  0.73308710  1  0  0.18827  0.403674  0  4.328886  0
C  C50  1  0.91659491  0.10654049  0.14070197  1  0  0.297729  0.586776  0  4.008423  0
C  C51  1  0.08340421  0.89345610  0.85929780  1  0  0.297697  0.586645  0  4.00868  0
C  C52  1  0.61034939  0.87427594  0.70484740  1  0  0.187524  0.41276  0  4.336101  0
C  C53  1  0.38965531  0.12572174  0.29515262  1  0  0.18749  0.412742  0  4.336006  0
C  C54  1  0.59519955  0.79512078  0.84126404  1  0  0.297224  0.587562  0  3.986164  0
C  C55  1  0.40480364  0.20487466  0.15873604  1  0  0.297207  0.587562  0  3.985993  0
N  N56  1  0.91991697  0.59502481  0.64174395  1  0  -0.333501  -0.240242  0  3.521934  0
N  N57  1  0.08008134  0.40497971  0.35826103  1  0  -0.333565  -0.240363  0  3.522041  0
N  N58  1  0.72527314  0.59436209  0.47051942  1  0  -0.301403  -0.248652  0  3.435185  0
N  N59  1  0.27472572  0.40564120  0.52947792  1  0  -0.30144  -0.248671  0  3.435169  0
N  N60  1  0.71482700  0.32588421  0.48075918  1  0  -0.302269  -0.220487  0  3.450005  0
N  N61  1  0.28517058  0.67411915  0.51924301  1  0  -0.302286  -0.220471  0  3.449997  0
O  O62  1  0.87935925  0.10922435  0.33146072  1  0  -0.306764  -0.475841  0  2.449302  0
O  O63  1  0.12064457  0.89077556  0.66853771  1  0  -0.306797  -0.475893  0  2.449323  0
O  O64  1  0.79088538  0.95007497  0.29027898  1  0  -0.31457  -0.475988  0  2.432153  0
O  O65  1  0.20911735  0.04992161  0.70972149  1  0  -0.314585  -0.47606  0  2.432059  0
O  O66  1  0.67963687  0.97167172  0.67944396  1  0  -0.317845  -0.476791  0  2.427159  0
O  O67  1  0.32036990  0.02832374  0.32055843  1  0  -0.317825  -0.476788  0  2.427199  0
O  O68  1  0.56312161  0.82663894  0.63944391  1  0  -0.312069  -0.512161  0  2.430211  0
O  O69  1  0.43687999  0.17336655  0.36055094  1  0  -0.312068  -0.512155  0  2.430184  0
F  F70  1  0.90571415  0.25157373  0.09657328  1  0  -0.093653  -0.189756  0  1.35653  0
F  F71  1  0.09427956  0.74842737  0.90342501  1  0  -0.093641  -0.189694  0  1.356723  0
F  F72  1  0.08573583  0.02101640  0.14747381  1  0  -0.099316  -0.199259  0  1.338576  0
F  F73  1  0.91426545  0.97898687  0.85252267  1  0  -0.099282  -0.199218  0  1.338654  0
F  F74  1  0.82770074  0.09469465  0.05835608  1  0  -0.101167  -0.20071  0  1.358876  0
F  F75  1  0.17230093  0.90529856  0.94164404  1  0  -0.101168  -0.200703  0  1.358851  0
F  F76  1  0.75054184  0.68489362  0.89699774  1  0  -0.097563  -0.200981  0  1.34474  0
F  F77  1  0.24947115  0.31509839  0.10300169  1  0  -0.097554  -0.200944  0  1.344709  0
F  F78  1  0.47695659  0.72609164  0.86533039  1  0  -0.097637  -0.193863  0  1.35959  0
F  F79  1  0.52305838  0.27389247  0.13466702  1  0  -0.097657  -0.19388  0  1.359657  0
F  F80  1  0.55560908  0.88833099  0.89568751  1  0  -0.09409  -0.187259  0  1.341352  0
F  F81  1  0.44439134  0.11165330  0.10431589  1  0  -0.09405  -0.187272  0  1.341283  0
