# generated using pymatgen
data_CdH16C9S4(NO)2
_symmetry_space_group_name_H-M   'P 1'
_cell_length_a   9.73183554
_cell_length_b   11.76320478
_cell_length_c   13.36670000
_cell_angle_alpha   90.63736219
_cell_angle_beta   90.99075559
_cell_angle_gamma   105.25867918
_symmetry_Int_Tables_number   1
_chemical_formula_structural   CdH16C9S4(NO)2
_chemical_formula_sum   'Cd4 H64 C36 S16 N8 O8'
_cell_volume   1475.82882654
_cell_formula_units_Z   4
loop_
 _symmetry_equiv_pos_site_id
 _symmetry_equiv_pos_as_xyz
  1  'x, y, z'
loop_
 _atom_site_type_symbol
 _atom_site_label
 _atom_site_symmetry_multiplicity
 _atom_site_fract_x
 _atom_site_fract_y
 _atom_site_fract_z
 _atom_site_occupancy
 _atom_site_hle17_bader_spin_density
 _atom_site_hle17_ddec_charge
 _atom_site_hle17_ddec_spin_density
 _atom_site_hle17_ddec_sum_bond_order
 _atom_site_hle17_magmom
 _atom_site_hse06_10hf_bader_spin_density
 _atom_site_hse06_10hf_ddec_charge
 _atom_site_hse06_10hf_ddec_spin_density
 _atom_site_hse06_10hf_ddec_sum_bond_order
 _atom_site_hse06_10hf_magmom
 _atom_site_hse06_bader_spin_density
 _atom_site_hse06_ddec_charge
 _atom_site_hse06_ddec_spin_density
 _atom_site_hse06_ddec_sum_bond_order
 _atom_site_hse06_magmom
 _atom_site_pbe_bader_charge
 _atom_site_pbe_bader_spin_density
 _atom_site_pbe_cm5_charge
 _atom_site_pbe_ddec_charge
 _atom_site_pbe_ddec_spin_density
 _atom_site_pbe_ddec_sum_bond_order
 _atom_site_pbe_magmom
Cd  Cd0  1  0.06512058  0.02122231  0.27351142  1  0  0.721547  0  2.031307  0  0  0.574008  0  2.46465  0  0  0.615332  0  2.439523  0  0.94063  0  0.537192  0.545078  0  2.482529  0
Cd  Cd1  1  0.93488004  0.97877826  0.72648904  1  0  0.721508  0  2.031361  0  0  0.573981  0  2.464688  0  0  0.615303  0  2.439555  0  0.940609  0  0.537174  0.545049  0  2.482565  0
Cd  Cd2  1  0.49999997  0.00000000  0.49999978  1  0  0.73016  0  2.044667  0  0  0.573377  0  2.472375  0  0  0.614411  0  2.449783  0  0.964864  0  0.562467  0.545844  0  2.487522  0
Cd  Cd3  1  0.49999997  0.00000000  0.99999978  1  0  0.711117  0  2.028337  0  0  0.557098  0  2.447883  0  0  0.598731  0  2.425122  0  0.961461  0  0.555531  0.529299  0  2.461822  0
H  H4  1  0.05167400  0.68703038  0.00307590  1  0  0.039481  0  0.943348  0  0  0.051836  0  1.015916  0  0  0.052116  0  1.014666  0  0.038185  0  0.09038  0.051377  0  1.017053  0
H  H5  1  0.94832644  0.31297282  0.99692458  1  0  0.039501  0  0.943359  0  0  0.051861  0  1.015919  0  0  0.052141  0  1.01467  0  0.038168  0  0.09039  0.051402  0  1.017055  0
H  H6  1  0.91347720  0.75091321  0.95987289  1  0  0.051883  0  0.950803  0  0  0.060904  0  1.028068  0  0  0.061325  0  1.027215  0  0.104146  0  0.090049  0.059798  0  1.030141  0
H  H7  1  0.08652296  0.24908911  0.04012833  1  0  0.051912  0  0.950817  0  0  0.06089  0  1.028117  0  0  0.06131  0  1.027267  0  0.104174  0  0.090055  0.059784  0  1.030189  0
H  H8  1  0.87459619  0.54122475  0.89307923  1  0  0.104081  0  0.96076  0  0  0.128382  0  1.020699  0  0  0.128703  0  1.022078  0  0.032386  0  0.091633  0.128143  0  1.019776  0
H  H9  1  0.12540528  0.45877846  0.10692052  1  0  0.10411  0  0.960724  0  0  0.128425  0  1.020641  0  0  0.128749  0  1.022018  0  0.032398  0  0.091605  0.128185  0  1.019721  0
H  H10  1  0.73343041  0.55864694  0.96995798  1  0  0.121852  0  0.951287  0  0  0.140731  0  1.013893  0  0  0.142466  0  1.013805  0  0.062145  0  0.095806  0.139505  0  1.013782  0
H  H11  1  0.26657180  0.44135539  0.03004102  1  0  0.121847  0  0.951282  0  0  0.140706  0  1.013913  0  0  0.14244  0  1.01383  0  0.062126  0  0.095818  0.139499  0  1.013781  0
H  H12  1  0.86292072  0.48997254  0.01835090  1  0  0.104443  0  0.949352  0  0  0.128275  0  1.00734  0  0  0.129375  0  1.007707  0  0.036408  0  0.089766  0.127231  0  1.007445  0
H  H13  1  0.13707972  0.51003066  0.98164884  1  0  0.104492  0  0.949277  0  0  0.12833  0  1.007264  0  0  0.129426  0  1.007633  0  0.036668  0  0.0898  0.127286  0  1.007372  0
H  H14  1  0.26351085  0.30854611  0.57850598  1  0  0.050471  0  0.990695  0  0  0.064078  0  1.060993  0  0  0.064438  0  1.060178  0  0.090707  0  0.08191  0.063214  0  1.062749  0
H  H15  1  0.73648977  0.69145445  0.42149523  1  0  0.050491  0  0.99068  0  0  0.06409  0  1.060962  0  0  0.064448  0  1.060147  0  0.090713  0  0.08192  0.063228  0  1.062721  0
H  H16  1  0.11914279  0.35670235  0.52718052  1  0  0.042811  0  0.930383  0  0  0.059151  0  0.994095  0  0  0.058925  0  0.993799  0  0.007296  0  0.092426  0.059202  0  0.994321  0
H  H17  1  0.88085681  0.64329821  0.47282068  1  0  0.042829  0  0.930374  0  0  0.059157  0  0.994076  0  0  0.058929  0  0.993782  0  0.007304  0  0.092437  0.059211  0  0.994306  0
H  H18  1  0.27475873  0.52008352  0.62758338  1  0  0.110567  0  0.954729  0  0  0.132892  0  1.016056  0  0  0.133521  0  1.017335  0  0.058772  0  0.093182  0.132266  0  1.015312  0
H  H19  1  0.72524003  0.47991440  0.37241928  1  0  0.110616  0  0.954731  0  0  0.132937  0  1.016058  0  0  0.133567  0  1.017339  0  0.058819  0  0.093187  0.132319  0  1.015306  0
H  H20  1  0.29638278  0.55892454  0.49885611  1  0  0.108864  0  0.973842  0  0  0.123549  0  1.044513  0  0  0.125326  0  1.044231  0  0.056206  0  0.084939  0.122281  0  1.044657  0
H  H21  1  0.70361757  0.44107514  0.50114659  1  0  0.108922  0  0.973781  0  0  0.123573  0  1.044489  0  0  0.125351  0  1.044205  0  0.056538  0  0.084958  0.122304  0  1.044634  0
H  H22  1  0.42881860  0.50754896  0.56390080  1  0  0.117939  0  0.946023  0  0  0.137862  0  1.006117  0  0  0.139564  0  1.005861  0  0.025564  0  0.092697  0.136599  0  1.00626  0
H  H23  1  0.57118072  0.49245072  0.43610113  1  0  0.117959  0  0.946054  0  0  0.137898  0  1.006128  0  0  0.139602  0  1.005869  0  0.02549  0  0.092685  0.136634  0  1.006271  0
H  H24  1  0.15797915  0.67759355  0.21967339  1  0  0.058543  0  0.933556  0  0  0.071115  0  1.00085  0  0  0.070994  0  1.001013  0  0.068641  0  0.093151  0.070504  0  1.001841  0
H  H25  1  0.84201820  0.32239996  0.78032622  1  0  0.058521  0  0.933563  0  0  0.071106  0  1.000866  0  0  0.070982  0  1.001041  0  0.068649  0  0.093149  0.070497  0  1.001852  0
H  H26  1  0.08568920  0.70874092  0.33518366  1  0  0.049144  0  1.000229  0  0  0.059985  0  1.072638  0  0  0.060257  0  1.073114  0  0.090649  0  0.083054  0.059588  0  1.07265  0
H  H27  1  0.91430517  0.29125611  0.66481295  1  0  0.049125  0  1.000182  0  0  0.059983  0  1.072586  0  0  0.060259  0  1.073064  0  0.090653  0  0.083034  0.059585  0  1.072599  0
H  H28  1  0.96809543  0.50024836  0.27090933  1  0  0.115191  0  0.94562  0  0  0.134835  0  1.008983  0  0  0.136547  0  1.008452  0  0.077552  0  0.094313  0.133443  0  1.009519  0
H  H29  1  0.03190556  0.49974691  0.72909258  1  0  0.115239  0  0.945642  0  0  0.134883  0  1.008992  0  0  0.136596  0  1.008459  0  0.077567  0  0.094372  0.13349  0  1.009529  0
H  H30  1  0.05449929  0.50023602  0.38924998  1  0  0.100805  0  0.941563  0  0  0.126065  0  0.996081  0  0  0.127106  0  0.996578  0  0.038844  0  0.088823  0.125242  0  0.995816  0
H  H31  1  0.94550302  0.49976013  0.61074971  1  0  0.100808  0  0.941543  0  0  0.126039  0  0.996091  0  0  0.127077  0  0.996593  0  0.038833  0  0.088795  0.125216  0  0.995825  0
H  H32  1  0.13730458  0.46746796  0.27907591  1  0  0.108887  0  0.95434  0  0  0.12566  0  1.022769  0  0  0.127321  0  1.022581  0  0.0431  0  0.089062  0.124394  0  1.02312  0
H  H33  1  0.86269857  0.53253084  0.72092682  1  0  0.108879  0  0.954349  0  0  0.125652  0  1.022764  0  0  0.127314  0  1.022573  0  0.043133  0  0.089041  0.124385  0  1.023122  0
H  H34  1  0.38583424  0.57795508  0.15193222  1  0  0.049113  0  0.948308  0  0  0.06433  0  1.012716  0  0  0.0643  0  1.012535  0  0.045519  0  0.095221  0.064312  0  1.012818  0
H  H35  1  0.61416713  0.42204460  0.84806749  1  0  0.049139  0  0.948292  0  0  0.064338  0  1.012676  0  0  0.064309  0  1.012494  0  0.045508  0  0.095221  0.06432  0  1.012779  0
H  H36  1  0.52782429  0.65361898  0.23394304  1  0  0.058906  0  0.935963  0  0  0.06826  0  1.009121  0  0  0.068583  0  1.00859  0  0.099457  0  0.094138  0.067366  0  1.010837  0
H  H37  1  0.47217708  0.34638070  0.76605368  1  0  0.058928  0  0.935997  0  0  0.068272  0  1.009108  0  0  0.068593  0  1.008581  0  0.099395  0  0.09419  0.06738  0  1.010826  0
H  H38  1  0.49893291  0.43346521  0.23436878  1  0  0.10892  0  0.965052  0  0  0.129099  0  1.029512  0  0  0.130393  0  1.029687  0  0.061225  0  0.086076  0.128387  0  1.029037  0
H  H39  1  0.50107052  0.56653447  0.76563170  1  0  0.10891  0  0.965041  0  0  0.129091  0  1.029502  0  0  0.130386  0  1.029674  0  0.061258  0  0.08608  0.12838  0  1.02903  0
H  H40  1  0.66846504  0.50968255  0.18679766  1  0  0.111774  0  0.945374  0  0  0.129464  0  1.010604  0  0  0.131737  0  1.009396  0  0.05946  0  0.088891  0.127774  0  1.011587  0
H  H41  1  0.33153587  0.49031889  0.81320207  1  0  0.111769  0  0.945347  0  0  0.129456  0  1.010581  0  0  0.13173  0  1.009374  0  0.059475  0  0.088878  0.127767  0  1.011568  0
H  H42  1  0.52699702  0.43460912  0.10352139  1  0  0.105868  0  0.954805  0  0  0.123939  0  1.020798  0  0  0.125307  0  1.021043  0  0.040668  0  0.085981  0.12296  0  1.020479  0
H  H43  1  0.47300566  0.56539144  0.89647835  1  0  0.105857  0  0.954797  0  0  0.123927  0  1.020787  0  0  0.125293  0  1.021036  0  0.040631  0  0.085974  0.12296  0  1.020458  0
H  H44  1  0.74093392  0.96090220  0.34578661  1  0  0.067234  0  0.96958  0  0  0.07734  0  1.04426  0  0  0.077913  0  1.043771  0  0.108632  0  0.098368  0.077062  0  1.044375  0
H  H45  1  0.25906437  0.03909748  0.65421307  1  0  0.06722  0  0.969639  0  0  0.077341  0  1.044298  0  0  0.077919  0  1.043811  0  0.108648  0  0.098359  0.077064  0  1.044414  0
H  H46  1  0.82628965  0.09251237  0.41508289  1  0  0.06294  0  0.976399  0  0  0.071782  0  1.053188  0  0  0.072253  0  1.053018  0  0.101048  0  0.096411  0.071899  0  1.052602  0
H  H47  1  0.17371097  0.90748819  0.58491607  1  0  0.062942  0  0.976403  0  0  0.071791  0  1.053174  0  0  0.072252  0  1.053015  0  0.101038  0  0.096415  0.071908  0  1.052589  0
H  H48  1  0.83654361  0.08794729  0.10080922  1  0  0.068401  0  0.945849  0  0  0.077303  0  1.022407  0  0  0.078095  0  1.021572  0  0.091238  0  0.10344  0.076818  0  1.022921  0
H  H49  1  0.16345673  0.91205239  0.89918973  1  0  0.068397  0  0.945863  0  0  0.077315  0  1.022415  0  0  0.078106  0  1.02158  0  0.091215  0  0.103454  0.076832  0  1.02293  0
H  H50  1  0.74845078  0.95882765  0.16665814  1  0  0.068777  0  0.961805  0  0  0.07666  0  1.036845  0  0  0.076277  0  1.038642  0  0.081803  0  0.102774  0.076992  0  1.035332  0
H  H51  1  0.25155115  0.04117379  0.83334235  1  0  0.068787  0  0.961802  0  0  0.076667  0  1.03685  0  0  0.076285  0  1.038645  0  0.081782  0  0.102777  0.077001  0  1.035339  0
H  H52  1  0.94601864  0.26641348  0.32934539  1  0  0.067993  0  0.927359  0  0  0.080394  0  0.994648  0  0  0.080302  0  0.995132  0  0.085359  0  0.112824  0.080527  0  0.994289  0
H  H53  1  0.05398124  0.73358797  0.67065357  1  0  0.068008  0  0.927379  0  0  0.080425  0  0.994641  0  0  0.080334  0  0.995126  0  0.085353  0  0.112841  0.080558  0  0.994282  0
H  H54  1  0.95220008  0.26653862  0.19563674  1  0  0.065195  0  0.924706  0  0  0.080598  0  0.989384  0  0  0.080353  0  0.990005  0  0.053625  0  0.113985  0.080376  0  0.99004  0
H  H55  1  0.04779821  0.73346106  0.80436293  1  0  0.06521  0  0.924706  0  0  0.080602  0  0.989398  0  0  0.080354  0  0.990021  0  0.053634  0  0.113991  0.080381  0  0.990052  0
H  H56  1  0.45412499  0.07564186  0.24626537  1  0  0.067496  0  0.94697  0  0  0.07666  0  1.02257  0  0  0.076725  0  1.022958  0  0.081613  0  0.102449  0.076017  0  1.023357  0
H  H57  1  0.54587536  0.92435782  0.75373433  1  0  0.067499  0  0.947005  0  0  0.076641  0  1.022601  0  0  0.076706  0  1.022987  0  0.081605  0  0.102442  0.075999  0  1.023386  0
H  H58  1  0.52713824  0.95093836  0.24984894  1  0  0.065889  0  0.971138  0  0  0.074609  0  1.045516  0  0  0.074335  0  1.046963  0  0.054653  0  0.099504  0.074717  0  1.044612  0
H  H59  1  0.47286182  0.04906044  0.75015075  1  0  0.065911  0  0.97112  0  0  0.074608  0  1.045498  0  0  0.074334  0  1.04694  0  0.054634  0  0.099504  0.074716  0  1.044594  0
H  H60  1  0.56887379  0.25186693  0.33957476  1  0  0.075174  0  0.921882  0  0  0.086302  0  0.990483  0  0  0.086679  0  0.990549  0  0.084488  0  0.112956  0.086161  0  0.990369  0
H  H61  1  0.43112553  0.74813275  0.66042418  1  0  0.075204  0  0.921865  0  0  0.086326  0  0.990469  0  0  0.086703  0  0.990535  0  0.08444  0  0.11297  0.086185  0  0.990355  0
H  H62  1  0.72817111  0.25861319  0.41151087  1  0  0.066109  0  0.9288  0  0  0.077823  0  0.995916  0  0  0.077718  0  0.996299  0  0.067395  0  0.111515  0.078073  0  0.995399  0
H  H63  1  0.27182952  0.74138737  0.58848810  1  0  0.066102  0  0.928814  0  0  0.07783  0  0.995914  0  0  0.077724  0  0.996299  0  0.067391  0  0.111509  0.078079  0  0.995398  0
H  H64  1  0.73700381  0.25561681  0.09808603  1  0  0.061101  0  0.937534  0  0  0.07176  0  1.00956  0  0  0.072141  0  1.00896  0  0.021264  0  0.107524  0.071616  0  1.009776  0
H  H65  1  0.26299373  0.74438375  0.90191439  1  0  0.061063  0  0.937599  0  0  0.071754  0  1.009592  0  0  0.072132  0  1.009003  0  0.021251  0  0.10752  0.071611  0  1.009809  0
H  H66  1  0.57397028  0.24857532  0.16082360  1  0  0.070414  0  0.947549  0  0  0.081393  0  1.018754  0  0  0.081432  0  1.019419  0  0.090127  0  0.110401  0.081646  0  1.017868  0
H  H67  1  0.42602623  0.75142524  0.83917531  1  0  0.070431  0  0.947486  0  0  0.081422  0  1.018699  0  0  0.081461  0  1.019365  0  0.090035  0  0.11041  0.081675  0  1.017814  0
C  C68  1  0.95016562  0.80055354  0.15274841  1  0  0.312768  0  3.817765  0  0  0.280839  0  4.137325  0  0  0.311039  0  4.140116  0  0.308274  0  0.103983  0.261526  0  4.133063  0
C  C69  1  0.04983426  0.19944790  0.84725205  1  0  0.31282  0  3.817683  0  0  0.28089  0  4.137238  0  0  0.311091  0  4.140029  0  0.308354  0  0.104018  0.261583  0  4.132969  0
C  C70  1  0.93637792  0.67944161  0.00415917  1  0  0.141281  0  3.607815  0  0  0.082221  0  3.880225  0  0  0.092162  0  3.884675  0  0.353425  0  -0.073441  0.075637  0  3.877288  0
C  C71  1  0.06362224  0.32056071  0.99584056  1  0  0.141206  0  3.607836  0  0  0.082161  0  3.880271  0  0  0.092097  0  3.884727  0  0.353449  0  -0.073497  0.07558  0  3.877335  0
C  C72  1  0.84642071  0.55991159  0.96957560  1  0  -0.322357  0  3.704626  0  0  -0.403935  0  3.951205  0  0  -0.4067  0  3.960103  0  -0.065092  0  -0.247609  -0.401866  0  3.945015  0
C  C73  1  0.15357945  0.44009074  0.03042413  1  0  -0.322433  0  3.704471  0  0  -0.404009  0  3.951085  0  0  -0.406765  0  3.959974  0  -0.065429  0  -0.247603  -0.401958  0  3.944882  0
C  C74  1  0.21996610  0.23970162  0.38687185  1  0  0.309735  0  3.815268  0  0  0.280604  0  4.131322  0  0  0.310883  0  4.133713  0  0.324102  0  0.102635  0.260385  0  4.129095  0
C  C75  1  0.78003537  0.76030158  0.61312790  1  0  0.309688  0  3.81532  0  0  0.280554  0  4.131385  0  0  0.310831  0  4.133775  0  0.324064  0  0.102649  0.260334  0  4.129157  0
C  C76  1  0.23577459  0.37210375  0.52783598  1  0  0.141196  0  3.607752  0  0  0.081227  0  3.877442  0  0  0.090964  0  3.882732  0  0.388576  0  -0.076764  0.074887  0  3.873592  0
C  C77  1  0.76422501  0.62789681  0.47216521  1  0  0.141228  0  3.607754  0  0  0.081316  0  3.877358  0  0  0.091058  0  3.882642  0  0.388305  0  -0.076723  0.074964  0  3.873523  0
C  C78  1  0.31384978  0.49718589  0.55550663  1  0  -0.327612  0  3.691664  0  0  -0.404419  0  3.937374  0  0  -0.407689  0  3.946383  0  -0.06431  0  -0.251538  -0.401815  0  3.931001  0
C  C79  1  0.68614851  0.50281379  0.44449529  1  0  -0.327784  0  3.691739  0  0  -0.404579  0  3.93739  0  0  -0.407854  0  3.946398  0  -0.064658  0  -0.251585  -0.401976  0  3.931012  0
C  C80  1  0.34901470  0.78116784  0.38329262  1  0  0.31908  0  3.798326  0  0  0.287397  0  4.11602  0  0  0.318418  0  4.116235  0  0.312805  0  0.107669  0.266843  0  4.114999  0
C  C81  1  0.65098359  0.21883183  0.61670631  1  0  0.319063  0  3.798296  0  0  0.28738  0  4.115989  0  0  0.318401  0  4.1162  0  0.312686  0  0.107646  0.266823  0  4.114968  0
C  C82  1  0.14350293  0.65186874  0.29842490  1  0  0.136434  0  3.582608  0  0  0.079621  0  3.847413  0  0  0.08858  0  3.853311  0  0.355125  0  -0.075931  0.073544  0  3.843704  0
C  C83  1  0.85649686  0.34812918  0.70157552  1  0  0.136462  0  3.582501  0  0  0.079593  0  3.847382  0  0  0.088535  0  3.853302  0  0.355065  0  -0.075942  0.073515  0  3.843671  0
C  C84  1  0.07221864  0.52234843  0.30999296  1  0  -0.318124  0  3.699411  0  0  -0.396316  0  3.946383  0  0  -0.399164  0  3.954873  0  -0.105895  0  -0.24764  -0.394109  0  3.940627  0
C  C85  1  0.92778422  0.47764949  0.69000826  1  0  -0.318178  0  3.699371  0  0  -0.396335  0  3.946335  0  0  -0.399174  0  3.95483  0  -0.105878  0  -0.247643  -0.394129  0  3.940579  0
C  C86  1  0.54258006  0.76483581  0.05659755  1  0  0.313871  0  3.805559  0  0  0.283762  0  4.122167  0  0  0.314212  0  4.123538  0  0.332737  0  0.105667  0.263777  0  4.119997  0
C  C87  1  0.45742075  0.23516211  0.94340065  1  0  0.313831  0  3.805671  0  0  0.28372  0  4.122278  0  0  0.314162  0  4.123658  0  0.33268  0  0.105672  0.263736  0  4.120103  0
C  C88  1  0.50117766  0.59731435  0.16636005  1  0  0.149545  0  3.577663  0  0  0.092429  0  3.844316  0  0  0.102195  0  3.849029  0  0.356874  0  -0.069317  0.085754  0  3.840946  0
C  C89  1  0.49882240  0.40268445  0.83363814  1  0  0.149468  0  3.577815  0  0  0.092466  0  3.844323  0  0  0.102226  0  3.849038  0  0.357265  0  -0.069335  0.08578  0  3.840973  0
C  C90  1  0.55292596  0.48747233  0.17292150  1  0  -0.321249  0  3.701301  0  0  -0.398985  0  3.94775  0  0  -0.401999  0  3.955935  0  -0.090823  0  -0.251147  -0.39644  0  3.941696  0
C  C91  1  0.44707513  0.51252647  0.82707820  1  0  -0.321212  0  3.701328  0  0  -0.398969  0  3.947775  0  0  -0.40198  0  3.955962  0  -0.090819  0  -0.251144  -0.396425  0  3.941697  0
C  C92  1  0.76630128  0.05755077  0.34618786  1  0  0.060274  0  3.625099  0  0  -0.008545  0  3.869411  0  0  -0.000893  0  3.880516  0  0.477024  0  -0.001712  -0.013685  0  3.861183  0
C  C93  1  0.23369804  0.94244890  0.65381183  1  0  0.060319  0  3.625152  0  0  -0.008509  0  3.869448  0  0  -0.000861  0  3.880576  0  0.477029  0  -0.001685  -0.013649  0  3.861215  0
C  C94  1  0.77260409  0.05535901  0.16659108  1  0  0.071594  0  3.616764  0  0  0.002992  0  3.865155  0  0  0.010627  0  3.87699  0  0.532667  0  0.005699  -0.002216  0  3.856793  0
C  C95  1  0.22739551  0.94464155  0.83340862  1  0  0.0716  0  3.616726  0  0  0.002952  0  3.865105  0  0  0.010592  0  3.876934  0  0.53269  0  0.005692  -0.002266  0  3.856758  0
C  C96  1  0.88610214  0.23269098  0.26006240  1  0  0.086648  0  3.638967  0  0  0.014633  0  3.902427  0  0  0.023194  0  3.912598  0  0.56498  0  0.01721  0.008429  0  3.896088  0
C  C97  1  0.11389643  0.76730958  0.73993804  1  0  0.086525  0  3.639194  0  0  0.014522  0  3.902692  0  0  0.023062  0  3.912847  0  0.56495  0  0.017164  0.008318  0  3.896351  0
C  C98  1  0.55313312  0.04749527  0.24992502  1  0  0.0719  0  3.613952  0  0  0.004422  0  3.859147  0  0  0.012193  0  3.87093  0  0.555727  0  0.005192  -0.001004  0  3.851358  0
C  C99  1  0.44686695  0.95250352  0.75007467  1  0  0.071802  0  3.614136  0  0  0.004411  0  3.859125  0  0  0.012164  0  3.870956  0  0.555765  0  0.005191  -0.001012  0  3.851331  0
C  C100  1  0.66838555  0.22454346  0.34233460  1  0  0.083717  0  3.628187  0  0  0.014379  0  3.888401  0  0  0.02268  0  3.898363  0  0.588587  0  0.016642  0.008818  0  3.881279  0
C  C101  1  0.33161405  0.77545710  0.65766510  1  0  0.083648  0  3.628211  0  0  0.014316  0  3.888476  0  0  0.022598  0  3.89842  0  0.588659  0  0.01663  0.008756  0  3.881352  0
C  C102  1  0.67409247  0.22234906  0.16406196  1  0  0.079884  0  3.633478  0  0  0.009165  0  3.893608  0  0  0.017381  0  3.903681  0  0.594663  0  0.013414  0.003772  0  3.886113  0
C  C103  1  0.32590404  0.77765150  0.83593845  1  0  0.079788  0  3.633605  0  0  0.009027  0  3.893741  0  0  0.017212  0  3.903814  0  0.594857  0  0.013379  0.003639  0  3.886236  0
S  S104  1  0.88473984  0.80999743  0.26905358  1  0  -0.352686  0  2.117892  0  0  -0.332348  0  2.47137  0  0  -0.349275  0  2.465082  0  -0.184548  0  -0.164283  -0.319948  0  2.475367  0
S  S105  1  0.11525929  0.19000489  0.73094763  1  0  -0.352676  0  2.117925  0  0  -0.332333  0  2.471391  0  0  -0.349262  0  2.465105  0  -0.184607  0  -0.164286  -0.319932  0  2.475384  0
S  S106  1  0.07176924  0.91190257  0.09837665  1  0  -0.363747  0  2.113284  0  0  -0.330514  0  2.467849  0  0  -0.349027  0  2.463098  0  -0.149407  0  -0.170568  -0.318513  0  2.471027  0
S  S107  1  0.92823064  0.08809887  0.90162306  1  0  -0.363777  0  2.113332  0  0  -0.330532  0  2.467867  0  0  -0.349036  0  2.4631  0  -0.149361  0  -0.170556  -0.31854  0  2.471056  0
S  S108  1  0.26028553  0.22470210  0.26421720  1  0  -0.373499  0  2.058906  0  0  -0.34996  0  2.404056  0  0  -0.366786  0  2.39697  0  -0.188619  0  -0.180186  -0.338866  0  2.409923  0
S  S109  1  0.73971668  0.77530023  0.73578255  1  0  -0.373489  0  2.05891  0  0  -0.349962  0  2.404076  0  0  -0.366783  0  2.396982  0  -0.188628  0  -0.180207  -0.338868  0  2.409941  0
S  S110  1  0.11583404  0.12922860  0.45440174  1  0  -0.345269  0  2.084928  0  0  -0.307479  0  2.431184  0  0  -0.32607  0  2.426123  0  -0.179871  0  -0.164522  -0.295022  0  2.434291  0
S  S111  1  0.88416761  0.87077196  0.54559799  1  0  -0.345265  0  2.084976  0  0  -0.307452  0  2.431202  0  0  -0.326045  0  2.426137  0  -0.17992  0  -0.16453  -0.294997  0  2.434307  0
S  S112  1  0.51653296  0.79379847  0.42925398  1  0  -0.329496  0  2.076007  0  0  -0.312794  0  2.430138  0  0  -0.32887  0  2.423463  0  -0.163217  0  -0.158145  -0.302429  0  2.435785  0
S  S113  1  0.48346318  0.20619768  0.57074713  1  0  -0.329512  0  2.075969  0  0  -0.312804  0  2.430094  0  0  -0.328879  0  2.423417  0  -0.163173  0  -0.158144  -0.302442  0  2.435747  0
S  S114  1  0.26622111  0.89224191  0.39149077  1  0  -0.40364  0  2.181078  0  0  -0.364536  0  2.541431  0  0  -0.383496  0  2.534986  0  -0.193005  0  -0.17577  -0.352625  0  2.547187  0
S  S115  1  0.73377821  0.10775777  0.60850891  1  0  -0.403631  0  2.181089  0  0  -0.36454  0  2.541464  0  0  -0.3835  0  2.53502  0  -0.192948  0  -0.175773  -0.352628  0  2.547218  0
S  S116  1  0.65811668  0.84794130  0.97473862  1  0  -0.330472  0  2.054271  0  0  -0.299389  0  2.403047  0  0  -0.316805  0  2.397019  0  -0.176234  0  -0.171217  -0.287887  0  2.407327  0
S  S117  1  0.34188367  0.15205838  0.02526108  1  0  -0.330473  0  2.054277  0  0  -0.299383  0  2.403041  0  0  -0.316799  0  2.397019  0  -0.17626  0  -0.171221  -0.28788  0  2.407319  0
S  S118  1  0.39725111  0.80229673  0.10156577  1  0  -0.374446  0  2.084008  0  0  -0.347895  0  2.429844  0  0  -0.364536  0  2.424463  0  -0.203766  0  -0.168826  -0.336427  0  2.433213  0
S  S119  1  0.60275101  0.19770206  0.89843469  1  0  -0.374412  0  2.084149  0  0  -0.34786  0  2.429995  0  0  -0.364498  0  2.424614  0  -0.203792  0  -0.16881  -0.336392  0  2.433363  0
N  N120  1  0.85578002  0.10202411  0.25896636  1  0  -0.277457  0  3.20404  0  0  -0.177634  0  3.433364  0  0  -0.197139  0  3.454445  0  -1.021059  0  -0.348188  -0.163904  0  3.418277  0
N  N121  1  0.14421855  0.89797645  0.74103408  1  0  -0.277408  0  3.203988  0  0  -0.177621  0  3.433402  0  0  -0.197124  0  3.454483  0  -1.021083  0  -0.348184  -0.163887  0  3.418319  0
N  N122  1  0.63222767  0.09377525  0.34367930  1  0  -0.275001  0  3.194594  0  0  -0.18015  0  3.426175  0  0  -0.199402  0  3.447067  0  -1.033212  0  -0.342193  -0.166987  0  3.411621  0
N  N123  1  0.36777164  0.90622443  0.65632113  1  0  -0.275009  0  3.194628  0  0  -0.180163  0  3.426166  0  0  -0.199415  0  3.44706  0  -1.033215  0  -0.342182  -0.167  0  3.411615  0
N  N124  1  0.63862022  0.09145218  0.16096418  1  0  -0.275272  0  3.190554  0  0  -0.181362  0  3.42379  0  0  -0.200571  0  3.444578  0  -1.017434  0  -0.34178  -0.167762  0  3.409116  0
N  N125  1  0.36137882  0.90854662  0.83903550  1  0  -0.275214  0  3.190492  0  0  -0.181214  0  3.423632  0  0  -0.200423  0  3.444416  0  -1.017406  0  -0.341792  -0.167617  0  3.408976  0
N  N126  1  0.75475599  0.27103231  0.25558746  1  0  -0.27806  0  3.139976  0  0  -0.213116  0  3.404969  0  0  -0.227535  0  3.419723  0  -0.998405  0  -0.346522  -0.202713  0  3.394609  0
N  N127  1  0.24524127  0.72896737  0.74441295  1  0  -0.277869  0  3.139949  0  0  -0.212994  0  3.405021  0  0  -0.227329  0  3.419693  0  -0.998485  0  -0.346482  -0.20259  0  3.394658  0
O  O128  1  0.89858852  0.69560884  0.10714244  1  0  -0.240646  0  2.345034  0  0  -0.155295  0  2.577131  0  0  -0.176693  0  2.579372  0  -1.041446  0  -0.154607  -0.140156  0  2.574397  0
O  O129  1  0.10141061  0.30439348  0.89285727  1  0  -0.240664  0  2.345  0  0  -0.15529  0  2.577062  0  0  -0.176686  0  2.579303  0  -1.041489  0  -0.154626  -0.140154  0  2.574328  0
O  O130  1  0.27570886  0.34718091  0.42651993  1  0  -0.242386  0  2.326092  0  0  -0.158567  0  2.558936  0  0  -0.180061  0  2.56062  0  -1.035012  0  -0.156352  -0.144193  0  2.557263  0
O  O131  1  0.72429260  0.65282229  0.57348132  1  0  -0.24235  0  2.326072  0  0  -0.158548  0  2.558907  0  0  -0.180042  0  2.560585  0  -1.034684  0  -0.156361  -0.14417  0  2.557237  0
O  O132  1  0.28590912  0.67525285  0.34348562  1  0  -0.245966  0  2.358573  0  0  -0.158826  0  2.5897  0  0  -0.180466  0  2.591561  0  -1.053288  0  -0.154266  -0.144109  0  2.587973  0
O  O133  1  0.71409095  0.32474595  0.65651332  1  0  -0.245912  0  2.358529  0  0  -0.158758  0  2.589654  0  0  -0.18039  0  2.59152  0  -1.053266  0  -0.154207  -0.144033  0  2.587919  0
O  O134  1  0.57409656  0.66518148  0.08282492  1  0  -0.248993  0  2.354231  0  0  -0.163949  0  2.588693  0  0  -0.185819  0  2.591186  0  -1.042798  0  -0.15543  -0.148881  0  2.58596  0
O  O135  1  0.42590060  0.33481467  0.91717097  1  0  -0.248954  0  2.354186  0  0  -0.163966  0  2.588663  0  0  -0.185829  0  2.591155  0  -1.043105  0  -0.155471  -0.148898  0  2.585933  0
