# generated using pymatgen
data_ZnH26C25NO7
_symmetry_space_group_name_H-M   'P 1'
_cell_length_a   10.83768289
_cell_length_b   16.46034461
_cell_length_c   17.52154890
_cell_angle_alpha   90.21458231
_cell_angle_beta   89.94338439
_cell_angle_gamma   89.65469214
_symmetry_Int_Tables_number   1
_chemical_formula_structural   ZnH26C25NO7
_chemical_formula_sum   'Zn2 H52 C50 N2 O14'
_cell_volume   3125.62378554
_cell_formula_units_Z   2
loop_
 _symmetry_equiv_pos_site_id
 _symmetry_equiv_pos_as_xyz
  1  'x, y, z'
loop_
 _atom_site_type_symbol
 _atom_site_label
 _atom_site_symmetry_multiplicity
 _atom_site_fract_x
 _atom_site_fract_y
 _atom_site_fract_z
 _atom_site_occupancy
 _atom_site_pbe_bader_charge
 _atom_site_pbe_bader_spin_density
 _atom_site_pbe_cm5_charge
 _atom_site_pbe_ddec_charge
 _atom_site_pbe_ddec_spin_density
 _atom_site_pbe_ddec_sum_bond_order
 _atom_site_pbe_magmom
Zn  Zn0  1  0.50997685  0.41780443  0.49809075  1  1.286228  0  0.669073  0.808606  0  2.442158  0
Zn  Zn1  1  0.51161743  0.58513221  0.49618094  1  1.282599  0  0.668204  0.807084  0  2.453999  0
H  H2  1  0.12795279  0.37357599  0.49940127  1  0.071717  0  0.098128  0.114082  0  1.019822  0
H  H3  1  0.11350631  0.63027936  0.46073860  1  0.043761  0  0.094178  0.101344  0  1.037303  0
H  H4  1  0.12988301  0.41819913  0.40836046  1  0.058776  0  0.096968  0.111775  0  1.010651  0
H  H5  1  0.13588598  0.56016857  0.38588218  1  0.058155  0  0.101268  0.121547  0  0.976136  0
H  H6  1  0.88024917  0.48725627  0.60450319  1  0.074873  0  0.099735  0.113668  0  0.977676  0
H  H7  1  0.89360181  0.58884377  0.57375590  1  0.046571  0  0.09498  0.105643  0  1.002187  0
H  H8  1  0.46009522  0.36488782  0.72991050  1  0.082018  0  0.098198  0.106284  0  1.014394  0
H  H9  1  0.46978043  0.62487748  0.73991971  1  0.042152  0  0.099205  0.108944  0  1.012393  0
H  H10  1  0.33628602  0.38324704  0.27384281  1  0.05704  0  0.098471  0.113606  0  1.050084  0
H  H11  1  0.51798278  0.61124143  0.24951212  1  0.120984  0  0.102589  0.120547  0  1.042488  0
H  H12  1  0.37356747  0.28951010  0.41704425  1  0.115559  0  0.125743  0.107316  0  0.988801  0
H  H13  1  0.33049157  0.71489641  0.46775976  1  0.126258  0  0.12634  0.110047  0  0.998076  0
H  H14  1  0.64935036  0.28962587  0.57945847  1  0.131983  0  0.135478  0.116824  0  0.962347  0
H  H15  1  0.70389836  0.71139378  0.51459216  1  0.174536  0  0.131762  0.118881  0  0.993448  0
H  H16  1  0.65996158  0.13626944  0.58006033  1  0.077515  0  0.116543  0.125197  0  0.981322  0
H  H17  1  0.71229252  0.86515711  0.51820803  1  0.095299  0  0.115159  0.123384  0  0.983313  0
H  H18  1  0.39270558  0.08524871  0.35574745  1  0.068171  0  0.09892  0.137214  0  0.985077  0
H  H19  1  0.27981690  0.08586665  0.42853514  1  0.040872  0  0.098056  0.135598  0  0.991798  0
H  H20  1  0.28775236  0.16872051  0.36358854  1  0.038436  0  0.097849  0.133293  0  0.99617  0
H  H21  1  0.26104097  0.91988111  0.50681152  1  0.068401  0  0.099391  0.137523  0  0.984578  0
H  H22  1  0.29761845  0.91855524  0.40853035  1  0.056044  0  0.097569  0.134367  0  0.991991  0
H  H23  1  0.21343394  0.83651048  0.44890611  1  0.063117  0  0.098458  0.133811  0  1.001191  0
H  H24  1  0.91553890  0.33293619  0.29067138  1  0.044959  0  0.102174  0.105561  0  0.975796  0
H  H25  1  0.04271887  0.31122589  0.35235344  1  0.019273  0  0.081602  0.065399  0  1.025967  0
H  H26  1  0.02856400  0.40943594  0.30784096  1  0.044792  0  0.090293  0.084688  0  1.028206  0
H  H27  1  0.81814494  0.55119931  0.25611284  1  0.059165  0  0.095322  0.096713  0  0.987377  0
H  H28  1  0.75319614  0.59516905  0.34115582  1  0.091554  0  0.093414  0.09827  0  1.021637  0
H  H29  1  0.76644684  0.48702659  0.33213096  1  0.075948  0  0.097008  0.109336  0  1.013503  0
H  H30  1  0.90039793  0.25052568  0.56411510  1  0.064207  0  0.096768  0.096043  0  0.990128  0
H  H31  1  0.02330614  0.26632608  0.49795105  1  0.027706  0  0.082792  0.069366  0  1.022308  0
H  H32  1  0.86741949  0.25877179  0.46394104  1  0.030316  0  0.088001  0.083351  0  1.015706  0
H  H33  1  0.93546477  0.69455595  0.33592829  1  0.034038  0  0.094708  0.092975  0  1.008873  0
H  H34  1  0.03012413  0.72796128  0.41336476  1  0.020529  0  0.082403  0.069737  0  1.029699  0
H  H35  1  0.87272096  0.76096071  0.40771200  1  0.028386  0  0.093412  0.090571  0  1.003719  0
H  H36  1  0.20123272  0.45124532  0.64627650  1  0.021552  0  0.083677  0.125741  0  1.020057  0
H  H37  1  0.05656886  0.47037795  0.69087362  1  0.009408  0  0.084427  0.116153  0  1.002679  0
H  H38  1  0.06764145  0.39614530  0.61779975  1  0.029193  0  0.083493  0.119296  0  1.036211  0
H  H39  1  0.09357647  0.65553341  0.57530279  1  0.008743  0  0.079013  0.108456  0  1.028928  0
H  H40  1  0.06563932  0.61427119  0.66686609  1  -0.010555  0  0.085076  0.11796  0  1.001893  0
H  H41  1  0.21365790  0.60276061  0.62428830  1  0.022721  0  0.086975  0.129783  0  1.010519  0
H  H42  1  0.40105664  0.28606527  0.83795845  1  0.025729  0  0.087237  0.119513  0  1.004362  0
H  H43  1  0.44848222  0.32800366  0.92735409  1  0.054418  0  0.091998  0.129091  0  0.993567  0
H  H44  1  0.29259591  0.33475435  0.90004144  1  0.02524  0  0.092994  0.130231  0  0.990546  0
H  H45  1  0.42947554  0.69685694  0.85564178  1  0.017289  0  0.086702  0.119657  0  1.004747  0
H  H46  1  0.31112151  0.65117480  0.91160679  1  0.065702  0  0.091828  0.128908  0  0.990878  0
H  H47  1  0.46524910  0.64340116  0.94182169  1  0.062269  0  0.091176  0.131623  0  1.015382  0
H  H48  1  0.15706922  0.33815325  0.21339189  1  0.019785  0  0.098218  0.09581  0  1.015318  0
H  H49  1  0.28955200  0.27392107  0.19782705  1  0.046548  0  0.095274  0.089294  0  0.993434  0
H  H50  1  0.16379073  0.27283345  0.13116703  1  0.063446  0  0.110613  0.115471  0  0.970158  0
H  H51  1  0.55081923  0.73258085  0.08034038  1  0.04735  0  0.109534  0.112699  0  0.974025  0
H  H52  1  0.62254299  0.67512613  0.15524973  1  0.052514  0  0.100172  0.09732  0  0.988342  0
H  H53  1  0.47356160  0.72090827  0.17042117  1  0.049644  0  0.098261  0.094057  0  0.987404  0
C  C54  1  0.46745314  0.49537930  0.34988524  1  1.577024  0  0.209785  0.586614  0  4.162436  0
C  C55  1  0.27098817  0.50651312  0.50345353  1  1.580161  0  0.221703  0.594248  0  4.081909  0
C  C56  1  0.50517442  0.49825369  0.64526488  1  1.5573  0  0.209943  0.589427  0  4.170908  0
C  C57  1  0.74668861  0.50190789  0.48310223  1  1.602531  0  0.223895  0.612573  0  4.089356  0
C  C58  1  0.08922846  0.42331206  0.46552396  1  -0.081474  0  -0.172817  -0.327978  0  3.868455  0
C  C59  1  0.08777038  0.56981998  0.44037189  1  -0.031187  0  -0.171054  -0.315081  0  3.8747  0
C  C60  1  0.94730818  0.41721979  0.46325933  1  0.915501  0  0.167352  0.411706  0  3.733598  0
C  C61  1  0.94750038  0.56687285  0.42607365  1  0.913181  0  0.164026  0.403934  0  3.752203  0
C  C62  1  0.07007750  0.52265594  0.57821255  1  0.024355  0  -0.00782  0.211958  0  3.693045  0
C  C63  1  0.13033870  0.50562219  0.49799302  1  0.031207  0  -0.011546  0.010156  0  3.740848  0
C  C64  1  0.88912195  0.50246093  0.48189610  1  0.032912  0  -0.009497  -0.172847  0  3.66893  0
C  C65  1  0.92834457  0.52695476  0.56420804  1  -0.039107  0  -0.158711  -0.223241  0  3.786754  0
C  C66  1  0.41231728  0.41672292  0.83953020  1  -0.007298  0  -0.003856  0.133368  0  3.957676  0
C  C67  1  0.42097144  0.56660854  0.84574710  1  0.044699  0  -0.00331  0.136729  0  3.955313  0
C  C68  1  0.44865664  0.42046729  0.76333963  1  -0.022916  0  -0.094079  -0.174895  0  3.977366  0
C  C69  1  0.45454130  0.56742705  0.76911545  1  -0.046502  0  -0.093943  -0.175308  0  3.977368  0
C  C70  1  0.47037784  0.49509782  0.72778600  1  0.019869  0  -0.020868  -0.019048  0  4.012525  0
C  C71  1  0.40083689  0.49038811  0.88149229  1  0.053176  0  -0.004542  0.010577  0  4.039281  0
C  C72  1  0.37668565  0.48889009  0.96067466  1  -0.374093  0  -0.03787  -0.080732  0  4.123229  0
C  C73  1  0.36890914  0.49048221  0.03028711  1  0.010729  0  -0.047265  -0.084568  0  4.158676  0
C  C74  1  0.33705497  0.43179890  0.15846542  1  0.458137  0  0.087085  0.227054  0  4.042693  0
C  C75  1  0.44215847  0.56134197  0.14428201  1  0.495774  0  0.088432  0.227732  0  4.038489  0
C  C76  1  0.36413604  0.43221865  0.23628160  1  0.063393  0  -0.123703  -0.276768  0  4.031073  0
C  C77  1  0.46790620  0.56210665  0.22218027  1  -0.09271  0  -0.121363  -0.274246  0  4.029066  0
C  C78  1  0.43154069  0.49662394  0.26733482  1  -0.021539  0  -0.019535  0.025836  0  4.015086  0
C  C79  1  0.37964350  0.49476509  0.11018808  1  0.138304  0  -0.021086  -0.069741  0  4.09764  0
C  C80  1  0.43091700  0.16762138  0.44847055  1  0.039702  0  0.00713  0.091319  0  3.928569  0
C  C81  1  0.40683324  0.83629344  0.47621386  1  0.056825  0  0.007491  0.092747  0  3.926278  0
C  C82  1  0.43407318  0.25214062  0.45244154  1  0.45573  0  0.058263  0.03463  0  3.886579  0
C  C83  1  0.41245610  0.75170689  0.47781055  1  0.4506  0  0.05746  0.031691  0  3.881705  0
C  C84  1  0.58997132  0.25252345  0.54338704  1  0.559542  0  0.062985  0.09859  0  3.925245  0
C  C85  1  0.62248592  0.74950810  0.50532516  1  0.47256  0  0.058819  0.092765  0  3.911555  0
C  C86  1  0.59509210  0.16831327  0.54333548  1  -0.049407  0  -0.071994  -0.169658  0  3.946545  0
C  C87  1  0.62623830  0.83373732  0.50633445  1  -0.029482  0  -0.074528  -0.171107  0  3.948611  0
C  C88  1  0.51486006  0.12446597  0.49553398  1  0.110314  0  0.015583  0.103324  0  4.084062  0
C  C89  1  0.51766947  0.87851092  0.49182365  1  0.087313  0  0.015319  0.103592  0  4.083639  0
C  C90  1  0.51759097  0.03855494  0.49438705  1  -0.171334  0  -0.028085  -0.083324  0  4.09037  0
C  C91  1  0.51866682  0.96443776  0.49290941  1  -0.195782  0  -0.02796  -0.084177  0  4.090289  0
C  C92  1  0.34301923  0.12492033  0.39620684  1  -0.051551  0  -0.230389  -0.40921  0  3.990895  0
C  C93  1  0.28821487  0.87981607  0.45921181  1  -0.089753  0  -0.230445  -0.40685  0  3.985193  0
C  C94  1  0.97718408  0.35895566  0.33394216  1  0.42055  0  -0.147832  -0.167069  0  4.005728  0
C  C95  1  0.81011080  0.54520777  0.31828915  1  0.310808  0  -0.157751  -0.17767  0  3.924179  0
C  C96  1  0.92569652  0.28122423  0.51089457  1  0.397934  0  -0.150715  -0.164237  0  4.012108  0
C  C97  1  0.93569180  0.70964868  0.39720133  1  0.434622  0  -0.14998  -0.160426  0  3.985948  0
C  C98  1  0.10149122  0.45567978  0.63620587  1  -0.036172  0  -0.250351  -0.419509  0  3.911198  0
C  C99  1  0.11409171  0.60364297  0.61254507  1  -0.020537  0  -0.247269  -0.418466  0  3.921399  0
C  C100  1  0.38755004  0.33693621  0.87783257  1  -0.049524  0  -0.238027  -0.40544  0  3.995829  0
C  C101  1  0.40642541  0.64396139  0.89070166  1  -0.079206  0  -0.2397  -0.409735  0  3.993752  0
C  C102  1  0.21802245  0.31110367  0.16967777  1  0.430535  0  -0.134529  -0.16905  0  3.93942  0
C  C103  1  0.53416012  0.69120412  0.12801604  1  0.412114  0  -0.132128  -0.169096  0  3.939162  0
N  N104  1  0.51078696  0.29327417  0.49841443  1  -1.214972  0  -0.313762  -0.175169  0  3.533328  0
N  N105  1  0.51654957  0.70968915  0.49190697  1  -1.232406  0  -0.314814  -0.177354  0  3.530466  0
O  O106  1  0.45140737  0.42876762  0.38552460  1  -1.173806  0  -0.321891  -0.551945  0  2.319826  0
O  O107  1  0.51174253  0.56029145  0.37819932  1  -1.170925  0  -0.318663  -0.550625  0  2.316749  0
O  O108  1  0.32512940  0.44101435  0.52243338  1  -1.174396  0  -0.313621  -0.539227  0  2.333737  0
O  O109  1  0.32411006  0.57338828  0.48815409  1  -1.173659  0  -0.31404  -0.542866  0  2.364586  0
O  O110  1  0.54118327  0.43234443  0.61321050  1  -1.17138  0  -0.328306  -0.559614  0  2.305528  0
O  O111  1  0.49348297  0.56678333  0.61231577  1  -1.169115  0  -0.322464  -0.551282  0  2.320566  0
O  O112  1  0.68934870  0.43674848  0.46870185  1  -1.162018  0  -0.310013  -0.536527  0  2.386238  0
O  O113  1  0.69562880  0.56856316  0.50288641  1  -1.166539  0  -0.313357  -0.542718  0  2.403269  0
O  O114  1  0.89805939  0.38612594  0.39345531  1  -1.039399  0  -0.218996  -0.237647  0  2.532364  0
O  O115  1  0.93421584  0.54805917  0.34716110  1  -1.040956  0  -0.230774  -0.268114  0  2.494049  0
O  O116  1  0.90643465  0.36532071  0.52416771  1  -1.034368  0  -0.223575  -0.245278  0  2.498853  0
O  O117  1  0.89105954  0.64440005  0.44245097  1  -1.025978  0  -0.22658  -0.257139  0  2.509351  0
O  O118  1  0.27122487  0.37221985  0.12272251  1  -1.071695  0  -0.185902  -0.154265  0  2.567637  0
O  O119  1  0.47617099  0.62165860  0.09541539  1  -1.079155  0  -0.180795  -0.150979  0  2.584913  0
