# generated using pymatgen
data_MgAgH18C18(NO2)3
_symmetry_space_group_name_H-M   'P 1'
_cell_length_a   7.43380373
_cell_length_b   15.05852382
_cell_length_c   20.92710824
_cell_angle_alpha   90.00087229
_cell_angle_beta   89.99972372
_cell_angle_gamma   95.94999529
_symmetry_Int_Tables_number   1
_chemical_formula_structural   MgAgH18C18(NO2)3
_chemical_formula_sum   'Mg4 Ag4 H72 C72 N12 O24'
_cell_volume   2330.00434520
_cell_formula_units_Z   4
loop_
 _symmetry_equiv_pos_site_id
 _symmetry_equiv_pos_as_xyz
  1  'x, y, z'
loop_
 _atom_site_type_symbol
 _atom_site_label
 _atom_site_symmetry_multiplicity
 _atom_site_fract_x
 _atom_site_fract_y
 _atom_site_fract_z
 _atom_site_occupancy
 _atom_site_pbe_bader_charge
 _atom_site_pbe_bader_spin_density
 _atom_site_pbe_cm5_charge
 _atom_site_pbe_ddec_charge
 _atom_site_pbe_ddec_spin_density
 _atom_site_pbe_ddec_sum_bond_order
 _atom_site_pbe_magmom
Mg  Mg0  1  0.47034057  0.49697517  0.30502918  1  1.690598  0  0.834692  1.319542  0  1.511329  0
Mg  Mg1  1  0.52967251  0.00302320  0.80502956  1  1.690598  0  0.834721  1.319463  0  1.511511  0
Mg  Mg2  1  0.52967315  0.50302455  0.69496884  1  1.69056  0  0.834731  1.319392  0  1.511604  0
Mg  Mg3  1  0.47031790  0.99697464  0.19497037  1  1.690531  0  0.834675  1.319349  0  1.511649  0
Ag  Ag4  1  0.99952701  0.88282220  0.48185603  1  0.684629  0  0.550076  0.525598  0  2.181568  0
Ag  Ag5  1  0.00046732  0.61717353  0.98185189  1  0.684554  0  0.550097  0.525524  0  2.181574  0
Ag  Ag6  1  0.00045431  0.11717702  0.51814533  1  0.68465  0  0.550121  0.525633  0  2.181567  0
Ag  Ag7  1  0.99954909  0.38282618  0.01814756  1  0.684582  0  0.550129  0.525585  0  2.1816  0
H  H8  1  0.27049032  0.53611639  0.10281672  1  0.086859  0  0.096682  0.147368  0  1.019783  0
H  H9  1  0.72953786  0.96388071  0.60281896  1  0.086598  0  0.096661  0.147363  0  1.019804  0
H  H10  1  0.72954786  0.46387853  0.89718130  1  0.086474  0  0.096646  0.147305  0  1.01978  0
H  H11  1  0.27045134  0.03613518  0.39718432  1  0.086397  0  0.096609  0.147271  0  1.019856  0
H  H12  1  0.42333241  0.46578678  0.06857784  1  0.057411  0  0.099956  0.152464  0  0.993607  0
H  H13  1  0.57670139  0.03421129  0.56857992  1  0.057911  0  0.099906  0.152429  0  0.993611  0
H  H14  1  0.57670400  0.53421216  0.93142114  1  0.05793  0  0.099895  0.152429  0  0.993527  0
H  H15  1  0.42329345  0.96579989  0.43142383  1  0.057936  0  0.09989  0.152362  0  0.993579  0
H  H16  1  0.47841165  0.58265627  0.06804802  1  0.045324  0  0.097942  0.154257  0  0.995234  0
H  H17  1  0.52161746  0.91734279  0.56804771  1  0.045541  0  0.097953  0.154326  0  0.99522  0
H  H18  1  0.52161639  0.41734137  0.93194761  1  0.045177  0  0.097991  0.154358  0  0.995161  0
H  H19  1  0.47839143  0.08267100  0.43194983  1  0.045294  0  0.097949  0.154255  0  0.995165  0
H  H20  1  0.04077733  0.44971060  0.25603255  1  0.102747  0  0.10559  0.169924  0  0.998703  0
H  H21  1  0.95925480  0.05029735  0.75603463  1  0.102645  0  0.105589  0.169953  0  0.998669  0
H  H22  1  0.95925836  0.55029101  0.74397073  1  0.102451  0  0.105522  0.169826  0  0.998928  0
H  H23  1  0.04073808  0.94971116  0.24396913  1  0.102604  0  0.105525  0.169842  0  0.99893  0
H  H24  1  0.06988202  0.52860970  0.19286226  1  0.076924  0  0.099514  0.151968  0  1.014045  0
H  H25  1  0.93013405  0.97139868  0.69286375  1  0.077187  0  0.099539  0.152033  0  1.014189  0
H  H26  1  0.93014771  0.47139529  0.80713910  1  0.077183  0  0.099532  0.152035  0  1.014155  0
H  H27  1  0.06984943  0.02860988  0.30713904  1  0.077214  0  0.0995  0.152041  0  1.014145  0
H  H28  1  0.00065830  0.41622706  0.17443967  1  0.075898  0  0.094047  0.146663  0  1.024554  0
H  H29  1  0.99937308  0.08377854  0.67444109  1  0.075836  0  0.094067  0.146666  0  1.024504  0
H  H30  1  0.99937336  0.58377457  0.82556218  1  0.075969  0  0.094065  0.146748  0  1.024513  0
H  H31  1  0.00062218  0.91622862  0.32556028  1  0.075886  0  0.094045  0.146709  0  1.02451  0
H  H32  1  0.14218699  0.23543471  0.26708728  1  0.06695  0  0.100616  0.155841  0  0.986787  0
H  H33  1  0.85778549  0.26457779  0.76708233  1  0.067057  0  0.10057  0.155774  0  0.986837  0
H  H34  1  0.85779468  0.76457186  0.73291408  1  0.067036  0  0.100568  0.155734  0  0.986861  0
H  H35  1  0.14219836  0.73542075  0.23291712  1  0.066895  0  0.100575  0.155759  0  0.986741  0
H  H36  1  0.11607289  0.19383967  0.34750526  1  0.018604  0  0.095388  0.143448  0  1.005196  0
H  H37  1  0.88389409  0.30617718  0.84750263  1  0.018287  0  0.09544  0.143448  0  1.005145  0
H  H38  1  0.88391239  0.80617089  0.65249706  1  0.018341  0  0.095442  0.143449  0  1.005156  0
H  H39  1  0.11608946  0.69382002  0.15249682  1  0.018288  0  0.095412  0.143422  0  1.005213  0
H  H40  1  0.30522754  0.17120634  0.30101312  1  0.108406  0  0.105288  0.165338  0  0.99709  0
H  H41  1  0.69473018  0.32879088  0.80101298  1  0.108166  0  0.105245  0.165266  0  0.997126  0
H  H42  1  0.69474809  0.82879157  0.69898585  1  0.108161  0  0.105256  0.165223  0  0.997226  0
H  H43  1  0.30525828  0.67120429  0.19898696  1  0.108051  0  0.105264  0.165281  0  0.997172  0
H  H44  1  0.66084728  0.43402270  0.50389226  1  0.063299  0  0.102746  0.159387  0  0.979182  0
H  H45  1  0.33915020  0.06598892  0.00388642  1  0.063433  0  0.10274  0.159375  0  0.979295  0
H  H46  1  0.33913497  0.56598052  0.49611245  1  0.063226  0  0.102687  0.159288  0  0.979189  0
H  H47  1  0.66083727  0.93401361  0.99611160  1  0.063527  0  0.102775  0.159503  0  0.979157  0
H  H48  1  0.57802688  0.31787032  0.50826497  1  0.058412  0  0.092792  0.138509  0  1.018526  0
H  H49  1  0.42196410  0.18213675  0.00826169  1  0.05851  0  0.09282  0.138503  0  1.018478  0
H  H50  1  0.42195386  0.68213225  0.49173974  1  0.058607  0  0.092814  0.138497  0  1.018488  0
H  H51  1  0.57801676  0.81786046  0.99173489  1  0.058229  0  0.092847  0.138536  0  1.018425  0
H  H52  1  0.43448278  0.40093890  0.52715636  1  0.104275  0  0.107772  0.167454  0  0.980038  0
H  H53  1  0.56550311  0.09907058  0.02715335  1  0.103947  0  0.107814  0.167475  0  0.979961  0
H  H54  1  0.56548975  0.59906303  0.47284357  1  0.104159  0  0.107796  0.167454  0  0.979894  0
H  H55  1  0.43447195  0.90093067  0.97284467  1  0.104282  0  0.107762  0.167435  0  0.98015  0
H  H56  1  0.88502649  0.61788952  0.35795844  1  0.073806  0  0.106328  0.16604  0  0.989722  0
H  H57  1  0.11498545  0.88211092  0.85796131  1  0.073924  0  0.106304  0.166025  0  0.989771  0
H  H58  1  0.11497722  0.38210758  0.64203671  1  0.073951  0  0.106325  0.166121  0  0.989692  0
H  H59  1  0.88500961  0.11788957  0.14203671  1  0.073978  0  0.106305  0.166041  0  0.989742  0
H  H60  1  0.97303442  0.61995805  0.43653110  1  0.058446  0  0.096413  0.143712  0  0.994711  0
H  H61  1  0.02697753  0.88004133  0.93653124  1  0.058389  0  0.096408  0.143783  0  0.994808  0
H  H62  1  0.02696805  0.38003370  0.56346692  1  0.058393  0  0.096435  0.143809  0  0.994692  0
H  H63  1  0.97303293  0.11996175  0.06346631  1  0.058352  0  0.096463  0.143844  0  0.99465  0
H  H64  1  0.92286617  0.51562217  0.39470492  1  0.10526  0  0.103953  0.164486  0  0.986372  0
H  H65  1  0.07713733  0.98437306  0.89470850  1  0.105257  0  0.103995  0.164636  0  0.986461  0
H  H66  1  0.07713465  0.48436826  0.60528832  1  0.105151  0  0.103913  0.164494  0  0.986338  0
H  H67  1  0.92285727  0.01562542  0.10528809  1  0.105037  0  0.103952  0.164553  0  0.986353  0
H  H68  1  0.70089483  0.78223838  0.33898029  1  0.053155  0  0.100262  0.157758  0  0.983604  0
H  H69  1  0.29910730  0.71776506  0.83898247  1  0.052713  0  0.100258  0.157761  0  0.983545  0
H  H70  1  0.29909997  0.21776678  0.66102108  1  0.053459  0  0.100243  0.157744  0  0.983582  0
H  H71  1  0.70088895  0.28223475  0.16101889  1  0.052745  0  0.100237  0.157722  0  0.983604  0
H  H72  1  0.54146584  0.81257278  0.39712288  1  0.053932  0  0.094956  0.144799  0  1.010681  0
H  H73  1  0.45853184  0.68742653  0.89712589  1  0.053911  0  0.094885  0.144733  0  1.010674  0
H  H74  1  0.45851410  0.18742042  0.60287848  1  0.053928  0  0.094845  0.144704  0  1.010729  0
H  H75  1  0.54146814  0.31257193  0.10287691  1  0.053926  0  0.094926  0.144766  0  1.010741  0
H  H76  1  0.49904349  0.82829295  0.31445463  1  0.105188  0  0.104267  0.164286  0  1.00847  0
H  H77  1  0.50095180  0.67170267  0.81445692  1  0.105148  0  0.104255  0.164306  0  1.008431  0
H  H78  1  0.50093768  0.17170560  0.68554769  1  0.10532  0  0.104227  0.164311  0  1.008377  0
H  H79  1  0.49904399  0.32829514  0.18554397  1  0.105115  0  0.104279  0.164362  0  1.008418  0
C  C80  1  0.41331302  0.52701715  0.09645064  1  -0.079913  0  -0.245934  -0.495764  0  3.904894  0
C  C81  1  0.58671687  0.97298115  0.59645179  1  -0.080458  0  -0.245886  -0.495771  0  3.905  0
C  C82  1  0.58672323  0.47298112  0.90354546  1  -0.079945  0  -0.245905  -0.495771  0  3.904722  0
C  C83  1  0.41328081  0.02703068  0.40354719  1  -0.080062  0  -0.245717  -0.495447  0  3.904667  0
C  C84  1  0.50378253  0.51993183  0.16036619  1  0.862477  0  0.157437  0.499226  0  3.993492  0
C  C85  1  0.49624244  0.98006648  0.66036661  1  0.862924  0  0.157379  0.499064  0  3.99362  0
C  C86  1  0.49624985  0.48006713  0.83963135  1  0.862604  0  0.157452  0.499176  0  3.993413  0
C  C87  1  0.50375355  0.01993801  0.33963380  1  0.862531  0  0.157289  0.498967  0  3.993198  0
C  C88  1  0.69473758  0.51038216  0.16139048  1  0.053127  0  -0.066213  -0.355695  0  4.069223  0
C  C89  1  0.30528918  0.98961817  0.66139038  1  0.053361  0  -0.066197  -0.355721  0  4.069082  0
C  C90  1  0.30529557  0.48962014  0.83860754  1  0.053126  0  -0.066286  -0.355902  0  4.069104  0
C  C91  1  0.69470320  0.01038233  0.33860859  1  0.053308  0  -0.066246  -0.355724  0  4.069277  0
C  C92  1  0.79317277  0.48665706  0.21758819  1  0.879083  0  0.159617  0.510188  0  3.984651  0
C  C93  1  0.20684308  0.01334217  0.71758542  1  0.878778  0  0.159699  0.510452  0  3.984051  0
C  C94  1  0.20684979  0.51334596  0.78241461  1  0.878226  0  0.159711  0.51053  0  3.983993  0
C  C95  1  0.79314108  0.98665770  0.28241212  1  0.878163  0  0.159696  0.510375  0  3.984458  0
C  C96  1  0.98661622  0.46882307  0.21004747  1  -0.111215  0  -0.248424  -0.500757  0  3.889651  0
C  C97  1  0.01340631  0.03118131  0.71004857  1  -0.111235  0  -0.248467  -0.500933  0  3.889541  0
C  C98  1  0.01341305  0.53117991  0.78995485  1  -0.111098  0  -0.248371  -0.50087  0  3.88972  0
C  C99  1  0.98658193  0.96882456  0.28995423  1  -0.111216  0  -0.248341  -0.500838  0  3.889676  0
C  C100  1  0.78820629  0.51962721  0.10374082  1  0.798791  0  0.191483  0.332841  0  4.113085  0
C  C101  1  0.21181727  0.98037328  0.60373935  1  0.798751  0  0.191581  0.333029  0  4.11277  0
C  C102  1  0.21182712  0.48037041  0.89626006  1  0.799353  0  0.191633  0.33307  0  4.112757  0
C  C103  1  0.78816704  0.01962726  0.39626154  1  0.798999  0  0.191531  0.332887  0  4.112732  0
C  C104  1  0.21288921  0.22205170  0.31144110  1  -0.092848  0  -0.241375  -0.488465  0  3.880899  0
C  C105  1  0.78708835  0.27795634  0.81143785  1  -0.092465  0  -0.241354  -0.488251  0  3.880754  0
C  C106  1  0.78709857  0.77795216  0.68855978  1  -0.092442  0  -0.241386  -0.48823  0  3.880796  0
C  C107  1  0.21290402  0.72204416  0.18856065  1  -0.092263  0  -0.24136  -0.488263  0  3.880705  0
C  C108  1  0.32024092  0.30683860  0.33380434  1  0.893017  0  0.157838  0.504074  0  3.98236  0
C  C109  1  0.67975893  0.19316243  0.83380129  1  0.893214  0  0.157844  0.503894  0  3.982373  0
C  C110  1  0.67975994  0.69315784  0.66619846  1  0.89316  0  0.157883  0.503989  0  3.982379  0
C  C111  1  0.32023299  0.80683607  0.16619768  1  0.893077  0  0.157795  0.503889  0  3.982578  0
C  C112  1  0.36881381  0.31623366  0.40045092  1  0.106364  0  -0.06498  -0.348454  0  4.057624  0
C  C113  1  0.63119840  0.18376667  0.90045168  1  0.106392  0  -0.065004  -0.348549  0  4.057564  0
C  C114  1  0.63119841  0.68376540  0.59954854  1  0.106475  0  -0.065064  -0.348633  0  4.057547  0
C  C115  1  0.36879244  0.81622715  0.09955160  1  0.106197  0  -0.064889  -0.348554  0  4.057721  0
C  C116  1  0.48741047  0.38958532  0.42639126  1  0.868884  0  0.154631  0.497163  0  3.996247  0
C  C117  1  0.51258630  0.11041964  0.92639094  1  0.869015  0  0.154632  0.497123  0  3.996265  0
C  C118  1  0.51258759  0.61041648  0.57360868  1  0.868914  0  0.154655  0.497221  0  3.996117  0
C  C119  1  0.48739099  0.88957960  0.07361234  1  0.869399  0  0.154552  0.497141  0  3.996282  0
C  C120  1  0.54441578  0.38476870  0.49526883  1  -0.136812  0  -0.243992  -0.495922  0  3.906377  0
C  C121  1  0.45557695  0.11524037  0.99526627  1  -0.136661  0  -0.244063  -0.49588  0  3.906411  0
C  C122  1  0.45556497  0.61523386  0.50473397  1  -0.136816  0  -0.243996  -0.495779  0  3.906171  0
C  C123  1  0.54440288  0.88475819  0.00473270  1  -0.136883  0  -0.244046  -0.496008  0  3.906324  0
C  C124  1  0.30176558  0.24909509  0.44305945  1  0.754782  0  0.184952  0.31576  0  4.127943  0
C  C125  1  0.69823775  0.25091018  0.94305702  1  0.754395  0  0.184892  0.315836  0  4.127984  0
C  C126  1  0.69823067  0.75090472  0.55694048  1  0.754687  0  0.184888  0.315725  0  4.128291  0
C  C127  1  0.30176384  0.74908359  0.05694435  1  0.754574  0  0.184689  0.315663  0  4.128061  0
C  C128  1  0.97614251  0.58583661  0.39014132  1  -0.117467  0  -0.241623  -0.497181  0  3.898538  0
C  C129  1  0.02387255  0.91416180  0.89014422  1  -0.117184  0  -0.241566  -0.497315  0  3.898613  0
C  C130  1  0.02386296  0.41415647  0.60985383  1  -0.117052  0  -0.241572  -0.497321  0  3.898398  0
C  C131  1  0.97613476  0.08583929  0.10985619  1  -0.116946  0  -0.241577  -0.497326  0  3.898517  0
C  C132  1  0.16489130  0.59251303  0.36313211  1  0.876282  0  0.157615  0.503514  0  3.985276  0
C  C133  1  0.83511986  0.90749019  0.86313402  1  0.87699  0  0.157501  0.50343  0  3.985586  0
C  C134  1  0.83511002  0.40748542  0.63686161  1  0.87685  0  0.157585  0.503334  0  3.985589  0
C  C135  1  0.16487659  0.09251630  0.13686830  1  0.876731  0  0.157485  0.5034  0  3.985596  0
C  C136  1  0.27279248  0.67815986  0.36347176  1  0.087709  0  -0.061845  -0.35361  0  4.063321  0
C  C137  1  0.72721641  0.82183937  0.86347340  1  0.087914  0  -0.061985  -0.353885  0  4.063443  0
C  C138  1  0.72720538  0.32183527  0.63652673  1  0.087711  0  -0.061863  -0.353628  0  4.063365  0
C  C139  1  0.27278553  0.17816174  0.13653036  1  0.087825  0  -0.061895  -0.353754  0  4.063477  0
C  C140  1  0.46003449  0.69185151  0.34399216  1  0.848428  0  0.155692  0.504891  0  3.98952  0
C  C141  1  0.53997769  0.80814329  0.84399205  1  0.848224  0  0.155814  0.504996  0  3.989338  0
C  C142  1  0.53996161  0.30814763  0.65600538  1  0.848285  0  0.155736  0.504907  0  3.989473  0
C  C143  1  0.46002436  0.19185248  0.15600931  1  0.848229  0  0.155728  0.504947  0  3.98952  0
C  C144  1  0.55700288  0.78435211  0.34923793  1  -0.081388  0  -0.245539  -0.502219  0  3.894161  0
C  C145  1  0.44299778  0.71564553  0.84924032  1  -0.080929  0  -0.245462  -0.502169  0  3.893993  0
C  C146  1  0.44298919  0.21564705  0.65076248  1  -0.081756  0  -0.245387  -0.502178  0  3.893972  0
C  C147  1  0.55699786  0.28435161  0.15076104  1  -0.080856  0  -0.245487  -0.502238  0  3.894182  0
C  C148  1  0.19298088  0.75144626  0.38745596  1  0.773266  0  0.190507  0.324245  0  4.117307  0
C  C149  1  0.80702403  0.74854881  0.88745665  1  0.773404  0  0.190684  0.324317  0  4.117097  0
C  C150  1  0.80701533  0.24854754  0.61254397  1  0.773686  0  0.190608  0.324344  0  4.117298  0
C  C151  1  0.19297430  0.25144832  0.11254662  1  0.773257  0  0.190556  0.324203  0  4.117288  0
N  N152  1  0.86722113  0.52779172  0.05490988  1  -1.267884  0  -0.397894  -0.473674  0  3.359591  0
N  N153  1  0.13280496  0.97220507  0.55491084  1  -1.267803  0  -0.397997  -0.473889  0  3.359532  0
N  N154  1  0.13281524  0.47220120  0.94508671  1  -1.268064  0  -0.398025  -0.473852  0  3.3596  0
N  N155  1  0.86718577  0.02779409  0.44508861  1  -1.267726  0  -0.397937  -0.473741  0  3.359445  0
N  N156  1  0.24591228  0.19352295  0.47946939  1  -1.244783  0  -0.380533  -0.45295  0  3.221876  0
N  N157  1  0.75408282  0.30648378  0.97946890  1  -1.244478  0  -0.380517  -0.453  0  3.221802  0
N  N158  1  0.75406935  0.80647760  0.52052959  1  -1.244825  0  -0.380456  -0.452888  0  3.222239  0
N  N159  1  0.24593159  0.69350725  0.02053438  1  -1.244636  0  -0.380314  -0.452767  0  3.22202  0
N  N160  1  0.12433897  0.81255043  0.40750069  1  -1.247224  0  -0.382395  -0.448885  0  3.293764  0
N  N161  1  0.87566963  0.68744436  0.90749820  1  -1.247487  0  -0.382465  -0.448789  0  3.293746  0
N  N162  1  0.87565632  0.18743936  0.59250545  1  -1.24773  0  -0.38252  -0.448991  0  3.293811  0
N  N163  1  0.12433676  0.31255272  0.09250316  1  -1.24728  0  -0.382386  -0.448735  0  3.293804  0
O  O164  1  0.40978892  0.52061399  0.21037510  1  -1.188301  0  -0.307703  -0.530916  0  2.25386  0
O  O165  1  0.59023155  0.97938536  0.71037535  1  -1.188642  0  -0.307536  -0.530658  0  2.253822  0
O  O166  1  0.59024676  0.47938762  0.78962101  1  -1.18844  0  -0.307562  -0.530735  0  2.25367  0
O  O167  1  0.40974754  0.02061587  0.28962315  1  -1.188378  0  -0.307594  -0.530766  0  2.253306  0
O  O168  1  0.72149548  0.47852369  0.27188907  1  -1.178275  0  -0.312903  -0.528325  0  2.233784  0
O  O169  1  0.27852536  0.02147128  0.77189152  1  -1.178469  0  -0.313094  -0.528576  0  2.233489  0
O  O170  1  0.27853153  0.52147530  0.72810895  1  -1.178014  0  -0.313116  -0.528593  0  2.233477  0
O  O171  1  0.72146686  0.97852855  0.22811080  1  -1.178013  0  -0.312998  -0.528382  0  2.233796  0
O  O172  1  0.36813735  0.36554100  0.29261928  1  -1.191115  0  -0.315734  -0.537463  0  2.235894  0
O  O173  1  0.63187228  0.13445913  0.79261950  1  -1.191192  0  -0.315725  -0.537344  0  2.236007  0
O  O174  1  0.63187833  0.63446138  0.70737826  1  -1.191204  0  -0.315705  -0.537261  0  2.236172  0
O  O175  1  0.36811261  0.86553806  0.20738091  1  -1.191053  0  -0.315707  -0.537286  0  2.236079  0
O  O176  1  0.54596834  0.45713722  0.39433555  1  -1.178082  0  -0.311597  -0.534839  0  2.250652  0
O  O177  1  0.45403694  0.04286770  0.89433411  1  -1.178137  0  -0.311542  -0.534728  0  2.25062  0
O  O178  1  0.45403598  0.54286254  0.60566630  1  -1.178086  0  -0.311573  -0.534807  0  2.250607  0
O  O179  1  0.54594856  0.95713216  0.10566534  1  -1.178171  0  -0.311524  -0.534737  0  2.250725  0
O  O180  1  0.22328251  0.52308674  0.34133125  1  -1.184002  0  -0.313717  -0.541173  0  2.251191  0
O  O181  1  0.77672670  0.97690668  0.84133211  1  -1.185093  0  -0.313664  -0.541046  0  2.251723  0
O  O182  1  0.77672849  0.47690698  0.65866534  1  -1.184845  0  -0.313737  -0.541034  0  2.251618  0
O  O183  1  0.22326160  0.02308782  0.15867021  1  -1.184886  0  -0.31371  -0.541109  0  2.251514  0
O  O184  1  0.54564561  0.63012816  0.32282208  1  -1.192963  0  -0.316673  -0.544445  0  2.225249  0
O  O185  1  0.45436800  0.86987154  0.82281993  1  -1.192756  0  -0.31678  -0.544533  0  2.225067  0
O  O186  1  0.45436197  0.36986825  0.67717738  1  -1.192886  0  -0.316678  -0.544376  0  2.225324  0
O  O187  1  0.54563394  0.13012957  0.17717761  1  -1.192834  0  -0.316678  -0.544384  0  2.225201  0
