# generated using pymatgen
data_YPH11C9SNO9
_symmetry_space_group_name_H-M   'P 1'
_cell_length_a   6.75144125
_cell_length_b   7.51631182
_cell_length_c   13.33551350
_cell_angle_alpha   90.65574151
_cell_angle_beta   93.20596686
_cell_angle_gamma   101.86540828
_symmetry_Int_Tables_number   1
_chemical_formula_structural   YPH11C9SNO9
_chemical_formula_sum   'Y2 P2 H22 C18 S2 N2 O18'
_cell_volume   661.04500142
_cell_formula_units_Z   2
loop_
 _symmetry_equiv_pos_site_id
 _symmetry_equiv_pos_as_xyz
  1  'x, y, z'
loop_
 _atom_site_type_symbol
 _atom_site_label
 _atom_site_symmetry_multiplicity
 _atom_site_fract_x
 _atom_site_fract_y
 _atom_site_fract_z
 _atom_site_occupancy
 _atom_site_hle17_bader_spin_density
 _atom_site_hle17_ddec_charge
 _atom_site_hle17_ddec_spin_density
 _atom_site_hle17_ddec_sum_bond_order
 _atom_site_hle17_magmom
 _atom_site_hse06_10hf_bader_spin_density
 _atom_site_hse06_10hf_ddec_charge
 _atom_site_hse06_10hf_ddec_spin_density
 _atom_site_hse06_10hf_ddec_sum_bond_order
 _atom_site_hse06_10hf_magmom
 _atom_site_hse06_bader_spin_density
 _atom_site_hse06_ddec_charge
 _atom_site_hse06_ddec_spin_density
 _atom_site_hse06_ddec_sum_bond_order
 _atom_site_hse06_magmom
 _atom_site_pbe_bader_spin_density
 _atom_site_pbe_cm5_charge
 _atom_site_pbe_ddec_charge
 _atom_site_pbe_ddec_spin_density
 _atom_site_pbe_ddec_sum_bond_order
 _atom_site_pbe_magmom
Y  Y0  1  0.28478847  0.76836046  0.45513523  1  0  2.160336  0  1.781803  0  0  1.975699  0  2.26124  0  0  2.041065  0  2.198489  0  0  1.322649  1.927729  0  2.30561  0
Y  Y1  1  0.71521154  0.23163772  0.54486444  1  0  2.160277  0  1.781831  0  0  1.975656  0  2.261235  0  0  2.041019  0  2.19849  0  0  1.322653  1.927682  0  2.305603  0
P  P2  1  0.25140180  0.38574887  0.62077520  1  0  1.510645  0  4.929278  0  0  1.337219  0  5.433486  0  0  1.392293  0  5.3897  0  0  0.383945  1.298693  0  5.462699  0
P  P3  1  0.74859409  0.61425068  0.37922435  1  0  1.510675  0  4.929202  0  0  1.337243  0  5.43342  0  0  1.392319  0  5.389631  0  0  0.383948  1.298718  0  5.462626  0
H  H4  1  0.16559774  0.10574390  0.77420073  1  0  0.131116  0  0.935104  0  0  0.141204  0  0.990694  0  0  0.145208  0  0.988689  0  0  0.12323  0.138231  0  0.992439  0
H  H5  1  0.83439635  0.89425429  0.22579801  1  0  0.131101  0  0.935121  0  0  0.141205  0  0.990688  0  0  0.145209  0  0.988683  0  0  0.123226  0.138234  0  0.992432  0
H  H6  1  0.16579230  0.12458514  0.96141491  1  0  0.096427  0  0.929047  0  0  0.111684  0  0.984022  0  0  0.113931  0  0.982453  0  0  0.11345  0.110014  0  0.985193  0
H  H7  1  0.83420920  0.87541303  0.03858479  1  0  0.096421  0  0.929108  0  0  0.111675  0  0.984082  0  0  0.113921  0  0.982513  0  0  0.11346  0.110005  0  0.985253  0
H  H8  1  0.21245275  0.31857811  0.12011682  1  0  0.115471  0  0.957657  0  0  0.123842  0  1.019801  0  0  0.127421  0  1.017238  0  0  0.105412  0.121235  0  1.021633  0
H  H9  1  0.78755319  0.68142004  0.87988152  1  0  0.115511  0  0.957623  0  0  0.123884  0  1.019761  0  0  0.127465  0  1.017197  0  0  0.105429  0.121273  0  1.021598  0
H  H10  1  0.27276705  0.62670029  0.19934439  1  0  0.121571  0  0.951645  0  0  0.129831  0  1.013003  0  0  0.133116  0  1.011617  0  0  0.113902  0.12736  0  1.014286  0
H  H11  1  0.72723593  0.37329788  0.80065686  1  0  0.12159  0  0.951631  0  0  0.129867  0  1.012977  0  0  0.13315  0  1.011593  0  0  0.113927  0.127395  0  1.014261  0
H  H12  1  0.33224259  0.89910828  0.09622640  1  0  0.09615  0  0.95029  0  0  0.105431  0  1.012877  0  0  0.108416  0  1.010829  0  0  0.104161  0.103203  0  1.014437  0
H  H13  1  0.66775510  0.10089264  0.90377546  1  0  0.096131  0  0.950336  0  0  0.105415  0  1.012917  0  0  0.1084  0  1.01087  0  0  0.104147  0.103187  0  1.014478  0
H  H14  1  0.33615822  0.87124168  0.90786790  1  0  0.12027  0  0.967928  0  0  0.127414  0  1.031743  0  0  0.130753  0  1.030563  0  0  0.108138  0.12504  0  1.032588  0
H  H15  1  0.66383947  0.12875923  0.09213171  1  0  0.120263  0  0.967942  0  0  0.12745  0  1.031696  0  0  0.13079  0  1.030513  0  0  0.108149  0.125076  0  1.032541  0
H  H16  1  0.31191862  0.67794436  0.76650108  1  0  0.314048  0  0.904925  0  0  0.289041  0  0.972784  0  0  0.298649  0  0.964937  0  0  0.316755  0.282221  0  0.9784  0
H  H17  1  0.68808023  0.32205518  0.23349931  1  0  0.314047  0  0.904894  0  0  0.28906  0  0.972738  0  0  0.298667  0  0.964893  0  0  0.316772  0.28224  0  0.978354  0
H  H18  1  0.23027533  0.39051625  0.34389722  1  0  0.455155  0  0.834119  0  0  0.425667  0  0.89329  0  0  0.436463  0  0.877535  0  0  0.307315  0.418035  0  0.904422  0
H  H19  1  0.76972416  0.60948602  0.65610320  1  0  0.455091  0  0.834207  0  0  0.42561  0  0.89337  0  0  0.436406  0  0.877615  0  0  0.307286  0.417976  0  0.904504  0
H  H20  1  0.02354371  0.41815223  0.38555696  1  0  0.428485  0  0.866844  0  0  0.39884  0  0.933184  0  0  0.409178  0  0.91793  0  0  0.311522  0.391452  0  0.944079  0
H  H21  1  0.97645514  0.58184732  0.61444268  1  0  0.4285  0  0.866819  0  0  0.398858  0  0.933156  0  0  0.409195  0  0.917904  0  0  0.311538  0.39147  0  0.944052  0
H  H22  1  0.23000784  0.91986217  0.64513349  1  0  0.416334  0  0.896316  0  0  0.385534  0  0.960847  0  0  0.396084  0  0.945298  0  0  0.297594  0.378121  0  0.971762  0
H  H23  1  0.76999133  0.08013873  0.35486542  1  0  0.416317  0  0.896344  0  0  0.385519  0  0.960879  0  0  0.39607  0  0.945329  0  0  0.297588  0.378105  0  0.971794  0
H  H24  1  0.10849060  0.03794348  0.57676437  1  0  0.441345  0  0.857341  0  0  0.412846  0  0.916052  0  0  0.423639  0  0.90047  0  0  0.308186  0.40517  0  0.927141  0
H  H25  1  0.89150825  0.96205607  0.42323602  1  0  0.441344  0  0.85734  0  0  0.412843  0  0.916053  0  0  0.423635  0  0.900473  0  0  0.308184  0.405167  0  0.927141  0
C  C26  1  0.23939498  0.39602893  0.75825320  1  0  0.017241  0  3.5595  0  0  0.022572  0  3.818026  0  0  0.029624  0  3.828171  0  0  0.149517  0.017873  0  3.811557  0
C  C27  1  0.76060239  0.60397062  0.24174640  1  0  0.017285  0  3.559551  0  0  0.022636  0  3.818055  0  0  0.029688  0  3.828198  0  0  0.149543  0.017938  0  3.811585  0
C  C28  1  0.19629274  0.23607539  0.81408311  1  0  -0.071204  0  3.678217  0  0  -0.095574  0  3.937709  0  0  -0.102882  0  3.955967  0  0  -0.061172  -0.091172  0  3.926001  0
C  C29  1  0.80370463  0.76392415  0.18591573  1  0  -0.071226  0  3.678225  0  0  -0.095613  0  3.937711  0  0  -0.10292  0  3.955966  0  0  -0.061178  -0.091212  0  3.926001  0
C  C30  1  0.19610452  0.24754358  0.91721111  1  0  -0.020432  0  3.67025  0  0  -0.048032  0  3.922081  0  0  -0.042052  0  3.937893  0  0  -0.048542  -0.051719  0  3.911489  0
C  C31  1  0.80389762  0.75245731  0.08278788  1  0  -0.020445  0  3.670229  0  0  -0.048035  0  3.92206  0  0  -0.042054  0  3.937867  0  0  -0.048567  -0.05172  0  3.911466  0
C  C32  1  0.23439055  0.41841929  0.96795763  1  0  0.004754  0  3.815258  0  0  0.024512  0  4.041407  0  0  0.019867  0  4.067223  0  0  -1.4e-05  0.027278  0  4.024292  0
C  C33  1  0.76561307  0.58158159  0.03204215  1  0  0.004789  0  3.81527  0  0  0.02454  0  4.041428  0  0  0.019885  0  4.067278  0  0  -1e-06  0.027305  0  4.024312  0
C  C34  1  0.23648892  0.43882754  0.07372721  1  0  -0.099538  0  3.709067  0  0  -0.123857  0  3.964932  0  0  -0.125297  0  3.986041  0  0  -0.083472  -0.122564  0  3.950754  0
C  C35  1  0.76351586  0.56117198  0.92627335  1  0  -0.099617  0  3.709043  0  0  -0.123914  0  3.964914  0  0  -0.125349  0  3.986004  0  0  -0.083474  -0.122622  0  3.95074  0
C  C36  1  0.27202586  0.60980148  0.11812397  1  0  -0.049107  0  3.695655  0  0  -0.069266  0  3.956072  0  0  -0.073143  0  3.978606  0  0  -0.082039  -0.066929  0  3.941298  0
C  C37  1  0.72797860  0.39019669  0.88187732  1  0  -0.049085  0  3.695673  0  0  -0.069288  0  3.956138  0  0  -0.073164  0  3.978672  0  0  -0.082047  -0.066952  0  3.941365  0
C  C38  1  0.30604541  0.76627685  0.05841947  1  0  -0.031241  0  3.743863  0  0  -0.048694  0  4.001215  0  0  -0.048021  0  4.022437  0  0  -0.077838  -0.048856  0  3.986859  0
C  C39  1  0.69395640  0.23372268  0.94158175  1  0  -0.031309  0  3.743948  0  0  -0.048761  0  4.001318  0  0  -0.048087  0  4.02254  0  0  -0.077883  -0.048922  0  3.986962  0
C  C40  1  0.30735106  0.75242641  0.95507356  1  0  -0.176679  0  3.71761  0  0  -0.195705  0  3.971376  0  0  -0.202492  0  3.992738  0  0  -0.091477  -0.191233  0  3.956914  0
C  C41  1  0.69264927  0.24757313  0.04492687  1  0  -0.17663  0  3.717549  0  0  -0.195659  0  3.971286  0  0  -0.202445  0  3.992648  0  0  -0.091453  -0.191187  0  3.956826  0
C  C42  1  0.27216140  0.57769620  0.90912128  1  0  0.215886  0  3.72058  0  0  0.207478  0  3.954768  0  0  0.214516  0  3.976621  0  0  0.124453  0.202868  0  3.940189  0
C  C43  1  0.72784338  0.42230332  0.09087927  1  0  0.215873  0  3.720563  0  0  0.207446  0  3.954777  0  0  0.214482  0  3.976628  0  0  0.124456  0.202836  0  3.940198  0
S  S44  1  0.39638958  0.07987343  0.30923213  1  0  1.572457  0  5.828054  0  0  1.443945  0  6.375491  0  0  1.500624  0  6.339182  0  0  0.567402  1.404656  0  6.399332  0
S  S45  1  0.60361139  0.92012883  0.69076908  1  0  1.572268  0  5.828184  0  0  1.443771  0  6.375613  0  0  1.500448  0  6.3393  0  0  0.567387  1.40448  0  6.399457  0
N  N46  1  0.27376962  0.55729102  0.80671393  1  0  -0.232958  0  3.443446  0  0  -0.169017  0  3.654715  0  0  -0.18396  0  3.67026  0  0  -0.325077  -0.159311  0  3.644553  0
N  N47  1  0.72623071  0.44270851  0.19328575  1  0  -0.232966  0  3.443478  0  0  -0.169045  0  3.654755  0  0  -0.183984  0  3.670294  0  0  -0.325093  -0.159339  0  3.644592  0
O  O48  1  0.24846621  0.57966543  0.58813965  1  0  -0.924701  0  2.030598  0  0  -0.834818  0  2.298313  0  0  -0.864531  0  2.276949  0  0  -0.429718  -0.813556  0  2.312564  0
O  O49  1  0.75153296  0.42033548  0.41186150  1  0  -0.924706  0  2.030553  0  0  -0.834803  0  2.298228  0  0  -0.864524  0  2.276869  0  0  -0.429719  -0.813541  0  2.312482  0
O  O50  1  0.44406888  0.31954539  0.60367471  1  0  -0.895473  0  1.981144  0  0  -0.810971  0  2.261206  0  0  -0.842233  0  2.239915  0  0  -0.428896  -0.788254  0  2.275072  0
O  O51  1  0.55592881  0.68045552  0.39632416  1  0  -0.895469  0  1.981186  0  0  -0.810978  0  2.261283  0  0  -0.842245  0  2.239991  0  0  -0.428865  -0.788259  0  2.275149  0
O  O52  1  0.05903174  0.24939560  0.58461373  1  0  -0.907403  0  2.037116  0  0  -0.8123  0  2.292534  0  0  -0.844357  0  2.273767  0  0  -0.410495  -0.789071  0  2.304607  0
O  O53  1  0.94096446  0.75060531  0.41538509  1  0  -0.907457  0  2.03702  0  0  -0.812351  0  2.292431  0  0  -0.844404  0  2.27366  0  0  -0.41055  -0.789147  0  2.304568  0
O  O54  1  0.26863287  0.89596064  0.28740175  1  0  -0.761219  0  1.966683  0  0  -0.70606  0  2.233953  0  0  -0.730384  0  2.219013  0  0  -0.378684  -0.688631  0  2.243612  0
O  O55  1  0.73136493  0.10404707  0.71259790  1  0  -0.761068  0  1.966647  0  0  -0.705945  0  2.233936  0  0  -0.730263  0  2.218996  0  0  -0.378665  -0.688519  0  2.243596  0
O  O56  1  0.43289598  0.08618971  0.42291126  1  0  -0.853658  0  2.053886  0  0  -0.780017  0  2.323409  0  0  -0.807551  0  2.3076  0  0  -0.412841  -0.760246  0  2.333528  0
O  O57  1  0.56710255  0.91380847  0.57708837  1  0  -0.853604  0  2.053858  0  0  -0.780005  0  2.323427  0  0  -0.807563  0  2.307667  0  0  -0.412848  -0.760235  0  2.333548  0
O  O58  1  0.29718887  0.22605592  0.27448567  1  0  -0.69207  0  1.951589  0  0  -0.635858  0  2.19182  0  0  -0.656216  0  2.172717  0  0  -0.338103  -0.621434  0  2.204536  0
O  O59  1  0.70281538  0.77394769  0.72551639  1  0  -0.69194  0  1.951549  0  0  -0.635792  0  2.191838  0  0  -0.656151  0  2.172737  0  0  -0.338087  -0.621356  0  2.204534  0
O  O60  1  0.59577352  0.09774123  0.26189975  1  0  -0.732193  0  1.987287  0  0  -0.670017  0  2.228445  0  0  -0.692425  0  2.21176  0  0  -0.344071  -0.654158  0  2.23957  0
O  O61  1  0.40422565  0.90225968  0.73810140  1  0  -0.732289  0  1.987407  0  0  -0.670019  0  2.22849  0  0  -0.692425  0  2.211804  0  0  -0.344087  -0.654161  0  2.239617  0
O  O62  1  0.15970173  0.48370989  0.36996410  1  0  -0.892861  0  1.868855  0  0  -0.838129  0  2.069611  0  0  -0.859628  0  2.037173  0  0  -0.616627  -0.822739  0  2.092209  0
O  O63  1  0.84029595  0.51629102  0.63003626  1  0  -0.892837  0  1.868892  0  0  -0.838096  0  2.069619  0  0  -0.859594  0  2.037184  0  0  -0.616624  -0.822704  0  2.092206  0
O  O64  1  0.14090478  0.91473594  0.58283659  1  0  -0.876905  0  1.872459  0  0  -0.82442  0  2.067998  0  0  -0.845637  0  2.036157  0  0  -0.628558  -0.809269  0  2.090132  0
O  O65  1  0.85909407  0.08526360  0.41716305  1  0  -0.876884  0  1.872452  0  0  -0.824398  0  2.067978  0  0  -0.845616  0  2.036139  0  0  -0.628561  -0.809244  0  2.090112  0
