# generated using pymatgen
data_Sm2H14C18SN4O15
_symmetry_space_group_name_H-M   'P 1'
_cell_length_a   9.48236605
_cell_length_b   9.85174882
_cell_length_c   14.21708696
_cell_angle_alpha   91.37773106
_cell_angle_beta   107.68398362
_cell_angle_gamma   118.18329455
_symmetry_Int_Tables_number   1
_chemical_formula_structural   Sm2H14C18SN4O15
_chemical_formula_sum   'Sm4 H28 C36 S2 N8 O30'
_cell_volume   1092.93685642
_cell_formula_units_Z   2
loop_
 _symmetry_equiv_pos_site_id
 _symmetry_equiv_pos_as_xyz
  1  'x, y, z'
loop_
 _atom_site_type_symbol
 _atom_site_label
 _atom_site_symmetry_multiplicity
 _atom_site_fract_x
 _atom_site_fract_y
 _atom_site_fract_z
 _atom_site_occupancy
 _atom_site_hle17_bader_spin_density
 _atom_site_hle17_ddec_charge
 _atom_site_hle17_ddec_spin_density
 _atom_site_hle17_ddec_sum_bond_order
 _atom_site_hle17_magmom
 _atom_site_hse06_10hf_bader_spin_density
 _atom_site_hse06_10hf_ddec_charge
 _atom_site_hse06_10hf_ddec_spin_density
 _atom_site_hse06_10hf_ddec_sum_bond_order
 _atom_site_hse06_10hf_magmom
 _atom_site_hse06_bader_spin_density
 _atom_site_hse06_ddec_charge
 _atom_site_hse06_ddec_spin_density
 _atom_site_hse06_ddec_sum_bond_order
 _atom_site_hse06_magmom
 _atom_site_pbe_bader_spin_density
 _atom_site_pbe_cm5_charge
 _atom_site_pbe_ddec_charge
 _atom_site_pbe_ddec_spin_density
 _atom_site_pbe_ddec_sum_bond_order
 _atom_site_pbe_magmom
Sm  Sm0  1  0.32242283  0.63884943  0.01056389  1  0  2.397916  0  1.575547  0  0  2.311982  0  1.922116  0  0  2.352673  0  1.879681  0  0  1.535939  2.281425  0  1.951586  0
Sm  Sm1  1  0.67757778  0.36115163  0.98943577  1  0  2.397918  0  1.575575  0  0  2.311985  0  1.922145  0  0  2.352672  0  1.879714  0  0  1.53596  2.281425  0  1.951615  0
Sm  Sm2  1  0.59829379  0.92983170  0.84151646  1  0  2.332036  0  1.50966  0  0  2.250415  0  1.829828  0  0  2.290578  0  1.792488  0  0  1.497684  2.152997  0  1.984582  0
Sm  Sm3  1  0.40170441  0.07016702  0.15848338  1  0  2.332029  0  1.509692  0  0  2.250405  0  1.829872  0  0  2.290569  0  1.792532  0  0  1.497654  2.153016  0  1.984571  0
H  H4  1  0.02226113  0.50848586  0.58105172  1  0  0.110044  0  0.963775  0  0  0.118238  0  1.03012  0  0  0.121136  0  1.028908  0  0  0.108217  0.116021  0  1.031469  0
H  H5  1  0.97773753  0.49151168  0.41894959  1  0  0.110053  0  0.96375  0  0  0.118245  0  1.030097  0  0  0.121143  0  1.028889  0  0  0.1082  0.116027  0  1.031447  0
H  H6  1  0.68202745  0.94796525  0.39019588  1  0  0.094241  0  0.937366  0  0  0.106399  0  0.994518  0  0  0.108264  0  0.99215  0  0  0.141935  0.104827  0  0.996399  0
H  H7  1  0.31797075  0.05203346  0.60980396  1  0  0.094232  0  0.937385  0  0  0.1064  0  0.994529  0  0  0.108265  0  0.99216  0  0  0.141941  0.104828  0  0.996409  0
H  H8  1  0.10563906  0.08875432  0.74030740  1  0  0.131052  0  0.962764  0  0  0.139036  0  1.021673  0  0  0.143156  0  1.019117  0  0  0.110575  0.135921  0  1.024105  0
H  H9  1  0.89436025  0.91124439  0.25969266  1  0  0.131078  0  0.962795  0  0  0.139054  0  1.02171  0  0  0.143174  0  1.019154  0  0  0.110568  0.13594  0  1.02414  0
H  H10  1  0.93976675  0.74526527  0.73769616  1  0  0.137184  0  0.952249  0  0  0.144604  0  1.011063  0  0  0.149013  0  1.008159  0  0  0.111051  0.141312  0  1.01383  0
H  H11  1  0.06023450  0.25473697  0.26230365  1  0  0.137199  0  0.952238  0  0  0.144622  0  1.011049  0  0  0.149031  0  1.008144  0  0  0.111059  0.141331  0  1.013815  0
H  H12  1  0.62472064  0.62364930  0.36151311  1  0  0.087896  0  0.932587  0  0  0.098212  0  0.99369  0  0  0.099852  0  0.992561  0  0  0.136713  0.096967  0  0.994591  0
H  H13  1  0.37527932  0.37635058  0.63848710  1  0  0.087907  0  0.932553  0  0  0.098216  0  0.99367  0  0  0.099854  0  0.992542  0  0  0.136716  0.09697  0  0.994572  0
H  H14  1  0.54182409  0.18397017  0.54847253  1  0  0.115802  0  0.947131  0  0  0.124757  0  1.010586  0  0  0.128423  0  1.007622  0  0  0.109195  0.122083  0  1.012905  0
H  H15  1  0.45817651  0.81603089  0.45152784  1  0  0.115812  0  0.947107  0  0  0.124766  0  1.010567  0  0  0.128432  0  1.007603  0  0  0.109198  0.122102  0  1.012873  0
H  H16  1  0.77289626  0.23332616  0.41233281  1  0  0.332978  0  0.907799  0  0  0.312955  0  0.969168  0  0  0.322252  0  0.961233  0  0  0.318875  0.306429  0  0.974557  0
H  H17  1  0.22710259  0.76667372  0.58766647  1  0  0.332948  0  0.907834  0  0  0.312932  0  0.969197  0  0  0.322228  0  0.961262  0  0  0.318879  0.306406  0  0.974585  0
H  H18  1  0.81450158  0.80254748  0.53483344  1  0  0.291033  0  0.954037  0  0  0.262467  0  1.029174  0  0  0.27242  0  1.021476  0  0  0.297947  0.255614  0  1.034349  0
H  H19  1  0.18549837  0.19745240  0.46516607  1  0  0.291035  0  0.954035  0  0  0.262469  0  1.029176  0  0  0.272425  0  1.021474  0  0  0.297935  0.255614  0  1.034353  0
H  H20  1  0.55864821  0.72501609  0.65360882  1  0  0.405087  0  0.910149  0  0  0.362513  0  0.993073  0  0  0.374412  0  0.976319  0  0  0.283438  0.353965  0  1.00489  0
H  H21  1  0.44135064  0.27498380  0.34639117  1  0  0.405096  0  0.910138  0  0  0.362527  0  0.993056  0  0  0.374425  0  0.976302  0  0  0.283441  0.353979  0  1.004872  0
H  H22  1  0.70206416  0.90433153  0.67026955  1  0  0.426387  0  0.838546  0  0  0.402251  0  0.906649  0  0  0.410568  0  0.894543  0  0  0.31242  0.396236  0  0.913478  0
H  H23  1  0.29793644  0.09566953  0.32973011  1  0  0.426395  0  0.838552  0  0  0.40226  0  0.90664  0  0  0.410576  0  0.894536  0  0  0.312424  0.396244  0  0.91348  0
H  H24  1  0.70916189  0.72605864  0.96371760  1  0  0.445798  0  0.844526  0  0  0.415074  0  0.910626  0  0  0.425485  0  0.895106  0  0  0.311801  0.407367  0  0.922008  0
H  H25  1  0.29083807  0.27394125  0.03628191  1  0  0.4458  0  0.844535  0  0  0.415079  0  0.910619  0  0  0.425489  0  0.895101  0  0  0.311801  0.407371  0  0.922004  0
H  H26  1  0.77971616  0.72270698  0.87943922  1  0  0.454392  0  0.81876  0  0  0.430537  0  0.873839  0  0  0.439574  0  0.86074  0  0  0.31859  0.423559  0  0.883919  0
H  H27  1  0.22028490  0.27729291  0.12056051  1  0  0.454398  0  0.818758  0  0  0.430542  0  0.873834  0  0  0.439579  0  0.860734  0  0  0.318588  0.423564  0  0.883913  0
H  H28  1  0.98253574  0.20349280  0.91133172  1  0  0.465151  0  0.785737  0  0  0.43965  0  0.850971  0  0  0.448718  0  0.837737  0  0  0.333471  0.43238  0  0.860156  0
H  H29  1  0.01746421  0.79650708  0.08866779  1  0  0.465153  0  0.785734  0  0  0.439653  0  0.850965  0  0  0.44872  0  0.837733  0  0  0.333468  0.432382  0  0.86015  0
H  H30  1  0.98274889  0.04716637  0.88480849  1  0  0.461067  0  0.81804  0  0  0.431706  0  0.877737  0  0  0.441406  0  0.863501  0  0  0.31546  0.424349  0  0.888394  0
H  H31  1  0.01725106  0.95283352  0.11519173  1  0  0.461087  0  0.818012  0  0  0.431727  0  0.877709  0  0  0.441428  0  0.863471  0  0  0.315467  0.424371  0  0.888365  0
C  C32  1  0.28167889  0.62160963  0.75623620  1  0  0.695364  0  3.856769  0  0  0.646875  0  4.152751  0  0  0.681979  0  4.141579  0  0  0.220211  0.623773  0  4.153524  0
C  C33  1  0.71832217  0.37839025  0.24376423  1  0  0.695361  0  3.85667  0  0  0.646855  0  4.152668  0  0  0.681959  0  4.141493  0  0  0.220214  0.623752  0  4.153443  0
C  C34  1  0.15860373  0.45333012  0.71086453  1  0  -0.081843  0  3.747984  0  0  -0.071867  0  3.990728  0  0  -0.079345  0  4.01282  0  0  -0.014194  -0.067269  0  3.976447  0
C  C35  1  0.84139687  0.54667094  0.28913583  1  0  -0.081768  0  3.747974  0  0  -0.07175  0  3.99067  0  0  -0.079229  0  4.012761  0  0  -0.014161  -0.067153  0  3.976389  0
C  C36  1  0.03629262  0.41578051  0.61476847  1  0  -0.135597  0  3.735419  0  0  -0.169019  0  3.999737  0  0  -0.169232  0  4.019277  0  0  -0.083874  -0.16944  0  3.987888  0
C  C37  1  0.96370623  0.58421937  0.38523293  1  0  -0.135652  0  3.735416  0  0  -0.169076  0  3.999726  0  0  -0.169295  0  4.019274  0  0  -0.083834  -0.169497  0  3.987878  0
C  C38  1  0.93927558  0.25988354  0.56521980  1  0  0.143671  0  3.811932  0  0  0.132679  0  4.064993  0  0  0.135539  0  4.087916  0  0  0.093396  0.130719  0  4.050177  0
C  C39  1  0.06072438  0.74011634  0.43478182  1  0  0.143697  0  3.811889  0  0  0.1327  0  4.064984  0  0  0.135559  0  4.087912  0  0  0.0934  0.130741  0  4.050168  0
C  C40  1  0.77409433  0.03120489  0.45988179  1  0  0.273697  0  3.653439  0  0  0.211699  0  3.936167  0  0  0.229481  0  3.943616  0  0  0.165906  0.200313  0  3.930771  0
C  C41  1  0.22590563  0.96879500  0.54011772  1  0  0.273678  0  3.653405  0  0  0.211679  0  3.936115  0  0  0.22946  0  3.943564  0  0  0.165909  0.200295  0  3.930717  0
C  C42  1  0.96208662  0.14072468  0.61000011  1  0  0.152336  0  3.825856  0  0  0.149606  0  4.08173  0  0  0.154064  0  4.103204  0  0  0.088625  0.146967  0  4.067188  0
C  C43  1  0.03791268  0.85927403  0.38999854  1  0  0.152391  0  3.825737  0  0  0.149624  0  4.081663  0  0  0.154082  0  4.10314  0  0  0.088622  0.146986  0  4.067123  0
C  C44  1  0.08462700  0.17842719  0.70584988  1  0  -0.15467  0  3.695706  0  0  -0.183979  0  3.9487  0  0  -0.186351  0  3.965872  0  0  -0.088093  -0.182526  0  3.93751  0
C  C45  1  0.91537341  0.82157151  0.29415041  1  0  -0.154754  0  3.695783  0  0  -0.184031  0  3.948783  0  0  -0.186407  0  3.965956  0  0  -0.088098  -0.182579  0  3.937594  0
C  C46  1  0.18149098  0.33495547  0.75674409  1  0  -0.056751  0  3.688139  0  0  -0.045143  0  3.925814  0  0  -0.048425  0  3.945632  0  0  -0.005397  -0.043002  0  3.912782  0
C  C47  1  0.81851118  0.66504441  0.24325657  1  0  -0.056782  0  3.688232  0  0  -0.045208  0  3.925935  0  0  -0.048482  0  3.945738  0  0  -0.005436  -0.043067  0  3.912904  0
C  C48  1  0.31802959  0.37113093  0.85800768  1  0  0.742266  0  3.826874  0  0  0.692328  0  4.129635  0  0  0.727575  0  4.116365  0  0  0.241098  0.667976  0  4.139371  0
C  C49  1  0.68196972  0.62886778  0.14199238  1  0  0.742277  0  3.826784  0  0  0.692339  0  4.129555  0  0  0.727587  0  4.116282  0  0  0.241119  0.667988  0  4.139291  0
C  C50  1  0.91022739  0.53504066  0.85775640  1  0  0.747986  0  3.853113  0  0  0.696318  0  4.15783  0  0  0.731486  0  4.143765  0  0  0.24195  0.671921  0  4.168303  0
C  C51  1  0.08977210  0.46496040  0.14224374  1  0  0.747998  0  3.853109  0  0  0.696285  0  4.157897  0  0  0.731447  0  4.143842  0  0  0.241935  0.671888  0  4.16837  0
C  C52  1  0.81540769  0.49912508  0.74608821  1  0  -0.044323  0  3.703897  0  0  -0.032757  0  3.941673  0  0  -0.034951  0  3.962237  0  0  -0.003461  -0.031703  0  3.928468  0
C  C53  1  0.18459292  0.50087598  0.25391216  1  0  -0.044365  0  3.703922  0  0  -0.032761  0  3.941673  0  0  -0.034953  0  3.962238  0  0  -0.003467  -0.031707  0  3.928469  0
C  C54  1  0.85173855  0.62460096  0.69609601  1  0  -0.156909  0  3.682729  0  0  -0.183067  0  3.93528  0  0  -0.186191  0  3.951567  0  0  -0.08817  -0.181307  0  3.92516  0
C  C55  1  0.14826141  0.37539893  0.30390421  1  0  -0.156917  0  3.682741  0  0  -0.183087  0  3.935279  0  0  -0.186209  0  3.951562  0  0  -0.088175  -0.181326  0  3.925157  0
C  C56  1  0.76828088  0.58777778  0.59182107  1  0  0.169714  0  3.795817  0  0  0.156156  0  4.050253  0  0  0.163185  0  4.070335  0  0  0.100125  0.152203  0  4.036168  0
C  C57  1  0.23171797  0.41222210  0.40817892  1  0  0.169705  0  3.795822  0  0  0.156155  0  4.050259  0  0  0.163185  0  4.070338  0  0  0.100112  0.152201  0  4.036175  0
C  C58  1  0.65406507  0.58091031  0.43039074  1  0  0.263115  0  3.678175  0  0  0.201604  0  3.957804  0  0  0.217502  0  3.969874  0  0  0.162445  0.190669  0  3.950382  0
C  C59  1  0.34593359  0.41908723  0.56960777  1  0  0.263138  0  3.678055  0  0  0.201637  0  3.957697  0  0  0.217539  0  3.969763  0  0  0.162464  0.190702  0  3.950274  0
C  C60  1  0.65757548  0.43002651  0.53744493  1  0  0.12086  0  3.839957  0  0  0.11852  0  4.095509  0  0  0.120122  0  4.117255  0  0  0.080072  0.117183  0  4.081116  0
C  C61  1  0.34242447  0.56997338  0.46255528  1  0  0.120867  0  3.839956  0  0  0.118532  0  4.095502  0  0  0.120135  0  4.117248  0  0  0.080088  0.117194  0  4.081111  0
C  C62  1  0.62561969  0.30578063  0.58820775  1  0  -0.132019  0  3.722947  0  0  -0.166789  0  3.986939  0  0  -0.16518  0  4.004456  0  0  -0.084617  -0.1674  0  3.975785  0
C  C63  1  0.37438137  0.69421925  0.41179198  1  0  -0.132037  0  3.722942  0  0  -0.166808  0  3.986929  0  0  -0.165196  0  4.004438  0  0  -0.084627  -0.167427  0  3.975767  0
C  C64  1  0.70094464  0.34091972  0.69348432  1  0  -0.101772  0  3.754111  0  0  -0.090819  0  3.996007  0  0  -0.1006  0  4.020529  0  0  -0.021471  -0.084603  0  3.979848  0
C  C65  1  0.29905596  0.65908134  0.30651534  1  0  -0.101736  0  3.754102  0  0  -0.090788  0  3.995987  0  0  -0.100566  0  4.020507  0  0  -0.021463  -0.084571  0  3.979831  0
C  C66  1  0.65649655  0.20918893  0.74816763  1  0  0.689383  0  3.882738  0  0  0.644959  0  4.176523  0  0  0.680079  0  4.165893  0  0  0.215265  0.621735  0  4.176602  0
C  C67  1  0.34350516  0.79081213  0.25183296  1  0  0.689381  0  3.882745  0  0  0.644948  0  4.176546  0  0  0.680067  0  4.165916  0  0  0.215264  0.621723  0  4.17663  0
S  S68  1  0.71687255  0.02286292  0.08488936  1  0  1.655049  0  5.78959  0  0  1.534937  0  6.343824  0  0  1.591211  0  6.303066  0  0  0.591848  1.496603  0  6.361877  0
S  S69  1  0.28312805  0.97713814  0.91511030  1  0  1.655021  0  5.789374  0  0  1.534907  0  6.343616  0  0  1.591181  0  6.302856  0  0  0.591825  1.496569  0  6.361674  0
N  N70  1  0.81825101  0.18492041  0.46974883  1  0  -0.336241  0  3.350919  0  0  -0.274324  0  3.589245  0  0  -0.292042  0  3.599835  0  0  -0.373954  -0.262715  0  3.582117  0
N  N71  1  0.18174609  0.81507831  0.53025149  1  0  -0.336157  0  3.350868  0  0  -0.274255  0  3.589224  0  0  -0.291972  0  3.599817  0  0  -0.373959  -0.262647  0  3.582097  0
N  N72  1  0.85445228  0.99784832  0.54219108  1  0  -0.434658  0  3.046871  0  0  -0.391173  0  3.315977  0  0  -0.407588  0  3.327872  0  0  -0.336804  -0.38048  0  3.307446  0
N  N73  1  0.14554721  0.00215274  0.45780906  1  0  -0.43469  0  3.046853  0  0  -0.391191  0  3.315966  0  0  -0.407604  0  3.327861  0  0  -0.336798  -0.380498  0  3.307436  0
N  N74  1  0.58859881  0.43051327  0.43616600  1  0  -0.406728  0  3.078071  0  0  -0.351236  0  3.333261  0  0  -0.367514  0  3.346705  0  0  -0.3255  -0.340127  0  3.324683  0
N  N75  1  0.41140115  0.56948661  0.56383422  1  0  -0.406748  0  3.077956  0  0  -0.351262  0  3.333149  0  0  -0.367541  0  3.346593  0  0  -0.325517  -0.340152  0  3.324572  0
N  N76  1  0.76393488  0.68003803  0.52102439  1  0  -0.347784  0  3.396712  0  0  -0.282853  0  3.639972  0  0  -0.302623  0  3.65345  0  0  -0.377423  -0.269467  0  3.630779  0
N  N77  1  0.23606508  0.31996186  0.47897512  1  0  -0.347797  0  3.396727  0  0  -0.28288  0  3.639995  0  0  -0.302654  0  3.653472  0  0  -0.377421  -0.269492  0  3.630804  0
O  O78  1  0.31076936  0.72494519  0.70200112  1  0  -0.663551  0  2.036073  0  0  -0.617015  0  2.271041  0  0  -0.640951  0  2.26283  0  0  -0.332784  -0.593959  0  2.275283  0
O  O79  1  0.68923106  0.27505352  0.29799917  1  0  -0.663588  0  2.036074  0  0  -0.617051  0  2.271053  0  0  -0.640986  0  2.262842  0  0  -0.332808  -0.593996  0  2.275295  0
O  O80  1  0.37309985  0.66421029  0.85126934  1  0  -0.824459  0  2.168571  0  0  -0.775115  0  2.424888  0  0  -0.800116  0  2.41331  0  0  -0.439907  -0.750869  0  2.431907  0
O  O81  1  0.62690296  0.33579077  0.14873007  1  0  -0.824451  0  2.16855  0  0  -0.775098  0  2.424864  0  0  -0.800104  0  2.413303  0  0  -0.439893  -0.750853  0  2.431881  0
O  O82  1  0.29126754  0.39708266  0.93822472  1  0  -0.768009  0  2.035688  0  0  -0.722854  0  2.294665  0  0  -0.745968  0  2.277608  0  0  -0.38624  -0.706732  0  2.307289  0
O  O83  1  0.70873528  0.60291840  0.06177539  1  0  -0.768002  0  2.035589  0  0  -0.722848  0  2.294581  0  0  -0.74596  0  2.277522  0  0  -0.386274  -0.706726  0  2.307204  0
O  O84  1  0.44738144  0.36411986  0.85760931  1  0  -0.70018  0  1.970321  0  0  -0.667031  0  2.223059  0  0  -0.690575  0  2.210984  0  0  -0.375069  -0.650704  0  2.231937  0
O  O85  1  0.55261981  0.63588238  0.14239121  1  0  -0.700202  0  1.970337  0  0  -0.667046  0  2.223073  0  0  -0.690595  0  2.210999  0  0  -0.375066  -0.650719  0  2.23195  0
O  O86  1  0.84670139  0.56586139  0.91711442  1  0  -0.759118  0  2.029079  0  0  -0.713975  0  2.283759  0  0  -0.736756  0  2.267324  0  0  -0.393609  -0.698512  0  2.296666  0
O  O87  1  0.15329810  0.43413967  0.08288642  1  0  -0.759074  0  2.029023  0  0  -0.713919  0  2.283725  0  0  -0.736699  0  2.267294  0  0  -0.39357  -0.698458  0  2.296633  0
O  O88  1  0.05035390  0.53643475  0.88564634  1  0  -0.717405  0  2.057074  0  0  -0.683116  0  2.323456  0  0  -0.70759  0  2.311422  0  0  -0.390686  -0.66622  0  2.332339  0
O  O89  1  0.94964494  0.46356513  0.11435365  1  0  -0.717422  0  2.057108  0  0  -0.683115  0  2.323503  0  0  -0.707594  0  2.311488  0  0  -0.390702  -0.666218  0  2.332386  0
O  O90  1  0.68918018  0.23460974  0.84400222  1  0  -0.806743  0  2.093594  0  0  -0.758342  0  2.347644  0  0  -0.782936  0  2.335391  0  0  -0.412767  -0.735177  0  2.353981  0
O  O91  1  0.31082107  0.76539250  0.15599829  1  0  -0.806743  0  2.093557  0  0  -0.758355  0  2.347647  0  0  -0.78295  0  2.335394  0  0  -0.412755  -0.735191  0  2.353984  0
O  O92  1  0.58466902  0.06898418  0.70019380  1  0  -0.701328  0  1.972139  0  0  -0.660947  0  2.211318  0  0  -0.683709  0  2.200672  0  0  -0.377961  -0.637503  0  2.218594  0
O  O93  1  0.41533204  0.93101570  0.29980664  1  0  -0.701343  0  1.972192  0  0  -0.660953  0  2.211376  0  0  -0.683715  0  2.200731  0  0  -0.377968  -0.637513  0  2.218655  0
O  O94  1  0.72649313  0.13545825  0.01391517  1  0  -0.906172  0  2.098894  0  0  -0.864268  0  2.383471  0  0  -0.883935  0  2.362875  0  0  -0.435554  -0.843555  0  2.393854  0
O  O95  1  0.27350793  0.86454163  0.98608597  1  0  -0.906159  0  2.098797  0  0  -0.864255  0  2.38338  0  0  -0.883919  0  2.362782  0  0  -0.435544  -0.843545  0  2.393765  0
O  O96  1  0.64169356  0.04151458  0.15773136  1  0  -0.807037  0  2.039329  0  0  -0.770307  0  2.31653  0  0  -0.790153  0  2.297675  0  0  -0.405148  -0.748264  0  2.33154  0
O  O97  1  0.35830750  0.95848531  0.84226767  1  0  -0.807026  0  2.039217  0  0  -0.770289  0  2.316405  0  0  -0.790138  0  2.297552  0  0  -0.405134  -0.748244  0  2.331419  0
O  O98  1  0.88519216  0.03993632  0.13551940  1  0  -0.681155  0  1.911313  0  0  -0.618053  0  2.135343  0  0  -0.640765  0  2.119758  0  0  -0.319323  -0.602623  0  2.146639  0
O  O99  1  0.11480844  0.96006474  0.86447955  1  0  -0.681146  0  1.911266  0  0  -0.618046  0  2.135311  0  0  -0.640758  0  2.119727  0  0  -0.319311  -0.602609  0  2.146594  0
O  O100  1  0.59482348  0.86367684  0.01518083  1  0  -0.921931  0  2.149273  0  0  -0.872369  0  2.432199  0  0  -0.893201  0  2.412342  0  0  -0.463609  -0.851264  0  2.443534  0
O  O101  1  0.40517712  0.13632422  0.98481813  1  0  -0.921914  0  2.149279  0  0  -0.872357  0  2.432202  0  0  -0.893189  0  2.412348  0  0  -0.46361  -0.851253  0  2.443538  0
O  O102  1  0.65466550  0.82303088  0.70762046  1  0  -0.889322  0  1.866793  0  0  -0.844118  0  2.069  0  0  -0.862561  0  2.039882  0  0  -0.638969  -0.822629  0  2.092706  0
O  O103  1  0.34533510  0.17697018  0.29238061  1  0  -0.889328  0  1.866789  0  0  -0.844134  0  2.068992  0  0  -0.862577  0  2.039874  0  0  -0.638969  -0.822649  0  2.092705  0
O  O104  1  0.73677770  0.77954734  0.90868438  1  0  -0.902556  0  1.878025  0  0  -0.861483  0  2.070905  0  0  -0.879195  0  2.040181  0  0  -0.641886  -0.840467  0  2.097415  0
O  O105  1  0.26322290  0.22045372  0.09131528  1  0  -0.902578  0  1.878063  0  0  -0.861501  0  2.070925  0  0  -0.879213  0  2.040201  0  0  -0.641891  -0.840489  0  2.097433  0
O  O106  1  0.90854369  0.09332886  0.87756070  1  0  -0.903249  0  1.817385  0  0  -0.86446  0  2.012385  0  0  -0.881693  0  1.982874  0  0  -0.62779  -0.843006  0  2.038071  0
O  O107  1  0.09145737  0.90667102  0.12243974  1  0  -0.903267  0  1.817385  0  0  -0.864478  0  2.01239  0  0  -0.881711  0  1.982879  0  0  -0.627794  -0.843026  0  2.038072  0
