# generated using pymatgen
data_CuH13C7N2O5
_symmetry_space_group_name_H-M   'P 1'
_cell_length_a   7.50281442
_cell_length_b   8.77718392
_cell_length_c   8.81327316
_cell_angle_alpha   100.54674039
_cell_angle_beta   93.06080696
_cell_angle_gamma   115.80815774
_symmetry_Int_Tables_number   1
_chemical_formula_structural   CuH13C7N2O5
_chemical_formula_sum   'Cu2 H26 C14 N4 O10'
_cell_volume   507.82862692
_cell_formula_units_Z   2
loop_
 _symmetry_equiv_pos_site_id
 _symmetry_equiv_pos_as_xyz
  1  'x, y, z'
loop_
 _atom_site_type_symbol
 _atom_site_label
 _atom_site_symmetry_multiplicity
 _atom_site_fract_x
 _atom_site_fract_y
 _atom_site_fract_z
 _atom_site_occupancy
 _atom_site_pbe_cm5_charge
 _atom_site_pbe_ddec_charge
 _atom_site_pbe_ddec_spin_density
 _atom_site_pbe_ddec_sum_bond_order
 _atom_site_pbe_magmom
Cu  Cu0  1  0.49999819  0.00000075  0.99999783  1  0.71099  0.832755  0.749964  2.113807  0.583
Cu  Cu1  1  0.00000064  0.50000170  0.99999944  1  0.714604  0.836867  -0.741609  2.122885  -0.572
H  H2  1  0.23072115  0.90852979  0.17038442  1  0.285999  0.284523  0.000348  0.993921  0.0
H  H3  1  0.76927925  0.09147313  0.82961262  1  0.286026  0.284512  0.000348  0.993898  0.0
H  H4  1  0.27911746  0.09911512  0.13038872  1  0.29516  0.269724  0.000298  0.954632  0.0
H  H5  1  0.72088289  0.90088778  0.86961398  1  0.295168  0.269744  0.000298  0.954602  0.0
H  H6  1  0.83604297  0.67844399  0.95231526  1  0.285665  0.275704  -0.000179  0.998162  0.0
H  H7  1  0.16395070  0.32155628  0.04768550  1  0.285708  0.275752  -0.000178  0.998149  0.0
H  H8  1  0.02537593  0.72657398  0.85114770  1  0.288691  0.282923  -0.000553  0.977404  0.0
H  H9  1  0.97462376  0.27343281  0.14885569  1  0.288689  0.282933  -0.000553  0.977422  0.0
H  H10  1  0.46970934  0.69423230  0.01209486  1  0.283634  0.375347  -0.000109  0.969326  0.0
H  H11  1  0.53029703  0.30576934  0.98790791  1  0.283591  0.375311  -0.000109  0.96942  0.0
H  H12  1  0.30686710  0.61591463  0.85733347  1  0.281345  0.37261  0.00017  0.98045  0.0
H  H13  1  0.69313793  0.38409217  0.14267245  1  0.281345  0.372596  0.00017  0.980441  0.0
H  H14  1  0.50546841  0.03992051  0.37863004  1  0.099366  0.108671  0.000137  1.006386  0.0
H  H15  1  0.49452727  0.96007589  0.62136785  1  0.099374  0.108678  0.000137  1.006398  0.0
H  H16  1  0.34384689  0.13945486  0.40886591  1  0.089892  0.091592  0.004348  1.038795  0.006
H  H17  1  0.65615146  0.86054415  0.59113485  1  0.089895  0.091598  0.004348  1.038832  0.006
H  H18  1  0.57229083  0.24620753  0.33492461  1  0.104083  0.123222  0.000599  1.018543  0.001
H  H19  1  0.42771086  0.75379278  0.66507769  1  0.104078  0.123228  0.000599  1.018585  0.001
H  H20  1  0.89633916  0.20852754  0.41865994  1  0.112639  0.120607  8.4e-05  1.005265  0.0
H  H21  1  0.10366390  0.79147539  0.58133950  1  0.112652  0.120626  8.4e-05  1.005258  0.0
H  H22  1  0.62796636  0.41645496  0.75291166  1  0.10138  0.116433  -0.000543  0.995625  -0.001
H  H23  1  0.37203938  0.58354280  0.24708583  1  0.101369  0.116477  -0.000543  0.995554  -0.001
H  H24  1  0.70451544  0.60543747  0.67566124  1  0.093313  0.099796  -0.004109  1.003193  -0.005
H  H25  1  0.29548493  0.39456025  0.32433712  1  0.093306  0.099831  -0.00411  1.003174  -0.005
H  H26  1  0.82981047  0.47391640  0.64183483  1  0.098835  0.108747  -0.000268  1.00709  -0.001
H  H27  1  0.17019726  0.52608784  0.35816622  1  0.09884  0.108756  -0.000268  1.007064  -0.001
C  C28  1  0.44704751  0.11965693  0.33272184  1  -0.155306  -0.187074  0.002549  3.914788  0.0
C  C29  1  0.55295285  0.88034338  0.66727926  1  -0.155322  -0.187112  0.002549  3.914924  0.0
C  C30  1  0.77447696  0.91990973  0.19240790  1  0.209568  0.562093  0.001946  4.205326  0.0
C  C31  1  0.22551739  0.08006854  0.80758093  1  0.209444  0.561973  0.001946  4.205383  0.0
C  C32  1  0.89656820  0.96126389  0.34883461  1  -0.014575  -0.062549  0.003978  3.960604  0.004
C  C33  1  0.10343420  0.03873774  0.65116230  1  -0.014544  -0.062462  0.003977  3.960714  0.004
C  C34  1  0.94407522  0.11808564  0.45473451  1  -0.078996  -0.126881  -0.001183  3.959222  -0.001
C  C35  1  0.05592651  0.88191470  0.54526213  1  -0.079027  -0.126967  -0.001183  3.959146  -0.001
C  C36  1  0.95377398  0.84152503  0.39513865  1  -0.002912  -0.029901  -0.005871  3.942291  -0.006
C  C37  1  0.04622507  0.15847528  0.60485785  1  -0.002921  -0.029959  -0.005871  3.942411  -0.006
C  C38  1  0.91724047  0.67309680  0.28751838  1  0.214886  0.58381  -0.001288  4.232627  0.001
C  C39  1  0.08275452  0.32690088  0.71248424  1  0.214961  0.583886  -0.001287  4.232371  0.001
C  C40  1  0.75780352  0.52518031  0.72772010  1  -0.151859  -0.17111  -0.002072  3.911892  0.0
C  C41  1  0.24220087  0.47482262  0.27228054  1  -0.151863  -0.171215  -0.002072  3.911805  0.0
N  N42  1  0.34422641  0.03071953  0.17152694  1  -0.650235  -0.515937  0.061935  3.464587  0.076
N  N43  1  0.65577463  0.96928208  0.82847330  1  -0.65025  -0.515904  0.061936  3.464545  0.076
N  N44  1  0.90062479  0.62507991  0.87271822  1  -0.650244  -0.524588  -0.063783  3.449155  -0.078
N  N45  1  0.09937423  0.37492298  0.12728329  1  -0.650273  -0.524624  -0.063787  3.44923  -0.078
O  O46  1  0.74339260  0.04332299  0.15815616  1  -0.316887  -0.548114  0.048042  2.349729  0.066
O  O47  1  0.25660109  0.95666952  0.84183865  1  -0.316868  -0.548074  0.04802  2.350016  0.066
O  O48  1  0.70607428  0.76765998  0.10746524  1  -0.30538  -0.539589  0.000523  2.224966  0.001
O  O49  1  0.29393076  0.23233906  0.89253586  1  -0.305336  -0.539589  0.000524  2.224573  0.001
O  O50  1  0.78684618  0.53272013  0.30981374  1  -0.311716  -0.539915  -0.001624  2.174855  -0.003
O  O51  1  0.21314746  0.46728013  0.69019042  1  -0.311708  -0.539904  -0.001624  2.174777  -0.003
O  O52  1  0.03794986  0.69116179  0.18584733  1  -0.317362  -0.547502  -0.05191  2.37908  -0.072
O  O53  1  0.96204110  0.30883587  0.81415622  1  -0.317439  -0.547576  -0.051911  2.378944  -0.072
O  O54  1  0.34318875  0.68980578  0.96609253  1  -0.601752  -0.817417  0.004369  2.149004  0.006
O  O55  1  0.65681096  0.31019583  0.03390650  1  -0.601719  -0.817361  0.004371  2.14907  0.006
