# generated using pymatgen
data_CdH20C19(NO)4
_symmetry_space_group_name_H-M   'P 1'
_cell_length_a   9.75465214
_cell_length_b   10.73909833
_cell_length_c   23.45205723
_cell_angle_alpha   89.99987115
_cell_angle_beta   90.00014198
_cell_angle_gamma   102.65813033
_symmetry_Int_Tables_number   1
_chemical_formula_structural   CdH20C19(NO)4
_chemical_formula_sum   'Cd4 H80 C76 N16 O16'
_cell_volume   2397.03625848
_cell_formula_units_Z   4
loop_
 _symmetry_equiv_pos_site_id
 _symmetry_equiv_pos_as_xyz
  1  'x, y, z'
loop_
 _atom_site_type_symbol
 _atom_site_label
 _atom_site_symmetry_multiplicity
 _atom_site_fract_x
 _atom_site_fract_y
 _atom_site_fract_z
 _atom_site_occupancy
 _atom_site_pbe_bader_charge
 _atom_site_pbe_bader_spin_density
 _atom_site_pbe_cm5_charge
 _atom_site_pbe_ddec_charge
 _atom_site_pbe_ddec_spin_density
 _atom_site_pbe_ddec_sum_bond_order
 _atom_site_pbe_magmom
Cd  Cd0  1  0.47414193  0.31934083  0.10510045  1  1.232624  0  0.769523  0.845489  0  2.177724  0
Cd  Cd1  1  0.02585905  0.68065787  0.60510138  1  1.23256  0  0.76954  0.845495  0  2.177751  0
Cd  Cd2  1  0.52585961  0.68065581  0.89489753  1  1.232563  0  0.769556  0.845518  0  2.177811  0
Cd  Cd3  1  0.97413938  0.31934264  0.39489917  1  1.232565  0  0.769527  0.845459  0  2.177775  0
H  H4  1  0.24249272  0.96869751  0.98549313  1  0.100383  0  0.105594  0.109701  0  1.010295  0
H  H5  1  0.25750675  0.03131029  0.48549441  1  0.100324  0  0.105553  0.109694  0  1.010287  0
H  H6  1  0.75750339  0.03130591  0.01450443  1  0.100315  0  0.10554  0.109663  0  1.010291  0
H  H7  1  0.74249320  0.96869212  0.51450741  1  0.100331  0  0.105577  0.109697  0  1.010286  0
H  H8  1  0.95906519  0.16981803  0.06577673  1  0.080059  0  0.103869  0.106523  0  1.031029  0
H  H9  1  0.54092860  0.83017985  0.56577836  1  0.080043  0  0.103898  0.10654  0  1.031059  0
H  H10  1  0.04093096  0.83018156  0.93422126  1  0.080036  0  0.103895  0.106554  0  1.03104  0
H  H11  1  0.45907213  0.16982159  0.43422346  1  0.080007  0  0.103884  0.106543  0  1.03099  0
H  H12  1  0.77770729  0.53328152  0.95724621  1  0.106844  0  0.098392  0.102644  0  1.041737  0
H  H13  1  0.72229430  0.46671761  0.45724659  1  0.10683  0  0.098388  0.102646  0  1.041746  0
H  H14  1  0.22229601  0.46671797  0.04275305  1  0.106823  0  0.098411  0.102665  0  1.04172  0
H  H15  1  0.27770569  0.53328096  0.54275396  1  0.106823  0  0.098393  0.102614  0  1.041754  0
H  H16  1  0.99295765  0.37989258  0.09105672  1  0.091449  0  0.098996  0.100816  0  1.025823  0
H  H17  1  0.50704594  0.62010697  0.59105726  1  0.091435  0  0.099012  0.100814  0  1.025768  0
H  H18  1  0.00704613  0.62010882  0.90894255  1  0.091418  0  0.099022  0.100821  0  1.025744  0
H  H19  1  0.49295376  0.37989448  0.40894329  1  0.091465  0  0.098989  0.10081  0  1.025823  0
H  H20  1  0.53891203  0.61443031  0.05264694  1  0.19696  0  0.141337  0.123295  0  1.002374  0
H  H21  1  0.96108884  0.38556752  0.55264734  1  0.19698  0  0.141328  0.123286  0  1.002413  0
H  H22  1  0.46108922  0.38556921  0.94735360  1  0.19695  0  0.141329  0.123275  0  1.0024  0
H  H23  1  0.03890735  0.61442824  0.44735278  1  0.197016  0  0.141325  0.123334  0  1.002376  0
H  H24  1  0.27700164  0.48240512  0.19279023  1  0.104382  0  0.115722  0.110015  0  1.01617  0
H  H25  1  0.22299799  0.51759422  0.69279067  1  0.104404  0  0.115724  0.110003  0  1.016166  0
H  H26  1  0.72299201  0.51758875  0.80720733  1  0.104554  0  0.115689  0.109981  0  1.016167  0
H  H27  1  0.77700527  0.48240910  0.30720646  1  0.104507  0  0.115698  0.10997  0  1.016199  0
H  H28  1  0.24636114  0.72656115  0.16405913  1  0.080602  0  0.121134  0.119856  0  1.002459  0
H  H29  1  0.25364370  0.27343919  0.66405943  1  0.080566  0  0.121137  0.119864  0  1.002428  0
H  H30  1  0.75363252  0.27343273  0.83594013  1  0.080567  0  0.121118  0.11988  0  1.002279  0
H  H31  1  0.74636238  0.72656313  0.33593898  1  0.080583  0  0.121104  0.119848  0  1.002262  0
H  H32  1  0.32014114  0.84360848  0.05620248  1  0.036105  0  0.108691  0.09007  0  0.979651  0
H  H33  1  0.17986369  0.15639036  0.55620452  1  0.036077  0  0.108701  0.0901  0  0.979557  0
H  H34  1  0.67985758  0.15638916  0.94379807  1  0.036103  0  0.108699  0.090086  0  0.979626  0
H  H35  1  0.82013936  0.84360817  0.44379645  1  0.036113  0  0.108707  0.090107  0  0.979593  0
H  H36  1  0.48734030  0.82225254  0.03332143  1  0.127443  0  0.115656  0.112629  0  1.003588  0
H  H37  1  0.01266695  0.17774826  0.53332072  1  0.127485  0  0.115635  0.112624  0  1.003629  0
H  H38  1  0.51265662  0.17774608  0.96667955  1  0.127388  0  0.115633  0.112591  0  1.003714  0
H  H39  1  0.98733688  0.82224930  0.46667940  1  0.127439  0  0.115645  0.112677  0  1.003566  0
H  H40  1  0.42482924  0.95112680  0.14467233  1  0.003919  0  0.081495  0.063463  0  1.022435  0
H  H41  1  0.07516888  0.04887180  0.64467267  1  0.004052  0  0.08153  0.06348  0  1.022407  0
H  H42  1  0.57516821  0.04886990  0.85532865  1  0.003968  0  0.081498  0.063478  0  1.022395  0
H  H43  1  0.92483340  0.95112771  0.35532788  1  0.004097  0  0.081511  0.063486  0  1.022399  0
H  H44  1  0.50816119  0.02782592  0.08374812  1  0.070357  0  0.097354  0.105791  0  0.994956  0
H  H45  1  0.99183853  0.97217468  0.58374752  1  0.070372  0  0.097348  0.105767  0  0.994986  0
H  H46  1  0.49183573  0.97217270  0.91625327  1  0.070323  0  0.097339  0.105789  0  0.995007  0
H  H47  1  0.00816350  0.02782387  0.41625302  1  0.070356  0  0.09735  0.105777  0  0.995005  0
H  H48  1  0.70365519  0.90732512  0.09718497  1  0.030744  0  0.08923  0.08362  0  1.005112  0
H  H49  1  0.79634509  0.09267733  0.59718337  1  0.030684  0  0.089189  0.083599  0  1.005119  0
H  H50  1  0.29634222  0.09267541  0.90281600  1  0.030687  0  0.089197  0.0836  0  1.005138  0
H  H51  1  0.20365719  0.90732217  0.40281675  1  0.030658  0  0.089167  0.083574  0  1.005133  0
H  H52  1  0.61952638  0.83713104  0.15947289  1  -0.010118  0  0.083666  0.071026  0  0.996638  0
H  H53  1  0.88047421  0.16287117  0.65947215  1  -0.010118  0  0.08367  0.071036  0  0.996656  0
H  H54  1  0.38047410  0.16286945  0.84052765  1  -0.010115  0  0.083653  0.071022  0  0.996685  0
H  H55  1  0.11952704  0.83712835  0.34052839  1  -0.010123  0  0.083686  0.071063  0  0.996611  0
H  H56  1  0.72772462  0.12666890  0.14158874  1  0.098411  0  0.096995  0.116096  0  1.000274  0
H  H57  1  0.77227486  0.87333339  0.64158759  1  0.098026  0  0.097001  0.116076  0  1.000283  0
H  H58  1  0.27227177  0.87333165  0.85841138  1  0.098407  0  0.09697  0.116052  0  1.000307  0
H  H59  1  0.22772664  0.12666708  0.35841253  1  0.098027  0  0.097002  0.116086  0  1.00028  0
H  H60  1  0.64295554  0.05463735  0.20344301  1  0.014052  0  0.086182  0.078497  0  1.016631  0
H  H61  1  0.85704401  0.94536374  0.70344144  1  0.014103  0  0.086188  0.078452  0  1.016645  0
H  H62  1  0.35704188  0.94536317  0.79655796  1  0.014103  0  0.086212  0.078531  0  1.016605  0
H  H63  1  0.14295802  0.05463481  0.29655868  1  0.014132  0  0.086203  0.07849  0  1.016622  0
H  H64  1  0.83529503  0.93113937  0.21543137  1  0.037976  0  0.105628  0.077748  0  0.969191  0
H  H65  1  0.66470686  0.06886260  0.71543051  1  0.037983  0  0.105636  0.07777  0  0.969168  0
H  H66  1  0.16470618  0.06886398  0.78456917  1  0.038003  0  0.105622  0.077735  0  0.969166  0
H  H67  1  0.33529644  0.93113688  0.28456919  1  0.038018  0  0.105617  0.077748  0  0.969174  0
H  H68  1  0.92284692  0.01350803  0.15568447  1  0.080627  0  0.114457  0.095801  0  0.976693  0
H  H69  1  0.57715312  0.98649612  0.65568385  1  0.080579  0  0.114442  0.095805  0  0.976692  0
H  H70  1  0.07715123  0.98649537  0.84431565  1  0.08057  0  0.114464  0.095802  0  0.976655  0
H  H71  1  0.42284989  0.01350625  0.34431585  1  0.080568  0  0.114449  0.095781  0  0.976678  0
H  H72  1  0.08721121  0.22212372  0.17210424  1  0.21902  0  0.12046  0.1402  0  1.071536  0
H  H73  1  0.41278983  0.77787760  0.67210375  1  0.218981  0  0.12047  0.140238  0  1.071486  0
H  H74  1  0.91278927  0.77787677  0.82789674  1  0.218976  0  0.120467  0.140237  0  1.071548  0
H  H75  1  0.58721216  0.22212477  0.32789722  1  0.218942  0  0.120469  0.140209  0  1.071507  0
H  H76  1  0.15321686  0.37530292  0.26943851  1  0.107547  0  0.120024  0.114664  0  0.998642  0
H  H77  1  0.34678061  0.62469424  0.76943683  1  0.10754  0  0.119997  0.114633  0  0.998563  0
H  H78  1  0.84678643  0.62469657  0.73056246  1  0.107553  0  0.120024  0.114645  0  0.998606  0
H  H79  1  0.65321864  0.37530147  0.23056115  1  0.107559  0  0.12001  0.114659  0  0.998608  0
H  H80  1  0.79301650  0.08901946  0.30377286  1  0.123685  0  0.134506  0.099394  0  1.001806  0
H  H81  1  0.70698253  0.91098126  0.80377245  1  0.123795  0  0.134482  0.099347  0  1.001758  0
H  H82  1  0.20698165  0.91098393  0.69622726  1  0.12377  0  0.134522  0.099375  0  1.001819  0
H  H83  1  0.29301824  0.08901635  0.19622724  1  0.123784  0  0.134531  0.099403  0  1.00179  0
C  C84  1  0.23411101  0.16004457  0.06000671  1  1.544663  0  0.190391  0.550437  0  4.238881  0
C  C85  1  0.26588461  0.83995822  0.56000900  1  1.544718  0  0.190613  0.550661  0  4.238549  0
C  C86  1  0.76588539  0.83995597  0.93999127  1  1.544659  0  0.190595  0.550576  0  4.238574  0
C  C87  1  0.73411510  0.16004324  0.43999240  1  1.544673  0  0.190515  0.55055  0  4.238797  0
C  C88  1  0.11333971  0.07705314  0.02915055  1  -0.003642  0  -0.017984  -0.025985  0  3.980071  0
C  C89  1  0.38665702  0.92295070  0.52915288  1  -0.003687  0  -0.018058  -0.026063  0  3.979985  0
C  C90  1  0.88665640  0.92295028  0.97084658  1  -0.003703  0  -0.018025  -0.025944  0  3.980029  0
C  C91  1  0.61334346  0.07704978  0.47084852  1  -0.00366  0  -0.018042  -0.026166  0  3.980129  0
C  C92  1  0.13583530  0.98180216  0.99162259  1  -0.112337  0  -0.088187  -0.10838  0  3.992491  0
C  C93  1  0.36416244  0.01820276  0.49162400  1  -0.112086  0  -0.088086  -0.108258  0  3.992313  0
C  C94  1  0.86416032  0.01819935  0.00837539  1  -0.112152  0  -0.088122  -0.108353  0  3.992481  0
C  C95  1  0.63583776  0.98180060  0.50837782  1  -0.112364  0  -0.08811  -0.108168  0  3.992352  0
C  C96  1  0.97631568  0.09462276  0.03729782  1  -0.012696  0  -0.084913  -0.099058  0  3.976683  0
C  C97  1  0.52367797  0.90537523  0.53729894  1  -0.012803  0  -0.08499  -0.09924  0  3.976774  0
C  C98  1  0.02367818  0.90537590  0.96270102  1  -0.012841  0  -0.084986  -0.09922  0  3.9768  0
C  C99  1  0.47632174  0.09462623  0.46270204  1  -0.012672  0  -0.084934  -0.099115  0  3.976603  0
C  C100  1  0.73308560  0.39629673  0.05490197  1  1.540065  0  0.186172  0.553845  0  4.233987  0
C  C101  1  0.76691475  0.60370301  0.55490279  1  1.540067  0  0.186173  0.553888  0  4.234044  0
C  C102  1  0.26691717  0.60370468  0.94509687  1  1.540084  0  0.186269  0.554064  0  4.233943  0
C  C103  1  0.23308344  0.39629655  0.44509776  1  1.540064  0  0.186195  0.553882  0  4.234068  0
C  C104  1  0.87111349  0.44984586  0.02671387  1  -0.045565  0  -0.021336  -0.030059  0  3.974639  0
C  C105  1  0.62888672  0.55015399  0.52671460  1  -0.045511  0  -0.021332  -0.030062  0  3.97456  0
C  C106  1  0.12888903  0.55015460  0.97328540  1  -0.045438  0  -0.02139  -0.030147  0  3.974637  0
C  C107  1  0.37111147  0.44984557  0.47328594  1  -0.045519  0  -0.021341  -0.03  0  3.974584  0
C  C108  1  0.87541538  0.51848934  0.97555597  1  -0.043363  0  -0.089883  -0.09638  0  3.968512  0
C  C109  1  0.62458630  0.48150972  0.47555665  1  -0.043426  0  -0.089878  -0.096335  0  3.96854  0
C  C110  1  0.12458689  0.48151016  0.02444330  1  -0.043385  0  -0.089904  -0.096434  0  3.968579  0
C  C111  1  0.37541267  0.51848888  0.52444347  1  -0.043383  0  -0.089861  -0.096318  0  3.968467  0
C  C112  1  0.99679229  0.43224389  0.05107385  1  -0.048151  0  -0.090062  -0.102428  0  3.990485  0
C  C113  1  0.50320727  0.56775683  0.55107401  1  -0.048168  0  -0.090094  -0.102462  0  3.99033  0
C  C114  1  0.00320946  0.56775753  0.94892542  1  -0.048216  0  -0.090068  -0.10239  0  3.990272  0
C  C115  1  0.49679117  0.43224369  0.44892654  1  -0.048134  0  -0.090067  -0.102534  0  3.990546  0
C  C116  1  0.46677051  0.61187174  0.08796833  1  0.978802  0  0.146536  0.104209  0  3.909788  0
C  C117  1  0.03323014  0.38812608  0.58796870  1  0.978804  0  0.146523  0.104127  0  3.909913  0
C  C118  1  0.53322923  0.38812588  0.91203222  1  0.97881  0  0.146563  0.104206  0  3.909773  0
C  C119  1  0.96676858  0.61187156  0.41203099  1  0.978817  0  0.146492  0.104051  0  3.909796  0
C  C120  1  0.32902245  0.54720117  0.16012486  1  0.426525  0  -0.007519  -0.036304  0  4.053394  0
C  C121  1  0.17098032  0.45279922  0.66012489  1  0.426459  0  -0.007483  -0.036267  0  4.053369  0
C  C122  1  0.67097324  0.45279268  0.83987398  1  0.425876  0  -0.007429  -0.036187  0  4.053326  0
C  C123  1  0.82902523  0.54720503  0.33987268  1  0.426324  0  -0.007374  -0.036098  0  4.053401  0
C  C124  1  0.31260229  0.66746832  0.14635670  1  0.308772  0  -0.008742  -0.130121  0  3.96872  0
C  C125  1  0.18739964  0.33253309  0.64635687  1  0.308767  0  -0.008759  -0.130142  0  3.968657  0
C  C126  1  0.68739083  0.33252748  0.85364299  1  0.309336  0  -0.008779  -0.130295  0  3.968568  0
C  C127  1  0.81260517  0.66746830  0.35364155  1  0.308746  0  -0.00879  -0.130264  0  3.968669  0
C  C128  1  0.42259207  0.82950493  0.07098333  1  0.296113  0  -0.051388  -0.069436  0  3.862776  0
C  C129  1  0.07741231  0.17049577  0.57098355  1  0.296194  0  -0.051459  -0.069596  0  3.862861  0
C  C130  1  0.57740514  0.17049081  0.92901807  1  0.296106  0  -0.051394  -0.069454  0  3.86273  0
C  C131  1  0.92259099  0.82950371  0.42901700  1  0.295944  0  -0.051448  -0.069597  0  3.862791  0
C  C132  1  0.49485582  0.93980221  0.10908914  1  -0.024335  0  -0.164986  -0.166179  0  3.948765  0
C  C133  1  0.00514465  0.06019840  0.60908854  1  -0.024583  0  -0.164967  -0.166089  0  3.948735  0
C  C134  1  0.50513983  0.06019547  0.89091184  1  -0.024339  0  -0.164939  -0.16614  0  3.948796  0
C  C135  1  0.99485787  0.93980206  0.39091200  1  -0.024482  0  -0.164962  -0.16614  0  3.948843  0
C  C136  1  0.63578957  0.92369325  0.13272638  1  0.004686  0  -0.167456  -0.141449  0  3.954798  0
C  C137  1  0.86421190  0.07630905  0.63272486  1  0.004784  0  -0.16746  -0.141495  0  3.954744  0
C  C138  1  0.36420809  0.07630824  0.86727460  1  0.004698  0  -0.167469  -0.141493  0  3.954875  0
C  C139  1  0.13579139  0.92369044  0.36727526  1  0.004704  0  -0.167459  -0.141484  0  3.954798  0
C  C140  1  0.71004250  0.03916326  0.16751614  1  -0.039381  0  -0.168935  -0.177363  0  3.93031  0
C  C141  1  0.78995813  0.96083891  0.66751449  1  -0.039076  0  -0.168931  -0.177275  0  3.930208  0
C  C142  1  0.28995516  0.96083822  0.83248440  1  -0.039378  0  -0.168911  -0.177328  0  3.930312  0
C  C143  1  0.21004415  0.03916059  0.33248563  1  -0.038998  0  -0.168906  -0.177306  0  3.930272  0
C  C144  1  0.85019304  0.02035114  0.19074361  1  0.289404  0  -0.047173  -0.053018  0  3.894972  0
C  C145  1  0.64980770  0.97965094  0.69074264  1  0.289429  0  -0.04719  -0.053064  0  3.894845  0
C  C146  1  0.14980588  0.97965128  0.80925694  1  0.28936  0  -0.047166  -0.052961  0  3.894925  0
C  C147  1  0.35019457  0.02034856  0.30925747  1  0.289356  0  -0.047179  -0.052977  0  3.894885  0
C  C148  1  0.03739477  0.21860888  0.21382507  1  0.291953  0  -0.001557  -0.12008  0  3.908171  0
C  C149  1  0.46260239  0.78139233  0.71382549  1  0.291921  0  -0.001563  -0.120125  0  3.908263  0
C  C150  1  0.96260698  0.78139254  0.78617675  1  0.291875  0  -0.001509  -0.120047  0  3.908122  0
C  C151  1  0.53739478  0.21860724  0.28617634  1  0.292019  0  -0.001562  -0.120036  0  3.908162  0
C  C152  1  0.06786951  0.29357685  0.26171680  1  0.366703  0  -0.004991  -0.039726  0  4.025224  0
C  C153  1  0.43213120  0.70642508  0.76171683  1  0.366746  0  -0.005022  -0.039752  0  4.025227  0
C  C154  1  0.93213122  0.70642459  0.73828332  1  0.366793  0  -0.005071  -0.039805  0  4.025115  0
C  C155  1  0.56787185  0.29357345  0.23828286  1  0.366666  0  -0.00501  -0.039801  0  4.025359  0
C  C156  1  0.88313086  0.14615344  0.28195134  1  0.969646  0  0.136861  0.076403  0  3.959069  0
C  C157  1  0.61686859  0.85384543  0.78195047  1  0.969568  0  0.13692  0.076437  0  3.959035  0
C  C158  1  0.11686831  0.85384993  0.71804878  1  0.969721  0  0.136856  0.076403  0  3.959087  0
C  C159  1  0.38313320  0.14615216  0.21804880  1  0.969578  0  0.13683  0.076391  0  3.95916  0
N  N160  1  0.42562731  0.51383119  0.12345437  1  -1.235681  0  -0.367648  -0.309581  0  3.553525  0
N  N161  1  0.07437377  0.48616744  0.62345469  1  -1.235571  0  -0.367681  -0.309575  0  3.553592  0
N  N162  1  0.57437015  0.48616550  0.87654490  1  -1.235467  0  -0.367661  -0.309565  0  3.553587  0
N  N163  1  0.92562646  0.51383209  0.37654415  1  -1.235595  0  -0.367687  -0.309561  0  3.553466  0
N  N164  1  0.40024570  0.70659352  0.10034840  1  -1.241165  0  -0.241434  0.051021  0  3.775142  0
N  N165  1  0.09975882  0.29340707  0.60034809  1  -1.241182  0  -0.241327  0.051198  0  3.775046  0
N  N166  1  0.59975175  0.29340318  0.89965172  1  -1.24122  0  -0.241433  0.051102  0  3.77479  0
N  N167  1  0.90024244  0.70659244  0.39965118  1  -1.240979  0  -0.241337  0.051171  0  3.775055  0
N  N168  1  0.92070711  0.12482905  0.22767809  1  -1.236172  0  -0.243658  0.041969  0  3.778088  0
N  N169  1  0.57929128  0.87517101  0.72767759  1  -1.236132  0  -0.243667  0.041958  0  3.778133  0
N  N170  1  0.07929206  0.87517433  0.77232203  1  -1.236255  0  -0.243683  0.041904  0  3.778266  0
N  N171  1  0.42070870  0.12482756  0.27232253  1  -1.236163  0  -0.243658  0.041905  0  3.778227  0
N  N172  1  0.97100303  0.24743143  0.30372810  1  -1.213877  0  -0.361053  -0.290132  0  3.567205  0
N  N173  1  0.52899702  0.75256927  0.80372852  1  -1.21391  0  -0.361027  -0.290055  0  3.567177  0
N  N174  1  0.02899794  0.75257096  0.69627202  1  -1.213905  0  -0.361021  -0.290046  0  3.567166  0
N  N175  1  0.47100579  0.24742831  0.19627160  1  -1.21387  0  -0.361016  -0.290074  0  3.567328  0
O  O176  1  0.35904494  0.16374275  0.04161692  1  -1.160267  0  -0.333656  -0.558705  0  2.213244  0
O  O177  1  0.14095153  0.83626776  0.54161865  1  -1.16036  0  -0.333769  -0.558804  0  2.212983  0
O  O178  1  0.64095138  0.83626546  0.95838022  1  -1.160318  0  -0.333721  -0.558724  0  2.212996  0
O  O179  1  0.85904765  0.16373562  0.45838275  1  -1.160345  0  -0.333726  -0.558739  0  2.213125  0
O  O180  1  0.20981912  0.22396429  0.10293851  1  -1.189935  0  -0.327541  -0.55912  0  2.198951  0
O  O181  1  0.29017544  0.77603739  0.60293875  1  -1.189932  0  -0.327611  -0.559203  0  2.199071  0
O  O182  1  0.79017731  0.77603242  0.89706118  1  -1.18996  0  -0.327596  -0.559181  0  2.199068  0
O  O183  1  0.70982144  0.22396507  0.39706265  1  -1.189876  0  -0.327589  -0.559141  0  2.199038  0
O  O184  1  0.62329182  0.42618796  0.03399158  1  -1.164937  0  -0.332218  -0.554897  0  2.22831  0
O  O185  1  0.87670994  0.57381375  0.53399254  1  -1.164931  0  -0.332236  -0.554931  0  2.228349  0
O  O186  1  0.37671017  0.57381442  0.96600684  1  -1.165031  0  -0.332234  -0.554957  0  2.228352  0
O  O187  1  0.12329078  0.42618769  0.46600800  1  -1.164991  0  -0.332215  -0.554915  0  2.228366  0
O  O188  1  0.72785353  0.32386610  0.09838475  1  -1.178755  0  -0.346563  -0.576806  0  2.143938  0
O  O189  1  0.77214908  0.67613344  0.59838551  1  -1.178781  0  -0.346553  -0.57681  0  2.143981  0
O  O190  1  0.27214899  0.67613436  0.90161409  1  -1.178818  0  -0.346604  -0.576883  0  2.14389  0
O  O191  1  0.22785115  0.32386609  0.40161546  1  -1.178747  0  -0.346567  -0.576805  0  2.143938  0
