# generated using pymatgen
data_NaH8C8(NO)3
_symmetry_space_group_name_H-M   'P 1'
_cell_length_a   5.16256696
_cell_length_b   8.20938119
_cell_length_c   21.98951425
_cell_angle_alpha   90.00296259
_cell_angle_beta   89.99913275
_cell_angle_gamma   101.95637713
_symmetry_Int_Tables_number   1
_chemical_formula_structural   NaH8C8(NO)3
_chemical_formula_sum   'Na4 H32 C32 N12 O12'
_cell_volume   911.73011541
_cell_formula_units_Z   4
loop_
 _symmetry_equiv_pos_site_id
 _symmetry_equiv_pos_as_xyz
  1  'x, y, z'
loop_
 _atom_site_type_symbol
 _atom_site_label
 _atom_site_symmetry_multiplicity
 _atom_site_fract_x
 _atom_site_fract_y
 _atom_site_fract_z
 _atom_site_occupancy
 _atom_site_hle17_bader_spin_density
 _atom_site_hle17_ddec_charge
 _atom_site_hle17_ddec_spin_density
 _atom_site_hle17_ddec_sum_bond_order
 _atom_site_hle17_magmom
 _atom_site_hse06_10hf_bader_spin_density
 _atom_site_hse06_10hf_ddec_charge
 _atom_site_hse06_10hf_ddec_spin_density
 _atom_site_hse06_10hf_ddec_sum_bond_order
 _atom_site_hse06_10hf_magmom
 _atom_site_hse06_bader_spin_density
 _atom_site_hse06_ddec_charge
 _atom_site_hse06_ddec_spin_density
 _atom_site_hse06_ddec_sum_bond_order
 _atom_site_hse06_magmom
 _atom_site_pbe_bader_spin_density
 _atom_site_pbe_cm5_charge
 _atom_site_pbe_ddec_charge
 _atom_site_pbe_ddec_spin_density
 _atom_site_pbe_ddec_sum_bond_order
 _atom_site_pbe_magmom
Na  Na0  1  0.25455484  0.02877838  0.46010551  1  0  0.888732  0  0.397725  0  0  0.837771  0  0.559699  0  0  0.848781  0  0.538008  0  0  0.681837  0.829672  0  0.575188  0
Na  Na1  1  0.24545220  0.97122593  0.96010290  1  0  0.88867  0  0.397861  0  0  0.837717  0  0.559812  0  0  0.848722  0  0.538118  0  0  0.681897  0.829618  0  0.5753  0
Na  Na2  1  0.74547005  0.97122998  0.53990134  1  0  0.888727  0  0.39776  0  0  0.837785  0  0.559694  0  0  0.848797  0  0.538002  0  0  0.681852  0.829688  0  0.57518  0
Na  Na3  1  0.75452033  0.02876941  0.03989212  1  0  0.888706  0  0.397832  0  0  0.837717  0  0.55985  0  0  0.848722  0  0.538152  0  0  0.681881  0.829619  0  0.575337  0
H  H4  1  0.24610777  0.65249457  0.47034004  1  0  0.288385  0  0.909101  0  0  0.269653  0  0.972852  0  0  0.27814  0  0.966088  0  0  0.319353  0.26361  0  0.977762  0
H  H5  1  0.25389197  0.34748128  0.97034223  1  0  0.288173  0  0.909106  0  0  0.269482  0  0.972833  0  0  0.277965  0  0.966084  0  0  0.319308  0.263439  0  0.977738  0
H  H6  1  0.75390979  0.34750874  0.52966590  1  0  0.288334  0  0.909079  0  0  0.269604  0  0.972828  0  0  0.278094  0  0.966058  0  0  0.319341  0.263562  0  0.977738  0
H  H7  1  0.74609172  0.65252536  0.02965462  1  0  0.288078  0  0.90941  0  0  0.26938  0  0.97314  0  0  0.277858  0  0.966399  0  0  0.319286  0.26334  0  0.97804  0
H  H8  1  0.30519620  0.81952226  0.28912791  1  0  0.101834  0  0.944401  0  0  0.114888  0  1.000919  0  0  0.118345  0  0.999953  0  0  0.100691  0.112347  0  1.001842  0
H  H9  1  0.19481053  0.18046373  0.78912116  1  0  0.10178  0  0.944485  0  0  0.114857  0  1.000985  0  0  0.118316  0  1.000015  0  0  0.100633  0.112332  0  1.001889  0
H  H10  1  0.69484970  0.18048510  0.71088213  1  0  0.101696  0  0.944642  0  0  0.114836  0  1.001079  0  0  0.118292  0  1.000118  0  0  0.100692  0.112332  0  1.001957  0
H  H11  1  0.80515488  0.81950796  0.21087705  1  0  0.101845  0  0.94463  0  0  0.1149  0  1.001112  0  0  0.118349  0  1.000162  0  0  0.100705  0.1124  0  1.001994  0
H  H12  1  0.26326605  0.51811680  0.27500153  1  0  0.081536  0  0.98283  0  0  0.093409  0  1.043897  0  0  0.094859  0  1.044305  0  0  0.095695  0.092347  0  1.043603  0
H  H13  1  0.23678572  0.48186779  0.77500272  1  0  0.081448  0  0.983001  0  0  0.093311  0  1.044062  0  0  0.094759  0  1.04447  0  0  0.095692  0.09225  0  1.043767  0
H  H14  1  0.73676153  0.48189407  0.72499987  1  0  0.081564  0  0.982832  0  0  0.09341  0  1.043917  0  0  0.094862  0  1.044321  0  0  0.095711  0.092348  0  1.043621  0
H  H15  1  0.76315479  0.51810485  0.22499276  1  0  0.081535  0  0.982783  0  0  0.093436  0  1.043803  0  0  0.094885  0  1.044205  0  0  0.09572  0.092375  0  1.043513  0
H  H16  1  0.90242603  0.31476823  0.32775091  1  0  0.098483  0  0.954397  0  0  0.108727  0  1.015432  0  0  0.113369  0  1.012287  0  0  0.099158  0.105368  0  1.017855  0
H  H17  1  0.59760776  0.68519890  0.82775830  1  0  0.098494  0  0.954736  0  0  0.108755  0  1.015722  0  0  0.113397  0  1.012573  0  0  0.099129  0.105396  0  1.018148  0
H  H18  1  0.09758406  0.68524244  0.67224456  1  0  0.09846  0  0.954452  0  0  0.108688  0  1.015525  0  0  0.113329  0  1.012384  0  0  0.099151  0.105327  0  1.017948  0
H  H19  1  0.40234001  0.31478500  0.17223581  1  0  0.098547  0  0.95463  0  0  0.108815  0  1.015611  0  0  0.113456  0  1.012466  0  0  0.099148  0.105455  0  1.018035  0
H  H20  1  0.84619344  0.00538261  0.37905794  1  0  0.337576  0  0.923454  0  0  0.319679  0  0.98821  0  0  0.327796  0  0.980669  0  0  0.30656  0.313929  0  0.9935  0
H  H21  1  0.65378307  0.99459828  0.87906155  1  0  0.337624  0  0.923369  0  0  0.319715  0  0.988164  0  0  0.327837  0  0.980613  0  0  0.306547  0.313963  0  0.993457  0
H  H22  1  0.15382681  0.99462321  0.62093981  1  0  0.337855  0  0.923685  0  0  0.319905  0  0.988493  0  0  0.328027  0  0.980944  0  0  0.306678  0.314151  0  0.993788  0
H  H23  1  0.34620471  0.00538980  0.12093302  1  0  0.337612  0  0.923425  0  0  0.319714  0  0.988183  0  0  0.327834  0  0.980637  0  0  0.30653  0.313961  0  0.993475  0
H  H24  1  0.13884400  0.04537672  0.33538415  1  0  0.328624  0  0.883251  0  0  0.321305  0  0.92994  0  0  0.327624  0  0.925097  0  0  0.314612  0.316825  0  0.933378  0
H  H25  1  0.36113957  0.95460662  0.83537583  1  0  0.3285  0  0.883222  0  0  0.321198  0  0.929896  0  0  0.327516  0  0.925048  0  0  0.314549  0.316717  0  0.933328  0
H  H26  1  0.86116831  0.95460916  0.66462588  1  0  0.328461  0  0.883221  0  0  0.321147  0  0.929907  0  0  0.327465  0  0.925066  0  0  0.314503  0.316661  0  0.933341  0
H  H27  1  0.63884828  0.04537525  0.16461874  1  0  0.328622  0  0.883225  0  0  0.321311  0  0.929897  0  0  0.327627  0  0.925056  0  0  0.314622  0.316832  0  0.933331  0
H  H28  1  0.09363437  0.30947780  0.46330637  1  0  0.379471  0  0.949689  0  0  0.337021  0  1.033522  0  0  0.348567  0  1.01708  0  0  0.274616  0.32895  0  1.044982  0
H  H29  1  0.40639637  0.69052226  0.96330692  1  0  0.379448  0  0.949727  0  0  0.337009  0  1.033544  0  0  0.348554  0  1.017102  0  0  0.274605  0.328936  0  1.045006  0
H  H30  1  0.90640041  0.69055052  0.53669911  1  0  0.379413  0  0.949763  0  0  0.336974  0  1.033581  0  0  0.348519  0  1.017141  0  0  0.274578  0.328905  0  1.04504  0
H  H31  1  0.59358149  0.30948432  0.03668629  1  0  0.379433  0  0.949747  0  0  0.337012  0  1.033539  0  0  0.348555  0  1.017101  0  0  0.274618  0.328938  0  1.045001  0
H  H32  1  0.79887806  0.21482554  0.44588370  1  0  0.405885  0  0.909209  0  0  0.378139  0  0.971279  0  0  0.388261  0  0.956355  0  0  0.285638  0.371013  0  0.981781  0
H  H33  1  0.70114699  0.78516997  0.94588176  1  0  0.405974  0  0.909039  0  0  0.378128  0  0.971279  0  0  0.388241  0  0.956371  0  0  0.285632  0.371004  0  0.981777  0
H  H34  1  0.20115798  0.78519411  0.55412314  1  0  0.405911  0  0.909106  0  0  0.378073  0  0.971359  0  0  0.388194  0  0.956438  0  0  0.285559  0.370948  0  0.981859  0
H  H35  1  0.29883169  0.21483289  0.05411145  1  0  0.405966  0  0.909001  0  0  0.37814  0  0.971272  0  0  0.388256  0  0.956358  0  0  0.28565  0.371015  0  0.981771  0
C  C36  1  0.53560783  0.38939685  0.40319184  1  0  0.445924  0  3.928426  0  0  0.408166  0  4.22064  0  0  0.42962  0  4.226273  0  0  0.200911  0.393795  0  4.216173  0
C  C37  1  0.96440161  0.61058274  0.90319611  1  0  0.445381  0  3.928444  0  0  0.407689  0  4.220533  0  0  0.429151  0  4.22617  0  0  0.200726  0.393322  0  4.21606  0
C  C38  1  0.46439410  0.61061248  0.59680773  1  0  0.445769  0  3.928691  0  0  0.408059  0  4.220788  0  0  0.429515  0  4.226431  0  0  0.200847  0.393698  0  4.216311  0
C  C39  1  0.03556196  0.38941498  0.09679255  1  0  0.445608  0  3.928078  0  0  0.407931  0  4.220207  0  0  0.42938  0  4.225842  0  0  0.200835  0.393571  0  4.215724  0
C  C40  1  0.57818252  0.73459559  0.42053563  1  0  0.503439  0  3.882675  0  0  0.455021  0  4.172454  0  0  0.483099  0  4.174015  0  0  0.220869  0.436377  0  4.17075  0
C  C41  1  0.92180721  0.26537373  0.92054113  1  0  0.503003  0  3.882997  0  0  0.454516  0  4.172938  0  0  0.482593  0  4.174502  0  0  0.220536  0.435872  0  4.171226  0
C  C42  1  0.42185141  0.26540418  0.57946804  1  0  0.503442  0  3.882368  0  0  0.455008  0  4.172192  0  0  0.483087  0  4.173754  0  0  0.220739  0.436367  0  4.170491  0
C  C43  1  0.07816839  0.73462538  0.07946436  1  0  0.502567  0  3.882991  0  0  0.454044  0  4.172962  0  0  0.482113  0  4.174547  0  0  0.220319  0.435409  0  4.171234  0
C  C44  1  0.76514312  0.68094187  0.37986087  1  0  -0.182691  0  3.709116  0  0  -0.166416  0  3.940736  0  0  -0.17721  0  3.962044  0  0  -0.014889  -0.159622  0  3.926543  0
C  C45  1  0.73484585  0.31903555  0.87986848  1  0  -0.18269  0  3.708978  0  0  -0.166417  0  3.940652  0  0  -0.177206  0  3.961966  0  0  -0.014884  -0.159622  0  3.926456  0
C  C46  1  0.23486891  0.31906882  0.62013961  1  0  -0.182834  0  3.708891  0  0  -0.166573  0  3.940543  0  0  -0.177361  0  3.961865  0  0  -0.014848  -0.159783  0  3.926355  0
C  C47  1  0.26511614  0.68096339  0.12013109  1  0  -0.182837  0  3.709256  0  0  -0.166459  0  3.940822  0  0  -0.177256  0  3.962135  0  0  -0.014876  -0.159663  0  3.926625  0
C  C48  1  0.96990191  0.79661249  0.34966816  1  0  0.321571  0  3.823395  0  0  0.309458  0  4.07415  0  0  0.322653  0  4.092402  0  0  0.110354  0.300681  0  4.061527  0
C  C49  1  0.53008959  0.20337325  0.84966604  1  0  0.321594  0  3.823406  0  0  0.309392  0  4.074309  0  0  0.322589  0  4.092563  0  0  0.110264  0.300614  0  4.061687  0
C  C50  1  0.03012963  0.20339222  0.65034006  1  0  0.321923  0  3.822967  0  0  0.309738  0  4.073822  0  0  0.322937  0  4.092072  0  0  0.110398  0.300956  0  4.061215  0
C  C51  1  0.46988264  0.79661465  0.15033035  1  0  0.321774  0  3.823096  0  0  0.309588  0  4.073931  0  0  0.322786  0  4.092181  0  0  0.110455  0.30081  0  4.061316  0
C  C52  1  0.14562437  0.73304923  0.31197232  1  0  -0.197306  0  3.715266  0  0  -0.218035  0  3.976511  0  0  -0.225851  0  3.995702  0  0  -0.103235  -0.212852  0  3.963499  0
C  C53  1  0.35437681  0.26693609  0.81196352  1  0  -0.197333  0  3.715187  0  0  -0.218065  0  3.97648  0  0  -0.225882  0  3.995673  0  0  -0.103234  -0.212899  0  3.963471  0
C  C54  1  0.85442392  0.26695320  0.68804226  1  0  -0.197369  0  3.715285  0  0  -0.218189  0  3.976643  0  0  -0.226006  0  3.995835  0  0  -0.103368  -0.213035  0  3.963623  0
C  C55  1  0.64561278  0.73306441  0.18803241  1  0  -0.197407  0  3.714806  0  0  -0.218135  0  3.976144  0  0  -0.225949  0  3.995323  0  0  -0.103329  -0.21299  0  3.963138  0
C  C56  1  0.12208059  0.56213279  0.30432525  1  0  -0.024011  0  3.79315  0  0  -0.04289  0  4.055369  0  0  -0.038584  0  4.073559  0  0  -0.086765  -0.04544  0  4.042693  0
C  C57  1  0.37795852  0.43784820  0.80431694  1  0  -0.023804  0  3.793128  0  0  -0.042657  0  4.055336  0  0  -0.038346  0  4.073518  0  0  -0.086734  -0.045211  0  4.042673  0
C  C58  1  0.87795170  0.43787441  0.69568023  1  0  -0.023975  0  3.793238  0  0  -0.042816  0  4.05547  0  0  -0.038507  0  4.073657  0  0  -0.086675  -0.045369  0  4.042804  0
C  C59  1  0.62200869  0.56213592  0.19567627  1  0  -0.0238  0  3.792536  0  0  -0.042683  0  4.054757  0  0  -0.03837  0  4.072932  0  0  -0.086708  -0.045242  0  4.042109  0
C  C60  1  0.92258195  0.44857017  0.33330891  1  0  -0.123077  0  3.761005  0  0  -0.1511  0  4.024459  0  0  -0.155704  0  4.04151  0  0  -0.108089  -0.148152  0  4.013016  0
C  C61  1  0.57745570  0.55142381  0.83331015  1  0  -0.12327  0  3.761317  0  0  -0.151354  0  4.024756  0  0  -0.155945  0  4.0418  0  0  -0.108139  -0.148411  0  4.013327  0
C  C62  1  0.07744802  0.55143577  0.66669430  1  0  -0.123066  0  3.761125  0  0  -0.151117  0  4.024559  0  0  -0.155709  0  4.041613  0  0  -0.108195  -0.148168  0  4.013115  0
C  C63  1  0.42252618  0.44857040  0.16667987  1  0  -0.123427  0  3.760997  0  0  -0.151499  0  4.024501  0  0  -0.156102  0  4.04154  0  0  -0.108155  -0.148551  0  4.013069  0
C  C64  1  0.74393455  0.50736643  0.37110324  1  0  -0.022736  0  3.767746  0  0  -0.013615  0  4.007204  0  0  -0.011016  0  4.025525  0  0  -0.011888  -0.015267  0  3.994711  0
C  C65  1  0.75607902  0.49262001  0.87110548  1  0  -0.022507  0  3.768005  0  0  -0.013285  0  4.007294  0  0  -0.010713  0  4.025655  0  0  -0.011806  -0.014939  0  3.9948  0
C  C66  1  0.25608638  0.49264809  0.62889633  1  0  -0.022674  0  3.767861  0  0  -0.013447  0  4.007149  0  0  -0.010876  0  4.025513  0  0  -0.011802  -0.015103  0  3.994655  0
C  C67  1  0.24388468  0.50736531  0.12888772  1  0  -0.022249  0  3.767398  0  0  -0.013117  0  4.006775  0  0  -0.010508  0  4.025088  0  0  -0.011706  -0.014775  0  3.994279  0
N  N68  1  0.35667206  0.44559662  0.43643443  1  0  -0.329555  0  3.072435  0  0  -0.294802  0  3.34366  0  0  -0.310007  0  3.358972  0  0  -0.242734  -0.28449  0  3.333222  0
N  N69  1  0.14335256  0.55437738  0.93643597  1  0  -0.32945  0  3.072147  0  0  -0.294814  0  3.343477  0  0  -0.310017  0  3.358796  0  0  -0.242683  -0.284504  0  3.333029  0
N  N70  1  0.64333615  0.55440782  0.56357242  1  0  -0.329529  0  3.072632  0  0  -0.294877  0  3.343931  0  0  -0.310077  0  3.359246  0  0  -0.242799  -0.284571  0  3.333492  0
N  N71  1  0.85663127  0.44561686  0.06355724  1  0  -0.329522  0  3.071952  0  0  -0.294933  0  3.343332  0  0  -0.310137  0  3.358648  0  0  -0.242776  -0.284622  0  3.332881  0
N  N72  1  0.38246969  0.61350694  0.44241067  1  0  -0.25066  0  3.476639  0  0  -0.196115  0  3.722086  0  0  -0.214463  0  3.739382  0  0  -0.286111  -0.184003  0  3.71038  0
N  N73  1  0.11752480  0.38647124  0.94240952  1  0  -0.250237  0  3.47668  0  0  -0.195703  0  3.722227  0  0  -0.214052  0  3.739538  0  0  -0.285968  -0.183591  0  3.71052  0
N  N74  1  0.61755670  0.38650639  0.55759618  1  0  -0.250513  0  3.476464  0  0  -0.195945  0  3.72195  0  0  -0.214294  0  3.739253  0  0  -0.285999  -0.183834  0  3.710247  0
N  N75  1  0.88244258  0.61353273  0.05758187  1  0  -0.249843  0  3.475886  0  0  -0.195274  0  3.721398  0  0  -0.213616  0  3.738711  0  0  -0.285833  -0.183168  0  3.709678  0
N  N76  1  0.99918238  0.96472080  0.35886956  1  0  -0.71601  0  3.166225  0  0  -0.678221  0  3.393645  0  0  -0.697549  0  3.389913  0  0  -0.638388  -0.664588  0  3.395835  0
N  N77  1  0.50078564  0.03525972  0.85886932  1  0  -0.715892  0  3.166185  0  0  -0.678079  0  3.393644  0  0  -0.697409  0  3.389915  0  0  -0.638184  -0.664437  0  3.395829  0
N  N78  1  0.00087638  0.03528422  0.64113456  1  0  -0.716129  0  3.166343  0  0  -0.678278  0  3.393779  0  0  -0.69761  0  3.390041  0  0  -0.638315  -0.664642  0  3.39597  0
N  N79  1  0.49920640  0.96472965  0.14112889  1  0  -0.716082  0  3.16602  0  0  -0.678269  0  3.393459  0  0  -0.697597  0  3.389727  0  0  -0.638366  -0.664632  0  3.395649  0
O  O80  1  0.52773737  0.23091384  0.40050268  1  0  -0.71413  0  1.956226  0  0  -0.666485  0  2.193181  0  0  -0.688696  0  2.184204  0  0  -0.420937  -0.650687  0  2.19875  0
O  O81  1  0.97228769  0.76906557  0.90051543  1  0  -0.713878  0  1.956199  0  0  -0.666218  0  2.193103  0  0  -0.688431  0  2.184136  0  0  -0.420861  -0.650422  0  2.198668  0
O  O82  1  0.47226928  0.76909182  0.59949507  1  0  -0.714153  0  1.95646  0  0  -0.666491  0  2.193381  0  0  -0.688698  0  2.184404  0  0  -0.420905  -0.650697  0  2.19894  0
O  O83  1  0.02768641  0.23092856  0.09948050  1  0  -0.714205  0  1.95594  0  0  -0.666547  0  2.192872  0  0  -0.688754  0  2.183889  0  0  -0.42102  -0.650752  0  2.198436  0
O  O84  1  0.58740738  0.88548906  0.43681801  1  0  -0.71007  0  1.965003  0  0  -0.66247  0  2.21597  0  0  -0.681887  0  2.203978  0  0  -0.43645  -0.648822  0  2.223755  0
O  O85  1  0.91257457  0.11448362  0.93681654  1  0  -0.709765  0  1.965108  0  0  -0.662115  0  2.216106  0  0  -0.681525  0  2.204109  0  0  -0.436226  -0.64848  0  2.223917  0
O  O86  1  0.41263238  0.11451078  0.56318793  1  0  -0.710179  0  1.965114  0  0  -0.662535  0  2.216047  0  0  -0.68196  0  2.204063  0  0  -0.436467  -0.648869  0  2.223783  0
O  O87  1  0.08741263  0.88552182  0.06317894  1  0  -0.709668  0  1.965003  0  0  -0.662002  0  2.215991  0  0  -0.681411  0  2.204002  0  0  -0.436196  -0.64837  0  2.223795  0
O  O88  1  0.93863942  0.21956017  0.47778781  1  0  -0.91121  0  1.858324  0  0  -0.863113  0  2.052447  0  0  -0.880173  0  2.018674  0  0  -0.660776  -0.851014  0  2.075933  0
O  O89  1  0.56138054  0.78044459  0.97778533  1  0  -0.911265  0  1.858371  0  0  -0.863046  0  2.052711  0  0  -0.880097  0  2.018948  0  0  -0.660785  -0.850939  0  2.07619  0
O  O90  1  0.06138250  0.78047049  0.52222131  1  0  -0.911177  0  1.858244  0  0  -0.862985  0  2.052593  0  0  -0.880043  0  2.018822  0  0  -0.660719  -0.85089  0  2.076081  0
O  O91  1  0.43860127  0.21955583  0.02221106  1  0  -0.911216  0  1.858327  0  0  -0.863036  0  2.052599  0  0  -0.880089  0  2.018832  0  0  -0.66081  -0.85093  0  2.07608  0
