# generated using pymatgen
data_CuH5C4S2IN
_symmetry_space_group_name_H-M   'P 1'
_cell_length_a   7.42856047
_cell_length_b   7.43884296
_cell_length_c   14.12146072
_cell_angle_alpha   89.99955802
_cell_angle_beta   89.99966622
_cell_angle_gamma   91.64200892
_symmetry_Int_Tables_number   1
_chemical_formula_structural   CuH5C4S2IN
_chemical_formula_sum   'Cu4 H20 C16 S8 I4 N4'
_cell_volume   780.03000122
_cell_formula_units_Z   4
loop_
 _symmetry_equiv_pos_site_id
 _symmetry_equiv_pos_as_xyz
  1  'x, y, z'
loop_
 _atom_site_type_symbol
 _atom_site_label
 _atom_site_symmetry_multiplicity
 _atom_site_fract_x
 _atom_site_fract_y
 _atom_site_fract_z
 _atom_site_occupancy
 _atom_site_hle17_bader_spin_density
 _atom_site_hle17_ddec_charge
 _atom_site_hle17_ddec_spin_density
 _atom_site_hle17_ddec_sum_bond_order
 _atom_site_hle17_magmom
 _atom_site_hse06_10hf_bader_spin_density
 _atom_site_hse06_10hf_ddec_charge
 _atom_site_hse06_10hf_ddec_spin_density
 _atom_site_hse06_10hf_ddec_sum_bond_order
 _atom_site_hse06_10hf_magmom
 _atom_site_hse06_bader_spin_density
 _atom_site_hse06_ddec_charge
 _atom_site_hse06_ddec_spin_density
 _atom_site_hse06_ddec_sum_bond_order
 _atom_site_hse06_magmom
 _atom_site_pbe_bader_spin_density
 _atom_site_pbe_cm5_charge
 _atom_site_pbe_ddec_charge
 _atom_site_pbe_ddec_spin_density
 _atom_site_pbe_ddec_sum_bond_order
 _atom_site_pbe_magmom
Cu  Cu0  1  0.29567314  0.66319052  0.27954431  1  0  0.272665  0  2.214283  0  0  0.192301  0  2.701374  0  0  0.19498  0  2.657642  0  0  0.305225  0.193009  0  2.728867  0
Cu  Cu1  1  0.20432611  0.33681047  0.77954300  1  0  0.2727  0  2.214206  0  0  0.192304  0  2.701243  0  0  0.195004  0  2.657516  0  0  0.305242  0.193008  0  2.72878  0
Cu  Cu2  1  0.70432552  0.33681014  0.72045783  1  0  0.27264  0  2.214317  0  0  0.192297  0  2.701375  0  0  0.194978  0  2.657611  0  0  0.305232  0.193002  0  2.728916  0
Cu  Cu3  1  0.79567085  0.66318214  0.22045844  1  0  0.272621  0  2.214333  0  0  0.192235  0  2.701379  0  0  0.194928  0  2.65765  0  0  0.305218  0.192941  0  2.728915  0
H  H4  1  0.21563087  0.61368114  0.49049862  1  0  0.088338  0  0.992956  0  0  0.092509  0  1.066866  0  0  0.095463  0  1.06497  0  0  0.09185  0.090283  0  1.068421  0
H  H5  1  0.28438426  0.38634493  0.99049689  1  0  0.088357  0  0.993079  0  0  0.092448  0  1.067021  0  0  0.095402  0  1.065123  0  0  0.091825  0.090221  0  1.068569  0
H  H6  1  0.78438136  0.38632201  0.50950353  1  0  0.08839  0  0.993055  0  0  0.092477  0  1.067005  0  0  0.095428  0  1.06511  0  0  0.09188  0.090254  0  1.068556  0
H  H7  1  0.71559989  0.61366267  0.00950668  1  0  0.088505  0  0.993171  0  0  0.092601  0  1.067106  0  0  0.095557  0  1.065215  0  0  0.091916  0.090371  0  1.068664  0
H  H8  1  0.43798110  0.67508067  0.63753540  1  0  0.138165  0  0.990558  0  0  0.141985  0  1.061443  0  0  0.146099  0  1.059418  0  0  0.093261  0.13892  0  1.063094  0
H  H9  1  0.06205119  0.32492585  0.13753668  1  0  0.138167  0  0.990586  0  0  0.141925  0  1.061527  0  0  0.146035  0  1.059481  0  0  0.093267  0.138859  0  1.063176  0
H  H10  1  0.56204143  0.32491156  0.36246250  1  0  0.138216  0  0.990461  0  0  0.142008  0  1.061368  0  0  0.146118  0  1.059327  0  0  0.093319  0.13894  0  1.063018  0
H  H11  1  0.93792659  0.67508993  0.86246406  1  0  0.138206  0  0.990476  0  0  0.142023  0  1.061371  0  0  0.146138  0  1.059309  0  0  0.093312  0.138956  0  1.063027  0
H  H12  1  0.98636010  0.04384188  0.32314017  1  0  0.129471  0  0.981591  0  0  0.144973  0  1.048116  0  0  0.146745  0  1.048392  0  0  0.084921  0.143632  0  1.047966  0
H  H13  1  0.51366483  0.95615662  0.82313659  1  0  0.129303  0  0.98163  0  0  0.144837  0  1.048141  0  0  0.146608  0  1.04842  0  0  0.084875  0.143497  0  1.047989  0
H  H14  1  0.01365470  0.95615854  0.67686057  1  0  0.129351  0  0.9817  0  0  0.144889  0  1.048187  0  0  0.146651  0  1.048496  0  0  0.084867  0.143551  0  1.048033  0
H  H15  1  0.48633084  0.04383735  0.17685777  1  0  0.129196  0  0.98168  0  0  0.144717  0  1.048186  0  0  0.14648  0  1.048492  0  0  0.084829  0.143379  0  1.048036  0
H  H16  1  0.97682095  0.86443944  0.40811257  1  0  0.126571  0  0.961476  0  0  0.140913  0  1.029571  0  0  0.143282  0  1.028348  0  0  0.084838  0.139113  0  1.03061  0
H  H17  1  0.52319354  0.13556072  0.90811473  1  0  0.126448  0  0.96163  0  0  0.140864  0  1.029648  0  0  0.143225  0  1.028435  0  0  0.084821  0.139064  0  1.03069  0
H  H18  1  0.02318426  0.13555708  0.59188532  1  0  0.126541  0  0.961527  0  0  0.140954  0  1.029541  0  0  0.143322  0  1.028319  0  0  0.084852  0.139153  0  1.030586  0
H  H19  1  0.47679412  0.86443472  0.09187963  1  0  0.126444  0  0.961587  0  0  0.140855  0  1.029604  0  0  0.143222  0  1.028387  0  0  0.08481  0.139051  0  1.030648  0
H  H20  1  0.86259484  0.07464022  0.42976803  1  0  0.127144  0  0.968851  0  0  0.143059  0  1.032503  0  0  0.144018  0  1.034552  0  0  0.086876  0.142329  0  1.031182  0
H  H21  1  0.63743825  0.92536071  0.92977561  1  0  0.12716  0  0.968688  0  0  0.142971  0  1.032492  0  0  0.143931  0  1.03454  0  0  0.086844  0.14226  0  1.031148  0
H  H22  1  0.13741294  0.92535358  0.57022916  1  0  0.127179  0  0.968764  0  0  0.143046  0  1.032476  0  0  0.144009  0  1.034521  0  0  0.086878  0.142336  0  1.031132  0
H  H23  1  0.36255491  0.07463734  0.07022299  1  0  0.12706  0  0.968767  0  0  0.142889  0  1.03255  0  0  0.14385  0  1.034602  0  0  0.086831  0.142181  0  1.031207  0
C  C24  1  0.34913636  0.67778944  0.48765371  1  0  0.061867  0  3.762304  0  0  0.032067  0  4.025202  0  0  0.035573  0  4.04273  0  0  -0.008745  0.029701  0  4.01364  0
C  C25  1  0.15088496  0.32222313  0.98766109  1  0  0.061886  0  3.762309  0  0  0.032141  0  4.025225  0  0  0.03567  0  4.04272  0  0  -0.008708  0.029762  0  4.0137  0
C  C26  1  0.65087827  0.32220695  0.51234773  1  0  0.061697  0  3.762378  0  0  0.031965  0  4.025358  0  0  0.035483  0  4.042862  0  0  -0.008809  0.029596  0  4.013801  0
C  C27  1  0.84909785  0.67778450  0.01234248  1  0  0.061642  0  3.76242  0  0  0.031893  0  4.025343  0  0  0.035411  0  4.042843  0  0  -0.008852  0.029522  0  4.013801  0
C  C28  1  0.46033341  0.70863754  0.56332343  1  0  -0.202686  0  3.674574  0  0  -0.216597  0  3.944822  0  0  -0.220609  0  3.963358  0  0  -0.106999  -0.214053  0  3.932679  0
C  C29  1  0.03967589  0.29137573  0.06332845  1  0  -0.202755  0  3.674616  0  0  -0.216648  0  3.94498  0  0  -0.220635  0  3.963506  0  0  -0.107079  -0.214103  0  3.932831  0
C  C30  1  0.53968128  0.29136019  0.43667588  1  0  -0.202672  0  3.674593  0  0  -0.216561  0  3.944861  0  0  -0.220555  0  3.963391  0  0  -0.107018  -0.214009  0  3.932712  0
C  C31  1  0.96030668  0.70862652  0.93667299  1  0  -0.202777  0  3.67464  0  0  -0.216725  0  3.94498  0  0  -0.220713  0  3.963515  0  0  -0.10708  -0.21418  0  3.932829  0
C  C32  1  0.58391158  0.80263606  0.41078007  1  0  0.075864  0  3.743282  0  0  0.074152  0  4.037814  0  0  0.084725  0  4.053085  0  0  0.100314  0.067004  0  4.027564  0
C  C33  1  0.91610522  0.19738690  0.91078238  1  0  0.075607  0  3.743702  0  0  0.073898  0  4.038192  0  0  0.084476  0  4.053474  0  0  0.100108  0.066747  0  4.027948  0
C  C34  1  0.41609270  0.19736989  0.58921854  1  0  0.075851  0  3.743273  0  0  0.074153  0  4.037766  0  0  0.084724  0  4.053044  0  0  0.100307  0.067004  0  4.027518  0
C  C35  1  0.08388677  0.80261521  0.08921764  1  0  0.07556  0  3.743787  0  0  0.073872  0  4.038317  0  0  0.084446  0  4.0536  0  0  0.100093  0.066723  0  4.028061  0
C  C36  1  0.90305429  0.97572288  0.37688690  1  0  -0.339426  0  3.632632  0  0  -0.407072  0  3.877718  0  0  -0.409925  0  3.883632  0  0  -0.242336  -0.404857  0  3.873752  0
C  C37  1  0.59695910  0.02427369  0.87689219  1  0  -0.339065  0  3.632319  0  0  -0.406697  0  3.877314  0  0  -0.40956  0  3.883263  0  0  -0.2422  -0.404496  0  3.873327  0
C  C38  1  0.09695495  0.02427358  0.62311029  1  0  -0.339283  0  3.632659  0  0  -0.406947  0  3.877653  0  0  -0.409828  0  3.883611  0  0  -0.242272  -0.404747  0  3.873669  0
C  C39  1  0.40303003  0.97572442  0.12310500  1  0  -0.33887  0  3.632234  0  0  -0.406499  0  3.8773  0  0  -0.409355  0  3.883209  0  0  -0.242148  -0.404306  0  3.873314  0
S  S40  1  0.66092690  0.80499639  0.52637353  1  0  0.179905  0  2.631837  0  0  0.196725  0  2.961795  0  0  0.19606  0  2.969656  0  0  0.112641  0.196226  0  2.956909  0
S  S41  1  0.83909391  0.19500496  0.02637751  1  0  0.179983  0  2.631851  0  0  0.196785  0  2.9618  0  0  0.196117  0  2.969653  0  0  0.11267  0.196291  0  2.956918  0
S  S42  1  0.33909177  0.19499994  0.47362366  1  0  0.179865  0  2.631964  0  0  0.196695  0  2.961873  0  0  0.196026  0  2.969731  0  0  0.112594  0.196195  0  2.956983  0
S  S43  1  0.16089130  0.80499590  0.97362322  1  0  0.180017  0  2.632031  0  0  0.196813  0  2.96199  0  0  0.196142  0  2.969849  0  0  0.112663  0.196315  0  2.957103  0
S  S44  1  0.70686488  0.88966402  0.31515788  1  0  0.115346  0  2.925108  0  0  0.122771  0  3.366383  0  0  0.12827  0  3.348474  0  0  0.002029  0.118328  0  3.378373  0
S  S45  1  0.79315023  0.11035357  0.81516089  1  0  0.115314  0  2.924912  0  0  0.122707  0  3.366192  0  0  0.128224  0  3.34826  0  0  0.00199  0.118269  0  3.378195  0
S  S46  1  0.29314320  0.11033650  0.68484001  1  0  0.11536  0  2.925005  0  0  0.122766  0  3.366306  0  0  0.12827  0  3.348397  0  0  0.002055  0.118322  0  3.378308  0
S  S47  1  0.20684440  0.88964715  0.18483913  1  0  0.115323  0  2.924882  0  0  0.122718  0  3.366154  0  0  0.128225  0  3.348234  0  0  0.002045  0.118282  0  3.378128  0
I  I48  1  0.00873714  0.46953006  0.32486053  1  0  -0.456898  0  1.543678  0  0  -0.401148  0  1.975562  0  0  -0.417488  0  1.941788  0  0  -0.220632  -0.389588  0  1.997635  0
I  I49  1  0.49126682  0.53046888  0.82485551  1  0  -0.45692  0  1.543677  0  0  -0.40121  0  1.975639  0  0  -0.417551  0  1.94186  0  0  -0.22063  -0.389629  0  1.997704  0
I  I50  1  0.99126292  0.53047192  0.67514374  1  0  -0.45692  0  1.543642  0  0  -0.401211  0  1.975583  0  0  -0.417536  0  1.941797  0  0  -0.220641  -0.389641  0  1.997665  0
I  I51  1  0.50873026  0.46952642  0.17514805  1  0  -0.4569  0  1.543705  0  0  -0.401187  0  1.975658  0  0  -0.417526  0  1.941878  0  0  -0.220628  -0.389613  0  1.997711  0
N  N52  1  0.41926616  0.73013418  0.40102649  1  0  -0.316321  0  3.413174  0  0  -0.256618  0  3.718487  0  0  -0.267192  0  3.724571  0  0  -0.383267  -0.250036  0  3.714199  0
N  N53  1  0.08074890  0.26989449  0.90103074  1  0  -0.316144  0  3.413583  0  0  -0.256294  0  3.718624  0  0  -0.2669  0  3.724756  0  0  -0.383017  -0.249715  0  3.714348  0
N  N54  1  0.58073800  0.26986909  0.59897354  1  0  -0.316245  0  3.413051  0  0  -0.256536  0  3.718342  0  0  -0.267102  0  3.724414  0  0  -0.38324  -0.249956  0  3.714078  0
N  N55  1  0.91924298  0.73010493  0.09897070  1  0  -0.316044  0  3.413673  0  0  -0.256248  0  3.718749  0  0  -0.266841  0  3.724867  0  0  -0.382999  -0.249668  0  3.714474  0
