# generated using pymatgen
data_ZnH18C17N4O5
_symmetry_space_group_name_H-M   'P 1'
_cell_length_a   7.70276226
_cell_length_b   10.69658857
_cell_length_c   11.96555104
_cell_angle_alpha   91.82413981
_cell_angle_beta   90.92133694
_cell_angle_gamma   111.49624540
_symmetry_Int_Tables_number   1
_chemical_formula_structural   ZnH18C17N4O5
_chemical_formula_sum   'Zn2 H36 C34 N8 O10'
_cell_volume   916.43170755
_cell_formula_units_Z   2
loop_
 _symmetry_equiv_pos_site_id
 _symmetry_equiv_pos_as_xyz
  1  'x, y, z'
loop_
 _atom_site_type_symbol
 _atom_site_label
 _atom_site_symmetry_multiplicity
 _atom_site_fract_x
 _atom_site_fract_y
 _atom_site_fract_z
 _atom_site_occupancy
 _atom_site_hle17_bader_spin_density
 _atom_site_hle17_ddec_charge
 _atom_site_hle17_ddec_spin_density
 _atom_site_hle17_ddec_sum_bond_order
 _atom_site_hle17_magmom
 _atom_site_hse06_10hf_bader_spin_density
 _atom_site_hse06_10hf_ddec_charge
 _atom_site_hse06_10hf_ddec_spin_density
 _atom_site_hse06_10hf_ddec_sum_bond_order
 _atom_site_hse06_10hf_magmom
 _atom_site_hse06_bader_spin_density
 _atom_site_hse06_ddec_charge
 _atom_site_hse06_ddec_spin_density
 _atom_site_hse06_ddec_sum_bond_order
 _atom_site_hse06_magmom
 _atom_site_pbe_bader_spin_density
 _atom_site_pbe_cm5_charge
 _atom_site_pbe_ddec_charge
 _atom_site_pbe_ddec_spin_density
 _atom_site_pbe_ddec_sum_bond_order
 _atom_site_pbe_magmom
Zn  Zn0  1  0.67894789  0.62343286  0.84576199  1  0  1.053898  0  1.744873  0  0  0.87469  0  2.190812  0  0  0.926415  0  2.133976  0  0  0.670062  0.83851  0  2.229786  0
Zn  Zn1  1  0.32103962  0.37656462  0.15422431  1  0  1.053854  0  1.744979  0  0  0.874668  0  2.190872  0  0  0.926374  0  2.134055  0  0  0.670007  0.838495  0  2.229832  0
H  H2  1  0.17677587  0.93121488  0.68490520  1  0  0.098795  0  0.976732  0  0  0.100836  0  1.060616  0  0  0.104852  0  1.05786  0  0  0.094204  0.098038  0  1.062596  0
H  H3  1  0.82321186  0.06877261  0.31507986  1  0  0.09876  0  0.976767  0  0  0.100876  0  1.060602  0  0  0.104897  0  1.057842  0  0  0.094219  0.098079  0  1.062577  0
H  H4  1  0.25482887  0.79815723  0.69945590  1  0  0.109311  0  0.928417  0  0  0.122821  0  0.988331  0  0  0.125732  0  0.986767  0  0  0.097992  0.120829  0  0.989394  0
H  H5  1  0.74516680  0.20183036  0.30052688  1  0  0.109232  0  0.928359  0  0  0.122786  0  0.988282  0  0  0.125698  0  0.986716  0  0  0.097928  0.120775  0  0.989368  0
H  H6  1  0.44773073  0.00320082  0.81864721  1  0  0.053851  0  0.960059  0  0  0.070336  0  1.029188  0  0  0.070813  0  1.030138  0  0  0.084463  0.069907  0  1.028606  0
H  H7  1  0.55227859  0.99680308  0.18132991  1  0  0.053801  0  0.960062  0  0  0.070266  0  1.029188  0  0  0.070735  0  1.030138  0  0  0.084485  0.069871  0  1.028577  0
H  H8  1  0.24565754  0.99172714  0.89330829  1  0  0.071249  0  0.918719  0  0  0.09202  0  0.97261  0  0  0.093431  0  0.971897  0  0  0.092932  0.090982  0  0.973111  0
H  H9  1  0.75435130  0.00827071  0.10666941  1  0  0.071225  0  0.918847  0  0  0.092005  0  0.972692  0  0  0.093415  0  0.971967  0  0  0.092907  0.090969  0  0.973191  0
H  H10  1  0.41391032  0.88677270  0.00689806  1  0  0.100208  0  0.945669  0  0  0.116424  0  1.007572  0  0  0.117916  0  1.00817  0  0  0.100631  0.11537  0  1.007197  0
H  H11  1  0.58610602  0.11324309  0.99308558  1  0  0.1001  0  0.945904  0  0  0.116396  0  1.007663  0  0  0.11789  0  1.008261  0  0  0.100632  0.115343  0  1.007287  0
H  H12  1  0.21582736  0.75886164  0.94972660  1  0  0.107207  0  0.947882  0  0  0.12296  0  1.006968  0  0  0.125177  0  1.006425  0  0  0.103426  0.121364  0  1.007493  0
H  H13  1  0.78419032  0.24115491  0.05026547  1  0  0.107203  0  0.947758  0  0  0.122894  0  1.006893  0  0  0.125117  0  1.006341  0  0  0.10338  0.121301  0  1.007418  0
H  H14  1  0.48688590  0.31922494  0.85016884  1  0  0.085381  0  0.957471  0  0  0.093248  0  1.021264  0  0  0.096281  0  1.018706  0  0  0.117857  0.090947  0  1.02315  0
H  H15  1  0.51310796  0.68076744  0.14982161  1  0  0.085254  0  0.957388  0  0  0.093126  0  1.021226  0  0  0.096192  0  1.018619  0  0  0.11782  0.090827  0  1.023114  0
H  H16  1  0.27299330  0.13300020  0.72608902  1  0  0.113453  0  0.970211  0  0  0.124305  0  1.030873  0  0  0.126763  0  1.030678  0  0  0.114263  0.122555  0  1.03113  0
H  H17  1  0.72701517  0.86699745  0.27389535  1  0  0.113395  0  0.970071  0  0  0.124254  0  1.030724  0  0  0.126714  0  1.030526  0  0  0.114207  0.12249  0  1.031001  0
H  H18  1  0.24665489  0.43201297  0.49990438  1  0  0.121771  0  0.939294  0  0  0.133757  0  0.993761  0  0  0.136929  0  0.993241  0  0  0.115395  0.131514  0  0.994199  0
H  H19  1  0.75330777  0.56798292  0.50009791  1  0  0.121841  0  0.939268  0  0  0.133845  0  0.993692  0  0  0.137028  0  0.993172  0  0  0.115389  0.131602  0  0.994133  0
H  H20  1  0.46546551  0.60854331  0.63420238  1  0  0.091013  0  0.930136  0  0  0.099753  0  0.991685  0  0  0.102321  0  0.989284  0  0  0.122604  0.097805  0  0.993437  0
H  H21  1  0.53449984  0.39146059  0.36580113  1  0  0.091084  0  0.93036  0  0  0.099815  0  0.9919  0  0  0.102384  0  0.989498  0  0  0.122625  0.097918  0  0.993597  0
H  H22  1  0.07979900  0.20313481  0.44499458  1  0  0.096051  0  0.966502  0  0  0.102831  0  1.032606  0  0  0.106768  0  1.028683  0  0  0.119631  0.099959  0  1.035352  0
H  H23  1  0.92019215  0.79686039  0.55500176  1  0  0.096073  0  0.966554  0  0  0.102748  0  1.032751  0  0  0.106684  0  1.028828  0  0  0.119611  0.099878  0  1.035496  0
H  H24  1  0.68410054  0.43751640  0.98920346  1  0  0.425358  0  0.878088  0  0  0.39277  0  0.944156  0  0  0.404359  0  0.92746  0  0  0.288888  0.384579  0  0.955942  0
H  H25  1  0.31589142  0.56248287  0.01079139  1  0  0.42549  0  0.877905  0  0  0.392806  0  0.944096  0  0  0.404396  0  0.927401  0  0  0.288956  0.384622  0  0.95587  0
H  H26  1  0.86839502  0.47489338  0.91392754  1  0  0.401423  0  0.901945  0  0  0.363366  0  0.984204  0  0  0.374477  0  0.968313  0  0  0.290817  0.355461  0  0.995518  0
H  H27  1  0.13160686  0.52510857  0.08608024  1  0  0.401366  0  0.901958  0  0  0.363342  0  0.984203  0  0  0.374452  0  0.96831  0  0  0.290806  0.355435  0  0.995521  0
H  H28  1  0.25841796  0.69677544  0.43380946  1  0  0.107975  0  0.946728  0  0  0.116107  0  1.008798  0  0  0.120245  0  1.006515  0  0  0.106811  0.113106  0  1.010528  0
H  H29  1  0.74158057  0.30322611  0.56621159  1  0  0.10767  0  0.947065  0  0  0.115966  0  1.008983  0  0  0.12006  0  1.006753  0  0  0.106717  0.112972  0  1.01071  0
H  H30  1  0.07742434  0.50048557  0.30457621  1  0  0.084929  0  0.988331  0  0  0.092356  0  1.052499  0  0  0.09544  0  1.049837  0  0  0.107464  0.090094  0  1.05442  0
H  H31  1  0.92256892  0.49951302  0.69544207  1  0  0.085013  0  0.988276  0  0  0.092368  0  1.052499  0  0  0.095456  0  1.049837  0  0  0.107437  0.090111  0  1.054414  0
H  H32  1  0.99268753  0.75046705  0.07003571  1  0  0.090943  0  0.943513  0  0  0.09872  0  1.006273  0  0  0.101611  0  1.003493  0  0  0.115862  0.096546  0  1.008384  0
H  H33  1  0.00735069  0.24954008  0.92997327  1  0  0.091089  0  0.943454  0  0  0.098813  0  1.006297  0  0  0.101693  0  1.003519  0  0  0.115917  0.096636  0  1.008407  0
H  H34  1  0.17352940  0.95782246  0.18889686  1  0  0.124561  0  0.930563  0  0  0.135423  0  0.985634  0  0  0.13873  0  0.985013  0  0  0.114072  0.132868  0  0.986481  0
H  H35  1  0.82648788  0.04217655  0.81111122  1  0  0.124568  0  0.930434  0  0  0.135468  0  0.985478  0  0  0.138777  0  0.984858  0  0  0.114093  0.132914  0  0.986325  0
H  H36  1  0.37652062  0.06014782  0.35838174  1  0  0.096014  0  0.928609  0  0  0.102687  0  0.997048  0  0  0.106974  0  0.991947  0  0  0.120867  0.099579  0  1.000693  0
H  H37  1  0.62349428  0.93985925  0.64162493  1  0  0.096037  0  0.92857  0  0  0.102717  0  0.99701  0  0  0.107007  0  0.991912  0  0  0.120853  0.09961  0  1.000656  0
C  C38  1  0.99482071  0.77157215  0.77379414  1  0  0.686069  0  3.832417  0  0  0.644469  0  4.120316  0  0  0.677565  0  4.115347  0  0  0.197376  0.622012  0  4.122724  0
C  C39  1  0.00517376  0.22842709  0.22620246  1  0  0.685927  0  3.832562  0  0  0.644391  0  4.120474  0  0  0.677489  0  4.1155  0  0  0.197427  0.621932  0  4.122876  0
C  C40  1  0.19127411  0.86003233  0.74579311  1  0  -0.276704  0  3.679307  0  0  -0.310772  0  3.929156  0  0  -0.318215  0  3.937576  0  0  -0.173008  -0.305568  0  3.923016  0
C  C41  1  0.80872530  0.13995809  0.25419658  1  0  -0.276575  0  3.679492  0  0  -0.310913  0  3.929582  0  0  -0.318413  0  3.938108  0  0  -0.173047  -0.305692  0  3.923453  0
C  C42  1  0.31376861  0.93251534  0.84726109  1  0  -0.056217  0  3.710265  0  0  -0.100817  0  3.973023  0  0  -0.099558  0  3.985605  0  0  -0.169089  -0.101424  0  3.96402  0
C  C43  1  0.68624913  0.06748534  0.15272449  1  0  -0.056049  0  3.710633  0  0  -0.100511  0  3.973195  0  0  -0.099227  0  3.985758  0  0  -0.168968  -0.101142  0  3.96419  0
C  C44  1  0.34937508  0.83551019  0.92712933  1  0  -0.274215  0  3.68848  0  0  -0.311408  0  3.937896  0  0  -0.31813  0  3.947291  0  0  -0.168244  -0.306794  0  3.93133  0
C  C45  1  0.65064306  0.16449940  0.07286080  1  0  -0.27422  0  3.688505  0  0  -0.311351  0  3.937808  0  0  -0.318076  0  3.947201  0  0  -0.168232  -0.306749  0  3.931254  0
C  C46  1  0.47103104  0.76274691  0.88340805  1  0  0.695772  0  3.818647  0  0  0.650297  0  4.110982  0  0  0.683233  0  4.105441  0  0  0.207123  0.627914  0  4.113942  0
C  C47  1  0.52897064  0.23725130  0.11659037  1  0  0.69592  0  3.818135  0  0  0.650327  0  4.110603  0  0  0.68326  0  4.105068  0  0  0.207125  0.627944  0  4.11356  0
C  C48  1  0.43236687  0.33997704  0.77114679  1  0  0.131967  0  3.692146  0  0  0.101675  0  3.942717  0  0  0.107749  0  3.961848  0  0  0.049988  0.097871  0  3.929603  0
C  C49  1  0.56763437  0.66001589  0.22886060  1  0  0.132298  0  3.692394  0  0  0.101956  0  3.943025  0  0  0.108013  0  3.962132  0  0  0.050109  0.098153  0  3.929903  0
C  C50  1  0.31234820  0.23673243  0.70232737  1  0  -0.127104  0  3.670471  0  0  -0.14974  0  3.917994  0  0  -0.156544  0  3.939857  0  0  -0.067656  -0.145466  0  3.903397  0
C  C51  1  0.68763762  0.76325473  0.29766851  1  0  -0.127149  0  3.670797  0  0  -0.149738  0  3.918327  0  0  -0.15655  0  3.940203  0  0  -0.067526  -0.145452  0  3.903729  0
C  C52  1  0.24336238  0.26751110  0.60176077  1  0  0.102601  0  3.768749  0  0  0.114966  0  4.005252  0  0  0.118785  0  4.026499  0  0  0.015426  0.112523  0  3.990979  0
C  C53  1  0.75663335  0.73249317  0.39823523  1  0  0.102584  0  3.768439  0  0  0.114916  0  4.004951  0  0  0.11874  0  4.026193  0  0  0.015332  0.112473  0  3.990687  0
C  C54  1  0.29822753  0.40388950  0.57679688  1  0  -0.154898  0  3.68866  0  0  -0.172124  0  3.93344  0  0  -0.180602  0  3.955758  0  0  -0.073119  -0.166652  0  3.918317  0
C  C55  1  0.70175431  0.59610845  0.42320685  1  0  -0.154963  0  3.688375  0  0  -0.172194  0  3.933121  0  0  -0.180694  0  3.95545  0  0  -0.073093  -0.166728  0  3.918022  0
C  C56  1  0.41938311  0.50159373  0.65003674  1  0  0.13446  0  3.698182  0  0  0.101098  0  3.9529  0  0  0.10835  0  3.971686  0  0  0.05149  0.096457  0  3.940021  0
C  C57  1  0.58058831  0.49839911  0.34996817  1  0  0.13446  0  3.698146  0  0  0.10113  0  3.952822  0  0  0.108377  0  3.97161  0  0  0.051513  0.096447  0  3.939936  0
C  C58  1  0.11867489  0.16634008  0.52264781  1  0  0.091472  0  3.61158  0  0  0.058368  0  3.872282  0  0  0.064244  0  3.883316  0  0  0.082593  0.054509  0  3.86473  0
C  C59  1  0.88133544  0.83367020  0.47735134  1  0  0.091423  0  3.611768  0  0  0.058433  0  3.872459  0  0  0.064309  0  3.883491  0  0  0.082638  0.054572  0  3.864908  0
C  C60  1  0.20114319  0.71141182  0.35360752  1  0  -0.152317  0  3.726759  0  0  -0.171297  0  3.972306  0  0  -0.178839  0  3.994946  0  0  -0.08465  -0.166277  0  3.956886  0
C  C61  1  0.79885411  0.28859266  0.64641613  1  0  -0.151857  0  3.727267  0  0  -0.171061  0  3.972677  0  0  -0.178576  0  3.995347  0  0  -0.084401  -0.166043  0  3.957243  0
C  C62  1  0.10024052  0.60354746  0.28254289  1  0  0.095728  0  3.758524  0  0  0.07052  0  4.013369  0  0  0.075074  0  4.032485  0  0  0.030464  0.06736  0  4.000809  0
C  C63  1  0.89975924  0.39645116  0.71747557  1  0  0.095429  0  3.758932  0  0  0.07029  0  4.013773  0  0  0.074857  0  4.03285  0  0  0.030292  0.067127  0  4.001219  0
C  C64  1  0.05433826  0.74281993  0.15120539  1  0  0.117646  0  3.722681  0  0  0.09094  0  3.981177  0  0  0.096634  0  3.999446  0  0  0.044102  0.087337  0  3.968648  0
C  C65  1  0.94567549  0.25717784  0.84881007  1  0  0.11739  0  3.722526  0  0  0.090712  0  3.981137  0  0  0.09642  0  3.999393  0  0  0.044008  0.087112  0  3.968605  0
C  C66  1  0.15423644  0.85767743  0.21716563  1  0  -0.156788  0  3.678593  0  0  -0.174844  0  3.925993  0  0  -0.182743  0  3.948067  0  0  -0.078432  -0.169651  0  3.911232  0
C  C67  1  0.84577515  0.14232346  0.78284571  1  0  -0.156625  0  3.678716  0  0  -0.174811  0  3.926044  0  0  -0.18272  0  3.948123  0  0  -0.078366  -0.169616  0  3.911278  0
C  C68  1  0.35709502  0.95893172  0.38569106  1  0  0.092975  0  3.635215  0  0  0.058039  0  3.901391  0  0  0.064381  0  3.912731  0  0  0.078357  0.053748  0  3.893692  0
C  C69  1  0.64292395  0.04107835  0.61431668  1  0  0.09296  0  3.635203  0  0  0.057918  0  3.90136  0  0  0.06425  0  3.912706  0  0  0.078389  0.05363  0  3.893661  0
C  C70  1  0.23582865  0.84242909  0.31904938  1  0  0.08137  0  3.818284  0  0  0.09515  0  4.053182  0  0  0.097376  0  4.077057  0  0  0.003013  0.093942  0  4.036675  0
C  C71  1  0.76418007  0.15757672  0.68096543  1  0  0.081095  0  3.818884  0  0  0.095132  0  4.053517  0  0  0.097373  0  4.077387  0  0  0.002844  0.09392  0  4.037006  0
N  N72  1  0.48691405  0.47050107  0.74539118  1  0  -0.331487  0  3.296384  0  0  -0.250137  0  3.569289  0  0  -0.270418  0  3.586446  0  0  -0.320228  -0.236464  0  3.557547  0
N  N73  1  0.51305363  0.52949475  0.25461458  1  0  -0.331718  0  3.296584  0  0  -0.250394  0  3.569572  0  0  -0.270667  0  3.58672  0  0  -0.320384  -0.236723  0  3.557852  0
N  N74  1  0.05811175  0.03946765  0.54311318  1  0  -0.192391  0  3.019967  0  0  -0.160693  0  3.306755  0  0  -0.170259  0  3.325188  0  0  -0.199215  -0.154264  0  3.294287  0
N  N75  1  0.94189800  0.96053147  0.45688968  1  0  -0.192393  0  3.020397  0  0  -0.16073  0  3.307185  0  0  -0.170291  0  3.325617  0  0  -0.199307  -0.154302  0  3.294717  0
N  N76  1  0.03315954  0.61779275  0.18074584  1  0  -0.332561  0  3.123929  0  0  -0.280419  0  3.380728  0  0  -0.293783  0  3.396517  0  0  -0.324353  -0.271175  0  3.36996  0
N  N77  1  0.96685211  0.38220602  0.81926961  1  0  -0.332352  0  3.124089  0  0  -0.280201  0  3.380801  0  0  -0.293567  0  3.396593  0  0  -0.3242  -0.270959  0  3.370035  0
N  N78  1  0.44423066  0.94017500  0.47333007  1  0  -0.203533  0  3.041156  0  0  -0.175907  0  3.335674  0  0  -0.184482  0  3.352367  0  0  -0.21065  -0.170053  0  3.324427  0
N  N79  1  0.55577857  0.05983902  0.52667839  1  0  -0.203159  0  3.040926  0  0  -0.1755  0  3.335412  0  0  -0.184071  0  3.352102  0  0  -0.210465  -0.169645  0  3.324162  0
O  O80  1  0.89375257  0.68412579  0.70110365  1  0  -0.664241  0  1.954121  0  0  -0.608768  0  2.190912  0  0  -0.634899  0  2.179645  0  0  -0.333032  -0.590214  0  2.197592  0
O  O81  1  0.10623318  0.31587145  0.29889095  1  0  -0.664146  0  1.954215  0  0  -0.608722  0  2.191  0  0  -0.634843  0  2.179726  0  0  -0.333019  -0.590172  0  2.197681  0
O  O82  1  0.93110788  0.78488635  0.86995579  1  0  -0.631088  0  1.962871  0  0  -0.562876  0  2.200565  0  0  -0.59151  0  2.189403  0  0  -0.326697  -0.542968  0  2.207737  0
O  O83  1  0.06889039  0.21511500  0.13003765  1  0  -0.631022  0  1.962903  0  0  -0.562854  0  2.200636  0  0  -0.591481  0  2.18947  0  0  -0.326774  -0.542946  0  2.207807  0
O  O84  1  0.77862694  0.51137725  0.94844548  1  0  -0.81516  0  1.936727  0  0  -0.749448  0  2.159947  0  0  -0.77182  0  2.122746  0  0  -0.57146  -0.733667  0  2.185803  0
O  O85  1  0.22136890  0.48862493  0.05155378  1  0  -0.81522  0  1.936738  0  0  -0.749433  0  2.160117  0  0  -0.771806  0  2.122924  0  0  -0.571497  -0.733657  0  2.185968  0
O  O86  1  0.49498119  0.67360824  0.94771943  1  0  -0.681213  0  2.015032  0  0  -0.601533  0  2.257154  0  0  -0.631457  0  2.243062  0  0  -0.331246  -0.580638  0  2.266148  0
O  O87  1  0.50501495  0.32639193  0.05227976  1  0  -0.681229  0  2.014912  0  0  -0.601525  0  2.257058  0  0  -0.631439  0  2.242957  0  0  -0.331211  -0.580627  0  2.266054  0
O  O88  1  0.54817351  0.78596903  0.79066542  1  0  -0.613686  0  1.932551  0  0  -0.560283  0  2.163687  0  0  -0.585504  0  2.154285  0  0  -0.30713  -0.54255  0  2.16936  0
O  O89  1  0.45182946  0.21401617  0.20933168  1  0  -0.613714  0  1.932313  0  0  -0.560293  0  2.163513  0  0  -0.585497  0  2.154091  0  0  -0.307138  -0.542565  0  2.169188  0
