# generated using pymatgen
data_ZnH15C18N3O5
_symmetry_space_group_name_H-M   'P 1'
_cell_length_a   11.06387212
_cell_length_b   14.92665316
_cell_length_c   14.92704258
_cell_angle_alpha   124.25646018
_cell_angle_beta   93.37340016
_cell_angle_gamma   93.37309627
_symmetry_Int_Tables_number   1
_chemical_formula_structural   ZnH15C18N3O5
_chemical_formula_sum   'Zn4 H60 C72 N12 O20'
_cell_volume   2021.30826123
_cell_formula_units_Z   4
loop_
 _symmetry_equiv_pos_site_id
 _symmetry_equiv_pos_as_xyz
  1  'x, y, z'
loop_
 _atom_site_type_symbol
 _atom_site_label
 _atom_site_symmetry_multiplicity
 _atom_site_fract_x
 _atom_site_fract_y
 _atom_site_fract_z
 _atom_site_occupancy
 _atom_site_pbe_bader_charge
 _atom_site_pbe_bader_spin_density
 _atom_site_pbe_cm5_charge
 _atom_site_pbe_ddec_charge
 _atom_site_pbe_ddec_spin_density
 _atom_site_pbe_ddec_sum_bond_order
 _atom_site_pbe_magmom
Zn  Zn0  1  0.58803646  0.72671824  0.17257420  1  1.30126  0  0.693403  0.866507  0  2.322864  0
Zn  Zn1  1  0.91202483  0.82741586  0.27326116  1  1.301571  0  0.693475  0.866626  0  2.322962  0
Zn  Zn2  1  0.41197588  0.27326713  0.82743393  1  1.301288  0  0.693565  0.866783  0  2.322828  0
Zn  Zn3  1  0.08800116  0.17258256  0.72672449  1  1.301572  0  0.693521  0.866746  0  2.322781  0
H  H4  1  0.59050953  0.69301664  0.45918868  1  0.087117  0  0.101247  0.099975  0  1.016935  0
H  H5  1  0.90953601  0.54084079  0.30699688  1  0.086629  0  0.101327  0.100136  0  1.01678  0
H  H6  1  0.40949141  0.30699636  0.54084217  1  0.086621  0  0.101257  0.100027  0  1.017005  0
H  H7  1  0.09053599  0.45919275  0.69301406  1  0.131642  0  0.10119  0.099989  0  1.016865  0
H  H8  1  0.61337981  0.59378584  0.54915366  1  0.029327  0  0.104287  0.115941  0  1.003875  0
H  H9  1  0.88662943  0.45086594  0.40622847  1  0.029739  0  0.104271  0.115813  0  1.003913  0
H  H10  1  0.38661054  0.40620536  0.45086569  1  0.029724  0  0.10429  0.11585  0  1.003829  0
H  H11  1  0.11339461  0.54916899  0.59378717  1  0.029157  0  0.104237  0.11581  0  1.003761  0
H  H12  1  0.62164155  0.29305566  0.23547985  1  0.069157  0  0.09744  0.110773  0  1.028551  0
H  H13  1  0.87836860  0.76453532  0.70693846  1  0.069525  0  0.097455  0.110798  0  1.02869  0
H  H14  1  0.37837995  0.70695292  0.76453441  1  0.069171  0  0.097455  0.110866  0  1.028564  0
H  H15  1  0.12166501  0.23549124  0.29307396  1  0.069426  0  0.097398  0.110677  0  1.028736  0
H  H16  1  0.59123357  0.39121896  0.14639606  1  0.098518  0  0.099638  0.095851  0  1.042723  0
H  H17  1  0.90880651  0.85364033  0.60880075  1  0.098478  0  0.099592  0.095757  0  1.042498  0
H  H18  1  0.40879948  0.60880107  0.85363097  1  0.098521  0  0.099621  0.095721  0  1.042517  0
H  H19  1  0.09125212  0.14640211  0.39122354  1  0.098327  0  0.099587  0.095757  0  1.042739  0
H  H20  1  0.51373480  0.02969585  0.24429952  1  0.058446  0  0.099947  0.098972  0  1.030193  0
H  H21  1  0.98625109  0.75566724  0.97024997  1  0.059172  0  0.099884  0.09877  0  1.030495  0
H  H22  1  0.48624847  0.97026247  0.75567651  1  0.058824  0  0.099869  0.098709  0  1.030488  0
H  H23  1  0.01374639  0.24431056  0.02972312  1  0.058682  0  0.099892  0.098814  0  1.030444  0
H  H24  1  0.48312097  0.22294810  0.31091073  1  0.063874  0  0.105038  0.119177  0  0.997014  0
H  H25  1  0.01682049  0.68909148  0.77700182  1  0.063139  0  0.105061  0.119257  0  0.997006  0
H  H26  1  0.51684265  0.77701241  0.68906802  1  0.06302  0  0.105087  0.119333  0  0.997039  0
H  H27  1  0.98313151  0.31091421  0.22298079  1  0.063825  0  0.105066  0.119155  0  0.997031  0
H  H28  1  0.83173411  0.33351900  0.50485322  1  0.122885  0  0.107502  0.127055  0  1.020439  0
H  H29  1  0.66823711  0.49512810  0.66647357  1  0.122089  0  0.107524  0.127032  0  1.020613  0
H  H30  1  0.16822029  0.66646707  0.49512046  1  0.121979  0  0.107496  0.127056  0  1.020455  0
H  H31  1  0.33176057  0.50486609  0.33352700  1  0.122646  0  0.107529  0.127102  0  1.020499  0
H  H32  1  0.86011790  0.14071929  0.43964944  1  0.131359  0  0.10667  0.11466  0  1.031226  0
H  H33  1  0.63988860  0.56029806  0.85926725  1  0.132266  0  0.106647  0.114444  0  1.031332  0
H  H34  1  0.13987958  0.85928002  0.56032232  1  0.131932  0  0.106657  0.114504  0  1.031332  0
H  H35  1  0.36012415  0.43964679  0.14070935  1  0.131846  0  0.106657  0.114641  0  1.031153  0
H  H36  1  0.36837727  0.53615828  0.04031872  1  0.223067  0  0.144929  0.132943  0  1.017074  0
H  H37  1  0.13158274  0.95963139  0.46380328  1  0.223242  0  0.144836  0.132737  0  1.017094  0
H  H38  1  0.63159953  0.46382314  0.95967053  1  0.223314  0  0.144906  0.132798  0  1.016992  0
H  H39  1  0.86841980  0.04035844  0.53619190  1  0.22341  0  0.144854  0.132753  0  1.017043  0
H  H40  1  0.38201051  0.86245142  0.14179716  1  0.124863  0  0.100945  0.058549  0  1.1256  0
H  H41  1  0.11796532  0.85816066  0.13754207  1  0.1253  0  0.100868  0.05838  0  1.125766  0
H  H42  1  0.61801518  0.13753202  0.85813829  1  0.124748  0  0.10084  0.058348  0  1.126024  0
H  H43  1  0.88204719  0.14180393  0.86246578  1  0.125226  0  0.100994  0.058598  0  1.125396  0
H  H44  1  0.16830378  0.45602935  0.89569918  1  0.117775  0  0.11885  0.117984  0  0.98866  0
H  H45  1  0.33170792  0.10430315  0.54396102  1  0.117888  0  0.118809  0.117893  0  0.988665  0
H  H46  1  0.83171032  0.54395386  0.10429718  1  0.117878  0  0.118823  0.117869  0  0.988771  0
H  H47  1  0.66831674  0.89570538  0.45603596  1  0.11766  0  0.118871  0.118049  0  0.988588  0
H  H48  1  0.08598542  0.55045891  0.89025838  1  0.043722  0  0.107564  0.085488  0  0.993325  0
H  H49  1  0.41400783  0.10975140  0.44954540  1  0.043849  0  0.107605  0.085639  0  0.993592  0
H  H50  1  0.91399808  0.44952590  0.10973909  1  0.043943  0  0.107581  0.085569  0  0.993557  0
H  H51  1  0.58596483  0.89027436  0.55046914  1  0.043405  0  0.107492  0.085384  0  0.993467  0
H  H52  1  0.02545636  0.62517135  0.07843691  1  0.055127  0  0.091207  0.092079  0  1.01061  0
H  H53  1  0.47452788  0.92157314  0.37479815  1  0.054873  0  0.091222  0.092111  0  1.010486  0
H  H54  1  0.97451875  0.37479511  0.92155638  1  0.054742  0  0.091139  0.091936  0  1.010542  0
H  H55  1  0.52547760  0.07845794  0.62517416  1  0.055311  0  0.091215  0.092041  0  1.010323  0
H  H56  1  0.10928907  0.53115536  0.08489971  1  0.032286  0  0.09116  0.088599  0  0.991263  0
H  H57  1  0.39068451  0.91507993  0.46881733  1  0.032387  0  0.091112  0.088579  0  0.991039  0
H  H58  1  0.89068432  0.46882001  0.91507742  1  0.032169  0  0.09112  0.088553  0  0.991083  0
H  H59  1  0.60931024  0.08491041  0.53116695  1  0.032122  0  0.091058  0.088486  0  0.991281  0
H  H60  1  0.21619493  0.72866661  0.96718937  1  0.420658  0  0.321854  0.248962  0  0.920493  0
H  H61  1  0.28373526  0.03293776  0.27140281  1  0.420808  0  0.321896  0.248997  0  0.92072  0
H  H62  1  0.78372580  0.27137160  0.03287977  1  0.420735  0  0.32186  0.248891  0  0.920873  0
H  H63  1  0.71615981  0.96717549  0.72866981  1  0.420367  0  0.321814  0.248959  0  0.920206  0
C  C64  1  0.59031611  0.54818548  0.29714936  1  -0.053777  0  -0.025648  -0.04973  0  3.98363  0
C  C65  1  0.90971300  0.70287365  0.45182609  1  0.006087  0  -0.025813  -0.050358  0  3.98401  0
C  C66  1  0.40969719  0.45182346  0.70286865  1  0.006285  0  -0.02577  -0.050106  0  3.984129  0
C  C67  1  0.09034173  0.29715492  0.54818927  1  -0.054357  0  -0.025778  -0.049942  0  3.983338  0
C  C68  1  0.59552879  0.60534826  0.41087042  1  -0.040931  0  -0.081046  -0.065337  0  3.978379  0
C  C69  1  0.90451031  0.58915248  0.39465730  1  -0.0405  0  -0.080951  -0.065183  0  3.978432  0
C  C70  1  0.40447739  0.39465151  0.58915304  1  -0.041412  0  -0.080973  -0.065269  0  3.978857  0
C  C71  1  0.09555590  0.41088441  0.60535375  1  -0.085517  0  -0.080978  -0.065439  0  3.978124  0
C  C72  1  0.60788751  0.55097030  0.46094442  1  0.063591  0  -0.101907  -0.194434  0  4.012673  0
C  C73  1  0.89212021  0.53907960  0.44903239  1  0.064611  0  -0.10199  -0.194353  0  4.012736  0
C  C74  1  0.39210838  0.44902159  0.53907561  1  0.065317  0  -0.101922  -0.194201  0  4.012692  0
C  C75  1  0.10790117  0.46095418  0.55097377  1  0.063668  0  -0.101791  -0.194091  0  4.012321  0
C  C76  1  0.61901953  0.43896342  0.39806493  1  0.410684  0  0.087474  0.263295  0  4.046249  0
C  C77  1  0.88096459  0.60194622  0.56102448  1  0.411049  0  0.087594  0.263641  0  4.046521  0
C  C78  1  0.38096855  0.56102338  0.60194391  1  0.41115  0  0.087504  0.263311  0  4.046287  0
C  C79  1  0.11903869  0.39807567  0.43897367  1  0.41053  0  0.087445  0.263231  0  4.046707  0
C  C80  1  0.61302340  0.38014010  0.28439042  1  -0.046597  0  -0.118024  -0.23826  0  4.034485  0
C  C81  1  0.88699799  0.71561750  0.61986370  1  -0.046563  0  -0.118043  -0.238322  0  4.034803  0
C  C82  1  0.38699449  0.61986856  0.71562367  1  -0.0465  0  -0.11796  -0.238286  0  4.034437  0
C  C83  1  0.11303912  0.28440251  0.38014679  1  -0.046159  0  -0.117971  -0.238029  0  4.034294  0
C  C84  1  0.59742508  0.43540832  0.23494694  1  0.006723  0  -0.084828  -0.067915  0  3.992186  0
C  C85  1  0.90261068  0.76507219  0.56460719  1  -0.053947  0  -0.084794  -0.06769  0  3.991699  0
C  C86  1  0.40260178  0.56460026  0.76507030  1  -0.053778  0  -0.084881  -0.067726  0  3.991844  0
C  C87  1  0.09745069  0.23495993  0.43541982  1  0.006496  0  -0.08483  -0.067906  0  3.992044  0
C  C88  1  0.57891184  0.60412363  0.24087972  1  1.537682  0  0.19335  0.557217  0  4.219217  0
C  C89  1  0.92112813  0.75914203  0.39588190  1  1.53766  0  0.193663  0.557681  0  4.219187  0
C  C90  1  0.42110773  0.39588529  0.75914131  1  1.537347  0  0.19371  0.557702  0  4.218809  0
C  C91  1  0.07893650  0.24087509  0.60413265  1  1.538566  0  0.193698  0.557555  0  4.218488  0
C  C92  1  0.68772426  0.07407531  0.33847253  1  -0.054338  0  -0.027313  -0.061627  0  3.987275  0
C  C93  1  0.81229302  0.66149327  0.92588692  1  -0.053517  0  -0.027338  -0.061666  0  3.987268  0
C  C94  1  0.31228358  0.92590569  0.66150620  1  -0.053587  0  -0.027278  -0.061542  0  3.987049  0
C  C95  1  0.18771806  0.33848066  0.07409629  1  -0.053323  0  -0.027258  -0.061444  0  3.986894  0
C  C96  1  0.58218826  0.09734841  0.30174333  1  -0.015749  0  -0.088272  -0.082436  0  4.015591  0
C  C97  1  0.91781393  0.69823689  0.90260456  1  -0.015745  0  -0.088212  -0.082231  0  4.016097  0
C  C98  1  0.41780812  0.90262425  0.69823903  1  -0.015863  0  -0.088153  -0.082014  0  4.01576  0
C  C99  1  0.08218601  0.30174598  0.09737605  1  -0.015443  0  -0.088246  -0.082412  0  4.01579  0
C  C100  1  0.56539796  0.20402025  0.33809423  1  -0.038381  0  -0.106575  -0.21792  0  4.026513  0
C  C101  1  0.93456136  0.66189875  0.79593809  1  -0.038809  0  -0.10663  -0.218022  0  4.02733  0
C  C102  1  0.43457312  0.79595306  0.66188905  1  -0.044844  0  -0.106695  -0.218276  0  4.026978  0
C  C103  1  0.06540021  0.33809860  0.20404198  1  -0.039378  0  -0.10661  -0.217726  0  4.02675  0
C  C104  1  0.65654468  0.28800247  0.41137694  1  0.417592  0  0.088535  0.266686  0  4.028941  0
C  C105  1  0.84340601  0.58861463  0.71196659  1  0.418213  0  0.088511  0.266731  0  4.028713  0
C  C106  1  0.34340524  0.71197456  0.58860643  1  0.424765  0  0.088547  0.266735  0  4.028675  0
C  C107  1  0.15656604  0.41137432  0.28800962  1  0.417676  0  0.088512  0.266654  0  4.02915  0
C  C108  1  0.76256738  0.26617171  0.44827151  1  -0.026451  0  -0.096978  -0.18914  0  3.952458  0
C  C109  1  0.73738825  0.55171396  0.73381568  1  -0.02603  0  -0.096981  -0.189223  0  3.952445  0
C  C110  1  0.23738846  0.73381300  0.55170823  1  -0.02586  0  -0.09694  -0.189155  0  3.95258  0
C  C111  1  0.26259322  0.44827487  0.26618111  1  -0.025976  0  -0.097069  -0.189327  0  3.952559  0
C  C112  1  0.77786054  0.15928559  0.41193598  1  -0.033848  0  -0.078218  -0.065352  0  3.953808  0
C  C113  1  0.72214020  0.58803393  0.84070300  1  -0.035  0  -0.078114  -0.064846  0  3.953751  0
C  C114  1  0.22213370  0.84070607  0.58804160  1  -0.034729  0  -0.07822  -0.065063  0  3.953725  0
C  C115  1  0.27786590  0.41193898  0.15929079  1  -0.034936  0  -0.078138  -0.065207  0  3.953659  0
C  C116  1  0.70388758  0.95929095  0.29957061  1  1.594521  0  0.22093  0.59619  0  4.177388  0
C  C117  1  0.79617053  0.70040542  0.04068480  1  1.590786  0  0.220871  0.596291  0  4.177667  0
C  C118  1  0.29613264  0.04069492  0.70041677  1  1.593621  0  0.2208  0.595952  0  4.177582  0
C  C119  1  0.20384225  0.29957891  0.95930000  1  1.590306  0  0.22089  0.596366  0  4.177258  0
C  C120  1  0.34712352  0.60980529  0.04763912  1  1.000833  0  0.15955  0.113779  0  3.892545  0
C  C121  1  0.15290175  0.95231066  0.39016253  1  1.000692  0  0.159632  0.114201  0  3.892232  0
C  C122  1  0.65288169  0.39017216  0.95234830  1  1.001132  0  0.159528  0.114108  0  3.892489  0
C  C123  1  0.84711397  0.04768203  0.60983224  1  1.000611  0  0.159723  0.11396  0  3.892131  0
C  C124  1  0.36329029  0.77425205  0.08402238  1  0.685222  0  0.045641  -0.018397  0  3.852277  0
C  C125  1  0.13669784  0.91599936  0.22573944  1  0.681646  0  0.045587  -0.01834  0  3.853031  0
C  C126  1  0.63668603  0.22573164  0.91600024  1  0.684659  0  0.045372  -0.018867  0  3.852909  0
C  C127  1  0.86328633  0.08404595  0.77427205  1  0.682113  0  0.045899  -0.018075  0  3.853021  0
C  C128  1  0.13668605  0.53690394  0.94654772  1  0.311439  0  -0.051187  -0.083136  0  3.902609  0
C  C129  1  0.36331801  0.05347566  0.46307964  1  0.310829  0  -0.051237  -0.083227  0  3.902842  0
C  C130  1  0.86330901  0.46307537  0.05345821  1  0.311036  0  -0.051252  -0.083187  0  3.902812  0
C  C131  1  0.63669205  0.94655961  0.53691795  1  0.311979  0  -0.051035  -0.083251  0  3.902798  0
C  C132  1  0.05518482  0.54318240  0.02881831  1  -0.042293  0  -0.165794  -0.161955  0  3.923474  0
C  C133  1  0.44479147  0.97117143  0.45678861  1  -0.01947  0  -0.165681  -0.161887  0  3.923123  0
C  C134  1  0.94478479  0.45679236  0.97116096  1  -0.0195  0  -0.16563  -0.161644  0  3.922868  0
C  C135  1  0.55518757  0.02881800  0.54316613  1  -0.042605  0  -0.165695  -0.16171  0  3.923533  0
N  N136  1  0.41812622  0.70379800  0.10028916  1  -1.255099  0  -0.356157  -0.301259  0  3.663811  0
N  N137  1  0.08193141  0.89965536  0.29617515  1  -1.253173  0  -0.35639  -0.30174  0  3.665199  0
N  N138  1  0.58187860  0.29618725  0.89969366  1  -1.256062  0  -0.356249  -0.301411  0  3.664219  0
N  N139  1  0.91808641  0.10032295  0.70382083  1  -1.252999  0  -0.356352  -0.301646  0  3.665178  0
N  N140  1  0.24297916  0.72560749  0.03226854  1  -0.725668  0  -0.311826  -0.220869  0  3.383171  0
N  N141  1  0.25698529  0.96780680  0.27438781  1  -0.725355  0  -0.311963  -0.221065  0  3.383651  0
N  N142  1  0.75699569  0.27438102  0.96777197  1  -0.724905  0  -0.311989  -0.220931  0  3.3836  0
N  N143  1  0.74300064  0.03226005  0.72562449  1  -0.724764  0  -0.311607  -0.220723  0  3.383583  0
N  N144  1  0.24567456  0.61438059  0.99548900  1  -0.842453  0  -0.17304  0.072416  0  3.605858  0
N  N145  1  0.25432179  0.00452377  0.38560647  1  -0.842561  0  -0.173103  0.07217  0  3.605216  0
N  N146  1  0.75430630  0.38560858  0.00453342  1  -0.843121  0  -0.173091  0.072196  0  3.605796  0
N  N147  1  0.74566685  0.99552264  0.61441458  1  -0.842653  0  -0.173296  0.072542  0  3.605816  0
O  O148  1  0.54729228  0.54842379  0.13940122  1  -1.200127  0  -0.312307  -0.547373  0  2.209207  0
O  O149  1  0.95277216  0.86061737  0.45159822  1  -1.199334  0  -0.312441  -0.547693  0  2.209467  0
O  O150  1  0.45277046  0.45158792  0.86061638  1  -1.199114  0  -0.312457  -0.54771  0  2.209182  0
O  O151  1  0.04726990  0.13940473  0.54844450  1  -1.200147  0  -0.312402  -0.547456  0  2.208867  0
O  O152  1  0.60336822  0.70946243  0.29748876  1  -1.149177  0  -0.333851  -0.565159  0  2.256755  0
O  O153  1  0.89661279  0.70254853  0.29055751  1  -1.149756  0  -0.334001  -0.565166  0  2.256921  0
O  O154  1  0.39661765  0.29056039  0.70255716  1  -1.149515  0  -0.334093  -0.565299  0  2.256734  0
O  O155  1  0.10340459  0.29747949  0.70946079  1  -1.149791  0  -0.334085  -0.565344  0  2.25705  0
O  O156  1  0.64306307  0.39653321  0.45774091  1  -1.117477  0  -0.14492  -0.215179  0  2.663644  0
O  O157  1  0.85683646  0.54225323  0.60342138  1  -1.118355  0  -0.144976  -0.215576  0  2.663488  0
O  O158  1  0.35685607  0.60342891  0.54224956  1  -1.118326  0  -0.144973  -0.215456  0  2.663262  0
O  O159  1  0.14311153  0.45774794  0.39654720  1  -1.117462  0  -0.144862  -0.215378  0  2.664119  0
O  O160  1  0.61886474  0.88589921  0.23191336  1  -1.189351  0  -0.315303  -0.547926  0  2.369926  0
O  O161  1  0.88117201  0.76802746  0.11406695  1  -1.186708  0  -0.3152  -0.547947  0  2.371132  0
O  O162  1  0.38114410  0.11408264  0.76806722  1  -1.18918  0  -0.315139  -0.547729  0  2.370495  0
O  O163  1  0.11883138  0.23193310  0.88591678  1  -1.186741  0  -0.315202  -0.548017  0  2.370547  0
O  O164  1  0.80005633  0.94382250  0.33829656  1  -1.187272  0  -0.313741  -0.549315  0  2.39008  0
O  O165  1  0.69995988  0.66168041  0.05614875  1  -1.186136  0  -0.313822  -0.549516  0  2.389452  0
O  O166  1  0.19995096  0.05618018  0.66170303  1  -1.186444  0  -0.313853  -0.549445  0  2.389762  0
O  O167  1  0.30002315  0.33832034  0.94382966  1  -1.185813  0  -0.313839  -0.549657  0  2.389567  0
