# generated using pymatgen
data_AlH9(C5O2)3
_symmetry_space_group_name_H-M   'P 1'
_cell_length_a   6.70775298
_cell_length_b   15.31322365
_cell_length_c   17.65157213
_cell_angle_alpha   85.39519277
_cell_angle_beta   80.92058671
_cell_angle_gamma   77.54387816
_symmetry_Int_Tables_number   1
_chemical_formula_structural   AlH9(C5O2)3
_chemical_formula_sum   'Al2 H18 C30 O12'
_cell_volume   1746.24941672
_cell_formula_units_Z   2
loop_
 _symmetry_equiv_pos_site_id
 _symmetry_equiv_pos_as_xyz
  1  'x, y, z'
loop_
 _atom_site_type_symbol
 _atom_site_label
 _atom_site_symmetry_multiplicity
 _atom_site_fract_x
 _atom_site_fract_y
 _atom_site_fract_z
 _atom_site_occupancy
 _atom_site_pbe_bader_charge
 _atom_site_pbe_bader_spin_density
 _atom_site_pbe_cm5_charge
 _atom_site_pbe_ddec_charge
 _atom_site_pbe_ddec_spin_density
 _atom_site_pbe_ddec_sum_bond_order
 _atom_site_pbe_magmom
Al  Al0  1  0.49998673  0.50000252  0.50001129  1  2.504691  0  0.400602  1.657802  0  2.573633  0
Al  Al1  1  0.99997978  0.50000412  0.49999727  1  2.505389  0  0.401951  1.650049  0  2.566518  0
H  H2  1  0.26453106  0.40931116  0.56980180  1  0.622372  0  0.355334  0.433708  0  0.84748  0
H  H3  1  0.73544705  0.59064618  0.43014916  1  0.62229  0  0.355335  0.433629  0  0.847605  0
H  H4  1  0.67343178  0.49915514  0.27802436  1  0.092957  0  0.108639  0.116804  0  1.008234  0
H  H5  1  0.76569708  0.49893948  0.13540169  1  0.128711  0  0.099294  0.110121  0  1.049723  0
H  H6  1  0.04754062  0.48871299  0.25836811  1  0.096549  0  0.115881  0.138749  0  0.993066  0
H  H7  1  0.95241899  0.51150223  0.74161252  1  0.096268  0  0.115814  0.138586  0  0.993325  0
H  H8  1  0.32677290  0.50060905  0.72199989  1  0.094876  0  0.108769  0.116765  0  1.008649  0
H  H9  1  0.23451446  0.50085477  0.86462594  1  0.128018  0  0.099065  0.109902  0  1.050159  0
H  H10  1  0.79886617  0.76945334  0.50224379  1  0.108614  0  0.107987  0.10989  0  1.009492  0
H  H11  1  0.71372179  0.93416915  0.49621327  1  0.067079  0  0.096658  0.090106  0  1.039439  0
H  H12  1  0.20109201  0.23055552  0.49774898  1  0.109018  0  0.107896  0.109765  0  1.009693  0
H  H13  1  0.28625675  0.06583552  0.50374950  1  0.06737  0  0.096688  0.089976  0  1.039297  0
H  H14  1  0.57277633  0.22769151  0.47976785  1  0.095282  0  0.10809  0.110045  0  1.007614  0
H  H15  1  0.65311598  0.06287890  0.48548061  1  0.03774  0  0.096975  0.091198  0  1.039801  0
H  H16  1  0.42715193  0.77230898  0.52024441  1  0.095956  0  0.108117  0.110105  0  1.00775  0
H  H17  1  0.34683795  0.93712323  0.51451398  1  0.037292  0  0.097007  0.09124  0  1.039638  0
H  H18  1  0.17122854  0.48798717  0.05360219  1  0.587029  0  0.318113  0.346948  0  0.920102  0
H  H19  1  0.82875429  0.51232661  0.94636860  1  0.585979  0  0.318271  0.347007  0  0.920184  0
C  C20  1  0.82791119  0.33922950  0.49175570  1  1.576525  0  0.266917  0.640848  0  4.096713  0
C  C21  1  0.69558639  0.50070667  0.63862759  1  1.559178  0  0.269477  0.643979  0  4.088873  0
C  C22  1  0.17204126  0.66077101  0.50825609  1  1.576453  0  0.267089  0.641077  0  4.096539  0
C  C23  1  0.30444000  0.49928733  0.36137630  1  1.558568  0  0.269599  0.64415  0  4.088737  0
C  C24  1  0.35542586  0.49534192  0.27610745  1  0.056285  0  -0.011737  -0.02066  0  3.992571  0
C  C25  1  0.55808945  0.49731040  0.24148675  1  -0.042897  0  -0.091609  -0.118485  0  4.00459  0
C  C26  1  0.60890334  0.49727291  0.16233806  1  -0.006727  0  -0.085736  -0.103049  0  3.975527  0
C  C27  1  0.45716337  0.49543302  0.11602469  1  0.097378  0  -0.018922  0.009459  0  4.140303  0
C  C28  1  0.25382972  0.49129704  0.15154081  1  0.491662  0  0.09013  0.273339  0  4.039144  0
C  C29  1  0.20369222  0.49128670  0.23114853  1  -0.002019  0  -0.090509  -0.209315  0  3.931757  0
C  C30  1  0.49576511  0.49831366  0.03507126  1  -0.375215  0  -0.041814  -0.1106  0  4.160885  0
C  C31  1  0.50438942  0.50171705  0.96494343  1  -0.150898  0  -0.041908  -0.110531  0  4.160717  0
C  C32  1  0.54294793  0.50459244  0.88398242  1  0.089076  0  -0.019186  0.008548  0  4.141218  0
C  C33  1  0.74620051  0.50887045  0.84845505  1  0.500523  0  0.090609  0.273842  0  4.039068  0
C  C34  1  0.79632159  0.50884537  0.76884322  1  -0.00112  0  -0.090625  -0.209278  0  3.931297  0
C  C35  1  0.64465129  0.50464134  0.72389996  1  0.056204  0  -0.011705  -0.020629  0  3.992097  0
C  C36  1  0.44206135  0.50254015  0.75853410  1  -0.044463  0  -0.091727  -0.118584  0  4.005013  0
C  C37  1  0.39126622  0.50259509  0.83768104  1  -0.006396  0  -0.085609  -0.102475  0  3.97621  0
C  C38  1  0.11911427  0.76029334  0.51011746  1  -0.042918  0  -0.015274  -0.044509  0  3.974455  0
C  C39  1  0.88084406  0.23970667  0.48988491  1  -0.056253  0  -0.015343  -0.044611  0  3.974543  0
C  C40  1  0.91781360  0.80727526  0.50447629  1  0.035293  0  -0.080366  -0.083503  0  3.983155  0
C  C41  1  0.87173530  0.90026612  0.50102519  1  -0.108675  0  -0.088069  -0.125624  0  3.974781  0
C  C42  1  0.08215171  0.19273431  0.49551426  1  0.034967  0  -0.080185  -0.083333  0  3.983352  0
C  C43  1  0.12822362  0.09974298  0.49895278  1  -0.109369  0  -0.088086  -0.125371  0  3.974678  0
C  C44  1  0.72859704  0.19116376  0.48546407  1  -0.071265  0  -0.080594  -0.083611  0  3.983008  0
C  C45  1  0.77567121  0.09818186  0.48893647  1  -0.006874  0  -0.088985  -0.128873  0  3.97712  0
C  C46  1  0.27134608  0.80884289  0.51454060  1  -0.084538  0  -0.08053  -0.083624  0  3.983594  0
C  C47  1  0.22426137  0.90182363  0.51105707  1  -0.005986  0  -0.088998  -0.128886  0  3.977617  0
C  C48  1  0.02407858  0.95037414  0.50298713  1  -0.063423  0  -0.001892  0.073428  0  3.97529  0
C  C49  1  0.97588645  0.04963220  0.49699626  1  0.04983  0  -0.001899  0.073322  0  3.975244  0
O  O50  1  0.64209575  0.37765816  0.48607538  1  -1.259552  0  -0.236687  -0.593008  0  2.337689  0
O  O51  1  0.87682039  0.50687298  0.60726219  1  -1.256605  0  -0.2366  -0.588631  0  2.320786  0
O  O52  1  0.02802534  0.62185854  0.49896862  1  -1.262049  0  -0.236379  -0.600282  0  2.35225  0
O  O53  1  0.44895427  0.51033205  0.39635367  1  -1.269357  0  -0.238103  -0.603545  0  2.368503  0
O  O54  1  0.35785439  0.62234213  0.51395017  1  -1.259374  0  -0.236768  -0.593181  0  2.337705  0
O  O55  1  0.12318651  0.49312918  0.39273229  1  -1.256958  0  -0.236703  -0.588852  0  2.320623  0
O  O56  1  0.97194232  0.37814358  0.50102790  1  -1.261879  0  -0.236268  -0.600201  0  2.352389  0
O  O57  1  0.55105563  0.48966246  0.60365922  1  -1.269853  0  -0.238106  -0.603515  0  2.36858  0
O  O58  1  0.25620136  0.45919069  0.53236858  1  -1.426481  0  -0.447943  -0.997338  0  2.204422  0
O  O59  1  0.74377183  0.54081604  0.46763239  1  -1.426209  0  -0.447989  -0.997238  0  2.204492  0
O  O60  1  0.10580942  0.48789977  0.10746804  1  -1.11903  0  -0.34367  -0.431522  0  2.302464  0
O  O61  1  0.89414787  0.51244208  0.89250500  1  -1.119039  0  -0.343783  -0.431519  0  2.302674  0
