# generated using pymatgen
data_CdH18C19N4ClO2
_symmetry_space_group_name_H-M   'P 1'
_cell_length_a   9.40557428
_cell_length_b   9.80461854
_cell_length_c   10.77630111
_cell_angle_alpha   86.10530480
_cell_angle_beta   80.81037813
_cell_angle_gamma   72.07305378
_symmetry_Int_Tables_number   1
_chemical_formula_structural   CdH18C19N4ClO2
_chemical_formula_sum   'Cd2 H36 C38 N8 Cl2 O4'
_cell_volume   933.20000396
_cell_formula_units_Z   2
loop_
 _symmetry_equiv_pos_site_id
 _symmetry_equiv_pos_as_xyz
  1  'x, y, z'
loop_
 _atom_site_type_symbol
 _atom_site_label
 _atom_site_symmetry_multiplicity
 _atom_site_fract_x
 _atom_site_fract_y
 _atom_site_fract_z
 _atom_site_occupancy
 _atom_site_hle17_bader_spin_density
 _atom_site_hle17_ddec_charge
 _atom_site_hle17_ddec_spin_density
 _atom_site_hle17_ddec_sum_bond_order
 _atom_site_hle17_magmom
 _atom_site_hse06_10hf_bader_spin_density
 _atom_site_hse06_10hf_ddec_charge
 _atom_site_hse06_10hf_ddec_spin_density
 _atom_site_hse06_10hf_ddec_sum_bond_order
 _atom_site_hse06_10hf_magmom
 _atom_site_hse06_bader_spin_density
 _atom_site_hse06_ddec_charge
 _atom_site_hse06_ddec_spin_density
 _atom_site_hse06_ddec_sum_bond_order
 _atom_site_hse06_magmom
 _atom_site_pbe_bader_spin_density
 _atom_site_pbe_cm5_charge
 _atom_site_pbe_ddec_charge
 _atom_site_pbe_ddec_spin_density
 _atom_site_pbe_ddec_sum_bond_order
 _atom_site_pbe_magmom
Cd  Cd0  1  0.45696565  0.70157884  0.50273084  1  0  1.008574  0  1.873624  0  0  0.830941  0  2.328529  0  0  0.881275  0  2.284706  0  0  0.676839  0.795842  0  2.358601  0
Cd  Cd1  1  0.54303105  0.29841787  0.49726876  1  0  1.008605  0  1.873624  0  0  0.830973  0  2.328538  0  0  0.881311  0  2.28471  0  0  0.676847  0.795875  0  2.358616  0
H  H2  1  0.08667050  0.90572006  0.54851656  1  0  0.1005  0  0.975175  0  0  0.111268  0  1.035718  0  0  0.11333  0  1.035675  0  0  0.113328  0.109616  0  1.036229  0
H  H3  1  0.91332874  0.09428206  0.45148419  1  0  0.100509  0  0.975167  0  0  0.111282  0  1.03571  0  0  0.113343  0  1.035668  0  0  0.113348  0.109629  0  1.036222  0
H  H4  1  0.24157775  0.81880869  0.12080223  1  0  0.109548  0  0.951778  0  0  0.121266  0  1.017917  0  0  0.12267  0  1.01928  0  0  0.099202  0.120223  0  1.01707  0
H  H5  1  0.75842365  0.18119342  0.87919451  1  0  0.109527  0  0.951824  0  0  0.121265  0  1.017944  0  0  0.122673  0  1.019306  0  0  0.099215  0.120219  0  1.017101  0
H  H6  1  0.17256709  0.98584589  0.19488508  1  0  0.099924  0  0.946407  0  0  0.115002  0  1.00946  0  0  0.11682  0  1.00919  0  0  0.099433  0.114  0  1.009223  0
H  H7  1  0.82743288  0.01415730  0.80511457  1  0  0.099911  0  0.946453  0  0  0.114987  0  1.009503  0  0  0.116805  0  1.009236  0  0  0.099432  0.113986  0  1.009263  0
H  H8  1  0.47837212  0.75810050  0.97185133  1  0  0.093397  0  0.94201  0  0  0.109036  0  0.99425  0  0  0.111739  0  0.993553  0  0  0.100585  0.107001  0  0.995  0
H  H9  1  0.52163000  0.24190272  0.02814987  1  0  0.093398  0  0.942155  0  0  0.109038  0  0.994393  0  0  0.111742  0  0.993697  0  0  0.100605  0.107004  0  0.995142  0
H  H10  1  0.32665217  0.15726706  0.16650478  1  0  0.079777  0  0.985519  0  0  0.088233  0  1.05495  0  0  0.090427  0  1.055131  0  0  0.091338  0.086651  0  1.054879  0
H  H11  1  0.67334959  0.84273722  0.83349548  1  0  0.079779  0  0.985461  0  0  0.088246  0  1.054884  0  0  0.090442  0  1.055062  0  0  0.09137  0.086665  0  1.054809  0
H  H12  1  0.73590956  0.45875226  0.62411422  1  0  0.110647  0  0.990857  0  0  0.113214  0  1.066416  0  0  0.116673  0  1.062142  0  0  0.127818  0.110872  0  1.069017  0
H  H13  1  0.26409001  0.54124554  0.37588398  1  0  0.110688  0  0.990849  0  0  0.113265  0  1.066383  0  0  0.116728  0  1.062106  0  0  0.127842  0.110915  0  1.069002  0
H  H14  1  0.70671636  0.89724647  0.56292205  1  0  0.110348  0  0.966621  0  0  0.118734  0  1.027726  0  0  0.120817  0  1.027884  0  0  0.116601  0.117415  0  1.027493  0
H  H15  1  0.29328142  0.10275023  0.43707369  1  0  0.110318  0  0.966603  0  0  0.118717  0  1.027707  0  0  0.120808  0  1.027875  0  0  0.116589  0.117402  0  1.02746  0
H  H16  1  0.97606186  0.75256868  0.65549285  1  0  0.114789  0  0.966749  0  0  0.124689  0  1.030088  0  0  0.127286  0  1.029045  0  0  0.121595  0.122928  0  1.030761  0
H  H17  1  0.02393449  0.24742910  0.34450673  1  0  0.114906  0  0.966771  0  0  0.124781  0  1.030122  0  0  0.127381  0  1.029075  0  0  0.121634  0.123004  0  1.030808  0
H  H18  1  0.10460634  0.49876311  0.70108220  1  0  0.09504  0  0.951483  0  0  0.106614  0  1.021642  0  0  0.108188  0  1.020319  0  0  0.105409  0.10594  0  1.021786  0
H  H19  1  0.89539183  0.50123898  0.29891684  1  0  0.095039  0  0.951493  0  0  0.106612  0  1.021658  0  0  0.108189  0  1.020333  0  0  0.105412  0.105938  0  1.021803  0
H  H20  1  0.04365423  0.37091746  0.63472166  1  0  0.087686  0  0.929075  0  0  0.101055  0  0.994888  0  0  0.101418  0  0.995667  0  0  0.112947  0.100505  0  0.994839  0
H  H21  1  0.95634679  0.62908251  0.36527805  1  0  0.087666  0  0.929117  0  0  0.101046  0  0.994919  0  0  0.10141  0  0.995697  0  0  0.112954  0.100496  0  0.994868  0
H  H22  1  0.74736664  0.57277158  0.86925386  1  0  0.08846  0  0.971088  0  0  0.099984  0  1.031396  0  0  0.102249  0  1.031255  0  0  0.099455  0.098486  0  1.031165  0
H  H23  1  0.25263401  0.42722623  0.13074420  1  0  0.08847  0  0.971083  0  0  0.099995  0  1.031386  0  0  0.102261  0  1.031245  0  0  0.099451  0.098498  0  1.031157  0
H  H24  1  0.67298653  0.47789082  0.08072884  1  0  0.093223  0  0.955794  0  0  0.102951  0  1.01663  0  0  0.106096  0  1.014709  0  0  0.093621  0.100813  0  1.017803  0
H  H25  1  0.32701342  0.52210914  0.91927010  1  0  0.093225  0  0.955793  0  0  0.102951  0  1.016633  0  0  0.106094  0  1.014714  0  0  0.093618  0.100813  0  1.017805  0
H  H26  1  0.83729545  0.25133332  0.16227929  1  0  0.090475  0  0.965099  0  0  0.097936  0  1.03171  0  0  0.100369  0  1.031652  0  0  0.093223  0.096089  0  1.032128  0
H  H27  1  0.16270414  0.74866772  0.83772148  1  0  0.090445  0  0.965078  0  0  0.097919  0  1.031682  0  0  0.100352  0  1.031619  0  0  0.093216  0.096072  0  1.032097  0
H  H28  1  0.08418671  0.12610586  0.03398381  1  0  0.087591  0  0.971984  0  0  0.099846  0  1.033863  0  0  0.101992  0  1.033574  0  0  0.097195  0.09859  0  1.033385  0
H  H29  1  0.91581502  0.87389521  0.96601852  1  0  0.087582  0  0.971947  0  0  0.099821  0  1.033847  0  0  0.101969  0  1.033567  0  0  0.097154  0.098562  0  1.033376  0
H  H30  1  0.25607648  0.27792762  0.74906853  1  0  0.093294  0  0.934245  0  0  0.105247  0  1.000611  0  0  0.106181  0  0.999805  0  0  0.108118  0.10451  0  1.001121  0
H  H31  1  0.74392453  0.72207236  0.25093212  1  0  0.093297  0  0.934229  0  0  0.105248  0  1.000595  0  0  0.106182  0  0.999788  0  0  0.108118  0.104509  0  1.001106  0
H  H32  1  0.28739229  0.15427886  0.87529200  1  0  0.089476  0  0.950547  0  0  0.102514  0  1.01612  0  0  0.10233  0  1.018151  0  0  0.113607  0.102458  0  1.014869  0
H  H33  1  0.71260872  0.84572112  0.12470864  1  0  0.089446  0  0.950594  0  0  0.102486  0  1.016171  0  0  0.102302  0  1.018201  0  0  0.113594  0.102431  0  1.014919  0
H  H34  1  0.97448472  0.15294730  0.69081246  1  0  0.122113  0  1.004296  0  0  0.126849  0  1.073389  0  0  0.130557  0  1.071194  0  0  0.116936  0.123827  0  1.075573  0
H  H35  1  0.02551703  0.84705376  0.30918616  1  0  0.122149  0  1.004242  0  0  0.126869  0  1.073354  0  0  0.130572  0  1.071174  0  0  0.116938  0.123847  0  1.075539  0
H  H36  1  0.43887573  0.96211928  0.71761020  1  0  0.102087  0  0.96982  0  0  0.108305  0  1.039677  0  0  0.110955  0  1.036788  0  0  0.130795  0.106253  0  1.041704  0
H  H37  1  0.56112456  0.03787963  0.28239247  1  0  0.102104  0  0.969858  0  0  0.108322  0  1.039696  0  0  0.11097  0  1.036811  0  0  0.130809  0.106269  0  1.041729  0
C  C38  1  0.14206897  0.95229791  0.60736270  1  0  -0.024967  0  3.782185  0  0  -0.058537  0  4.052136  0  0  -0.057346  0  4.072541  0  0  -0.016254  -0.059205  0  4.038456  0
C  C39  1  0.85793026  0.04770421  0.39263898  1  0  -0.024855  0  3.782165  0  0  -0.058425  0  4.052082  0  0  -0.05723  0  4.072483  0  0  -0.016198  -0.05909  0  4.038404  0
C  C40  1  0.33140559  0.82885985  0.28911311  1  0  0.688726  0  3.853844  0  0  0.647309  0  4.142607  0  0  0.680431  0  4.136953  0  0  0.192684  0.624926  0  4.145921  0
C  C41  1  0.66859543  0.17114012  0.71088661  1  0  0.68871  0  3.853833  0  0  0.647283  0  4.14261  0  0  0.680401  0  4.136959  0  0  0.19267  0.624898  0  4.145924  0
C  C42  1  0.27630496  0.89765759  0.16663041  1  0  -0.310053  0  3.714619  0  0  -0.350852  0  3.952513  0  0  -0.356503  0  3.959742  0  0  -0.164195  -0.347255  0  3.947642  0
C  C43  1  0.72369715  0.10234562  0.83336894  1  0  -0.309934  0  3.7147  0  0  -0.350779  0  3.952581  0  0  -0.356436  0  3.959822  0  0  -0.164173  -0.34718  0  3.947705  0
C  C44  1  0.48774491  0.86443940  0.98457799  1  0  -0.125043  0  3.743816  0  0  -0.143522  0  3.989592  0  0  -0.145879  0  4.009403  0  0  -0.094667  -0.141871  0  3.976302  0
C  C45  1  0.51225970  0.13556277  0.01542387  1  0  -0.125009  0  3.743966  0  0  -0.143516  0  3.989716  0  0  -0.145872  0  4.009524  0  0  -0.094714  -0.141864  0  3.976426  0
C  C46  1  0.38895570  0.95173179  0.07926085  1  0  0.114882  0  3.771771  0  0  0.131664  0  4.010774  0  0  0.133295  0  4.033263  0  0  -0.016119  0.130599  0  3.996021  0
C  C47  1  0.61104676  0.04827036  0.92074038  1  0  0.1148  0  3.771976  0  0  0.13165  0  4.010878  0  0  0.133281  0  4.033367  0  0  -0.016085  0.130586  0  3.996121  0
C  C48  1  0.40256835  0.08814622  0.09299965  1  0  -0.126456  0  3.766317  0  0  -0.145596  0  4.019495  0  0  -0.147433  0  4.039035  0  0  -0.098112  -0.144359  0  4.006078  0
C  C49  1  0.59743518  0.91185594  0.90700236  1  0  -0.126527  0  3.766399  0  0  -0.145701  0  4.019579  0  0  -0.147539  0  4.039116  0  0  -0.098289  -0.144462  0  4.006156  0
C  C50  1  0.76132433  0.56024430  0.61835004  1  0  0.154569  0  3.64506  0  0  0.093367  0  3.910625  0  0  0.107193  0  3.922923  0  0  0.135228  0.084689  0  3.901184  0
C  C51  1  0.23867131  0.43975564  0.38165135  1  0  0.154616  0  3.644995  0  0  0.093419  0  3.910548  0  0  0.107239  0  3.922849  0  0  0.135256  0.084741  0  3.901105  0
C  C52  1  0.75255760  0.78503517  0.58835029  1  0  -0.001155  0  3.756116  0  0  -0.035081  0  4.025318  0  0  -0.032282  0  4.044766  0  0  -0.008412  -0.036995  0  4.012419  0
C  C53  1  0.24744018  0.21496154  0.41164638  1  0  -0.001204  0  3.75609  0  0  -0.035147  0  4.025287  0  0  -0.032366  0  4.044719  0  0  -0.008474  -0.037059  0  4.012391  0
C  C54  1  0.88514898  0.71598340  0.63460594  1  0  -0.075748  0  3.675102  0  0  -0.115228  0  3.932395  0  0  -0.113907  0  3.950146  0  0  -0.001817  -0.116063  0  3.920575  0
C  C55  1  0.11484702  0.28401545  0.36539269  1  0  -0.075788  0  3.67522  0  0  -0.115244  0  3.932493  0  0  -0.113929  0  3.950246  0  0  -0.00181  -0.116061  0  3.920683  0
C  C56  1  0.00696810  0.45894619  0.70198205  1  0  -0.043504  0  3.642541  0  0  -0.107704  0  3.888588  0  0  -0.103621  0  3.898998  0  0  -0.045189  -0.110811  0  3.881614  0
C  C57  1  0.99303076  0.54105377  0.29801797  1  0  -0.043445  0  3.642569  0  0  -0.107655  0  3.8886  0  0  -0.103578  0  3.899016  0  0  -0.045191  -0.110759  0  3.88162  0
C  C58  1  0.95881876  0.40427824  0.83196186  1  0  0.038045  0  3.700657  0  0  0.052512  0  3.93926  0  0  0.05195  0  3.963609  0  0  -0.007077  0.052997  0  3.922944  0
C  C59  1  0.04118188  0.59571958  0.16803805  1  0  0.038004  0  3.700718  0  0  0.052504  0  3.939308  0  0  0.051943  0  3.963655  0  0  -0.007075  0.052989  0  3.92299  0
C  C60  1  0.82187399  0.47457012  0.90512204  1  0  -0.11824  0  3.75699  0  0  -0.139105  0  4.005672  0  0  -0.142454  0  4.028695  0  0  -0.094473  -0.136734  0  3.989551  0
C  C61  1  0.17812702  0.52542986  0.09487768  1  0  -0.118271  0  3.756931  0  0  -0.139143  0  4.005611  0  0  -0.14249  0  4.028632  0  0  -0.094473  -0.136771  0  3.989492  0
C  C62  1  0.77875771  0.42085770  0.02365217  1  0  -0.060215  0  3.776689  0  0  -0.073442  0  4.026105  0  0  -0.074871  0  4.04753  0  0  -0.091894  -0.072282  0  4.011468  0
C  C63  1  0.22124189  0.57914332  0.97634582  1  0  -0.060232  0  3.776647  0  0  -0.073465  0  4.026079  0  0  -0.074894  0  4.047503  0  0  -0.091917  -0.072306  0  4.011443  0
C  C64  1  0.87192927  0.29408984  0.07023315  1  0  -0.077378  0  3.785797  0  0  -0.092074  0  4.039488  0  0  -0.094609  0  4.061426  0  0  -0.099473  -0.090585  0  4.025207  0
C  C65  1  0.12807247  0.70591123  0.92976826  1  0  -0.077299  0  3.785775  0  0  -0.092006  0  4.039466  0  0  -0.094537  0  4.061403  0  0  -0.099442  -0.090515  0  4.025181  0
C  C66  1  0.00936392  0.22440001  0.99840664  1  0  -0.111567  0  3.758088  0  0  -0.132111  0  4.006171  0  0  -0.133831  0  4.027741  0  0  -0.092267  -0.130592  0  3.990762  0
C  C67  1  0.99063709  0.77559998  0.00159586  1  0  -0.111568  0  3.758069  0  0  -0.132084  0  4.006157  0  0  -0.133816  0  4.027739  0  0  -0.092227  -0.130566  0  3.990745  0
C  C68  1  0.05499905  0.27863114  0.88031333  1  0  0.019238  0  3.726755  0  0  0.036011  0  3.962411  0  0  0.033935  0  3.986832  0  0  -0.01476  0.037067  0  3.946015  0
C  C69  1  0.94500124  0.72136775  0.11968656  1  0  0.019262  0  3.726808  0  0  0.035992  0  3.962511  0  0  0.033917  0  3.986931  0  0  -0.014751  0.037048  0  3.946114  0
C  C70  1  0.20787206  0.20326545  0.80911666  1  0  -0.041034  0  3.630318  0  0  -0.104333  0  3.871153  0  0  -0.099201  0  3.881253  0  0  -0.048868  -0.107509  0  3.864499  0
C  C71  1  0.79212895  0.79673454  0.19088492  1  0  -0.040979  0  3.630296  0  0  -0.104269  0  3.871135  0  0  -0.099133  0  3.881229  0  0  -0.04884  -0.107446  0  3.864479  0
C  C72  1  0.08599262  0.07469745  0.67743588  1  0  -0.085144  0  3.698424  0  0  -0.12619  0  3.960566  0  0  -0.124803  0  3.979388  0  0  -0.008103  -0.126729  0  3.948005  0
C  C73  1  0.91400984  0.92530471  0.32256628  1  0  -0.085294  0  3.698431  0  0  -0.126342  0  3.960622  0  0  -0.124958  0  3.979441  0  0  -0.00817  -0.12688  0  3.94806  0
C  C74  1  0.32880685  0.97499898  0.69159410  1  0  0.165732  0  3.641655  0  0  0.105669  0  3.904454  0  0  0.119798  0  3.916544  0  0  0.138159  0.096602  0  3.895945  0
C  C75  1  0.67119379  0.02499885  0.30840767  1  0  0.165686  0  3.641784  0  0  0.105641  0  3.904554  0  0  0.119767  0  3.916644  0  0  0.138137  0.096573  0  3.896046  0
N  N76  1  0.67668449  0.68666901  0.57906948  1  0  -0.38734  0  3.261143  0  0  -0.309903  0  3.542978  0  0  -0.33133  0  3.560779  0  0  -0.363171  -0.295722  0  3.530514  0
N  N77  1  0.32331470  0.31332665  0.42092985  1  0  -0.387377  0  3.260921  0  0  -0.30994  0  3.542759  0  0  -0.331365  0  3.560568  0  0  -0.363171  -0.29576  0  3.530297  0
N  N78  1  0.88882545  0.57405074  0.65279126  1  0  -0.053399  0  3.579948  0  0  0.041533  0  3.794753  0  0  0.027374  0  3.820157  0  0  -0.24306  0.050935  0  3.777285  0
N  N79  1  0.11117089  0.42594705  0.34721018  1  0  -0.053512  0  3.580118  0  0  0.041418  0  3.794943  0  0  0.027264  0  3.820348  0  0  -0.243104  0.050821  0  3.777472  0
N  N80  1  0.20579666  0.08690658  0.73040722  1  0  -0.052241  0  3.541628  0  0  0.04421  0  3.75544  0  0  0.029472  0  3.78089  0  0  -0.239399  0.053643  0  3.738294  0
N  N81  1  0.79420542  0.91309341  0.26959328  1  0  -0.052215  0  3.54158  0  0  0.044232  0  3.755376  0  0  0.029495  0  3.780826  0  0  -0.2394  0.053667  0  3.73823  0
N  N82  1  0.29343562  0.89154757  0.61687416  1  0  -0.387802  0  3.290382  0  0  -0.313348  0  3.575734  0  0  -0.33378  0  3.592785  0  0  -0.366052  -0.299608  0  3.564038  0
N  N83  1  0.70656217  0.10845239  0.38312786  1  0  -0.387839  0  3.290424  0  0  -0.313391  0  3.575778  0  0  -0.33382  0  3.592824  0  0  -0.366068  -0.299649  0  3.564086  0
Cl  Cl84  1  0.37898044  0.51144363  0.65324139  1  0  -0.585686  0  0.960521  0  0  -0.521856  0  1.237228  0  0  -0.540276  0  1.215134  0  0  -0.303771  -0.509059  0  1.251296  0
Cl  Cl85  1  0.62101376  0.48855413  0.34675849  1  0  -0.585676  0  0.960508  0  0  -0.52184  0  1.237206  0  0  -0.540277  0  1.21514  0  0  -0.303781  -0.509043  0  1.251272  0
O  O86  1  0.44679414  0.85135360  0.32125130  1  0  -0.641153  0  1.984474  0  0  -0.578025  0  2.228685  0  0  -0.606788  0  2.221892  0  0  -0.330957  -0.558299  0  2.233168  0
O  O87  1  0.55320545  0.14864744  0.67874947  1  0  -0.641126  0  1.984439  0  0  -0.57799  0  2.228636  0  0  -0.606765  0  2.221865  0  0  -0.33094  -0.558273  0  2.233143  0
O  O88  1  0.25663615  0.75415505  0.35474492  1  0  -0.649993  0  1.9433  0  0  -0.58903  0  2.173692  0  0  -0.61586  0  2.165045  0  0  -0.335969  -0.569776  0  2.178899  0
O  O89  1  0.74336415  0.24584383  0.64525219  1  0  -0.650011  0  1.943295  0  0  -0.589048  0  2.173717  0  0  -0.615878  0  2.165069  0  0  -0.335973  -0.569795  0  2.178926  0
