# generated using pymatgen
data_CdH10C9(NO)6
_symmetry_space_group_name_H-M   'P 1'
_cell_length_a   7.44866821
_cell_length_b   8.42290914
_cell_length_c   9.71438848
_cell_angle_alpha   90.00007999
_cell_angle_beta   90.00005093
_cell_angle_gamma   94.33415146
_symmetry_Int_Tables_number   1
_chemical_formula_structural   CdH10C9(NO)6
_chemical_formula_sum   'Cd2 H20 C18 N12 O12'
_cell_volume   607.73250597
_cell_formula_units_Z   2
loop_
 _symmetry_equiv_pos_site_id
 _symmetry_equiv_pos_as_xyz
  1  'x, y, z'
loop_
 _atom_site_type_symbol
 _atom_site_label
 _atom_site_symmetry_multiplicity
 _atom_site_fract_x
 _atom_site_fract_y
 _atom_site_fract_z
 _atom_site_occupancy
 _atom_site_hle17_bader_spin_density
 _atom_site_hle17_ddec_charge
 _atom_site_hle17_ddec_spin_density
 _atom_site_hle17_ddec_sum_bond_order
 _atom_site_hle17_magmom
 _atom_site_hse06_10hf_bader_spin_density
 _atom_site_hse06_10hf_ddec_charge
 _atom_site_hse06_10hf_ddec_spin_density
 _atom_site_hse06_10hf_ddec_sum_bond_order
 _atom_site_hse06_10hf_magmom
 _atom_site_hse06_bader_spin_density
 _atom_site_hse06_ddec_charge
 _atom_site_hse06_ddec_spin_density
 _atom_site_hse06_ddec_sum_bond_order
 _atom_site_hse06_magmom
 _atom_site_pbe_bader_spin_density
 _atom_site_pbe_cm5_charge
 _atom_site_pbe_ddec_charge
 _atom_site_pbe_ddec_spin_density
 _atom_site_pbe_ddec_sum_bond_order
 _atom_site_pbe_magmom
Cd  Cd0  1  0.27288273  0.15375383  0.02232892  1  0  1.255065  0  1.544282  0  0  1.075491  0  1.981583  0  0  1.139559  0  1.921983  0  0  0.774545  1.029166  0  2.022391  0
Cd  Cd1  1  0.77288217  0.15375360  0.97767178  1  0  1.255071  0  1.544276  0  0  1.075497  0  1.981572  0  0  1.139567  0  1.921972  0  0  0.774541  1.029169  0  2.022381  0
H  H2  1  0.93803479  0.69886354  0.12370796  1  0  0.101302  0  0.931816  0  0  0.113706  0  0.997729  0  0  0.115003  0  0.997199  0  0  0.116581  0.112101  0  0.999496  0
H  H3  1  0.43803625  0.69886284  0.87629248  1  0  0.101293  0  0.931856  0  0  0.113702  0  0.997758  0  0  0.114998  0  0.997229  0  0  0.116585  0.1121  0  0.999513  0
H  H4  1  0.11139405  0.58230898  0.06541573  1  0  0.112495  0  0.93358  0  0  0.127406  0  0.993182  0  0  0.129362  0  0.992021  0  0  0.120608  0.12617  0  0.993823  0
H  H5  1  0.61139612  0.58230866  0.93458435  1  0  0.112477  0  0.933577  0  0  0.127387  0  0.993185  0  0  0.129342  0  0.992023  0  0  0.12059  0.12615  0  0.993829  0
H  H6  1  0.75620664  0.22067865  0.36672034  1  0  0.108751  0  0.927166  0  0  0.125703  0  0.981901  0  0  0.127823  0  0.980198  0  0  0.120581  0.123877  0  0.984028  0
H  H7  1  0.25620655  0.22067873  0.63328043  1  0  0.108797  0  0.927205  0  0  0.125756  0  0.981934  0  0  0.127876  0  0.980231  0  0  0.120614  0.123931  0  0.984061  0
H  H8  1  0.75294671  0.03603213  0.28010849  1  0  0.102782  0  0.93675  0  0  0.109873  0  1.009368  0  0  0.112263  0  1.007172  0  0  0.109682  0.107773  0  1.011691  0
H  H9  1  0.25294673  0.03603236  0.71989205  1  0  0.102771  0  0.936759  0  0  0.109872  0  1.009374  0  0  0.112261  0  1.007178  0  0  0.10968  0.107771  0  1.011693  0
H  H10  1  0.27255463  0.49733421  0.82349742  1  0  0.099166  0  0.933353  0  0  0.112406  0  0.99778  0  0  0.113856  0  0.997454  0  0  0.114898  0.111383  0  0.997814  0
H  H11  1  0.77255458  0.49733499  0.17650164  1  0  0.099163  0  0.933401  0  0  0.1124  0  0.997819  0  0  0.113852  0  0.997493  0  0  0.114891  0.111375  0  0.997852  0
H  H12  1  0.16629891  0.44129053  0.66639430  1  0  0.118961  0  0.931401  0  0  0.13115  0  0.992141  0  0  0.13419  0  0.989295  0  0  0.125166  0.128431  0  0.995299  0
H  H13  1  0.66629907  0.44129158  0.33360461  1  0  0.118982  0  0.931408  0  0  0.131151  0  0.99216  0  0  0.134193  0  0.989314  0  0  0.125164  0.128433  0  0.995314  0
H  H14  1  0.90102301  0.88270061  0.70238782  1  0  0.350788  0  0.903396  0  0  0.323974  0  0.971498  0  0  0.335522  0  0.961413  0  0  0.316816  0.315862  0  0.978588  0
H  H15  1  0.40102259  0.88270132  0.29761282  1  0  0.350785  0  0.903395  0  0  0.323945  0  0.971511  0  0  0.335492  0  0.96143  0  0  0.316808  0.315834  0  0.978598  0
H  H16  1  0.18072172  0.52294009  0.28417987  1  0  0.313896  0  0.866572  0  0  0.295525  0  0.927322  0  0  0.30272  0  0.922325  0  0  0.322074  0.290728  0  0.930308  0
H  H17  1  0.68072092  0.52294060  0.71582018  1  0  0.313898  0  0.866589  0  0  0.295534  0  0.927337  0  0  0.302728  0  0.922339  0  0  0.322072  0.290733  0  0.930323  0
H  H18  1  0.07347270  0.72444363  0.83073829  1  0  0.307749  0  0.918284  0  0  0.287694  0  0.982117  0  0  0.296747  0  0.975228  0  0  0.306928  0.281091  0  0.987597  0
H  H19  1  0.57347265  0.72444440  0.16926090  1  0  0.307743  0  0.918296  0  0  0.287692  0  0.98213  0  0  0.296748  0  0.97524  0  0  0.306937  0.281087  0  0.987614  0
H  H20  1  0.80736038  0.09617440  0.56582699  1  0  0.322347  0  0.906229  0  0  0.303491  0  0.966585  0  0  0.311999  0  0.960043  0  0  0.314293  0.297355  0  0.971645  0
H  H21  1  0.30736003  0.09617415  0.43417263  1  0  0.322355  0  0.906202  0  0  0.303518  0  0.966557  0  0  0.312027  0  0.960013  0  0  0.314293  0.297385  0  0.971612  0
C  C22  1  0.06593482  0.69876884  0.38800016  1  0  0.615943  0  3.85291  0  0  0.563205  0  4.147726  0  0  0.593014  0  4.150473  0  0  0.349882  0.543369  0  4.144742  0
C  C23  1  0.56593512  0.69876798  0.61199899  1  0  0.615964  0  3.852842  0  0  0.563186  0  4.147734  0  0  0.592993  0  4.150485  0  0  0.34986  0.543351  0  4.144747  0
C  C24  1  0.05235912  0.70435563  0.62137049  1  0  0.633368  0  3.819342  0  0  0.570134  0  4.112864  0  0  0.600505  0  4.115855  0  0  0.362733  0.549616  0  4.110292  0
C  C25  1  0.55235923  0.70435556  0.37862867  1  0  0.633362  0  3.819409  0  0  0.570108  0  4.112909  0  0  0.600484  0  4.115899  0  0  0.362734  0.549591  0  4.11034  0
C  C26  1  0.93919213  0.90743460  0.48741807  1  0  0.629014  0  3.823648  0  0  0.56517  0  4.115805  0  0  0.594688  0  4.120209  0  0  0.36369  0.545222  0  4.112064  0
C  C27  1  0.43918930  0.90743568  0.51258263  1  0  0.628955  0  3.823755  0  0  0.565072  0  4.115961  0  0  0.59459  0  4.120369  0  0  0.363606  0.545113  0  4.112234  0
C  C28  1  0.08134658  0.67834466  0.13549327  1  0  -0.095987  0  3.667257  0  0  -0.159115  0  3.930964  0  0  -0.157823  0  3.935777  0  0  -0.058577  -0.160461  0  3.928684  0
C  C29  1  0.58134721  0.67834423  0.86450587  1  0  -0.096003  0  3.667276  0  0  -0.159123  0  3.930991  0  0  -0.157824  0  3.935797  0  0  -0.058592  -0.160469  0  3.928708  0
C  C30  1  0.17943357  0.83326458  0.08496628  1  0  0.672634  0  3.8429  0  0  0.621341  0  4.146705  0  0  0.654582  0  4.141041  0  0  0.207014  0.598526  0  4.150277  0
C  C31  1  0.67943303  0.83326543  0.91503414  1  0  0.672663  0  3.842909  0  0  0.621361  0  4.146722  0  0  0.654601  0  4.141057  0  0  0.207024  0.59854  0  4.150304  0
C  C32  1  0.83330684  0.11711739  0.34827858  1  0  -0.100887  0  3.661781  0  0  -0.16358  0  3.923745  0  0  -0.162464  0  3.928253  0  0  -0.062109  -0.164922  0  3.921653  0
C  C33  1  0.33330543  0.11711751  0.65172108  1  0  -0.100919  0  3.661817  0  0  -0.163625  0  3.92384  0  0  -0.162506  0  3.928345  0  0  -0.06213  -0.164961  0  3.921743  0
C  C34  1  0.00980173  0.17154901  0.27442191  1  0  0.694814  0  3.839925  0  0  0.643861  0  4.147603  0  0  0.677782  0  4.140358  0  0  0.210213  0.621298  0  4.149707  0
C  C35  1  0.50980218  0.17154835  0.72557966  1  0  0.694821  0  3.84001  0  0  0.643902  0  4.147644  0  0  0.677826  0  4.140393  0  0  0.210222  0.62133  0  4.149755  0
C  C36  1  0.14318391  0.49201575  0.76836986  1  0  -0.099063  0  3.658537  0  0  -0.15848  0  3.912261  0  0  -0.158428  0  3.918595  0  0  -0.057057  -0.158247  0  3.907219  0
C  C37  1  0.64318394  0.49201663  0.23162910  1  0  -0.099114  0  3.658618  0  0  -0.158482  0  3.912273  0  0  -0.158439  0  3.918624  0  0  -0.057048  -0.158249  0  3.907224  0
C  C38  1  0.01213064  0.37797586  0.84724759  1  0  0.67038  0  3.867825  0  0  0.621608  0  4.167102  0  0  0.655424  0  4.161213  0  0  0.201234  0.598582  0  4.17005  0
C  C39  1  0.51212911  0.37797542  0.15275217  1  0  0.670327  0  3.867864  0  0  0.621549  0  4.167132  0  0  0.655367  0  4.16124  0  0  0.201185  0.598531  0  4.170072  0
N  N40  1  0.10289107  0.62891674  0.50938400  1  0  -0.594322  0  2.953037  0  0  -0.564072  0  3.236162  0  0  -0.586051  0  3.239352  0  0  -0.357267  -0.548948  0  3.23511  0
N  N41  1  0.60288998  0.62891687  0.49061613  1  0  -0.594318  0  2.953051  0  0  -0.564072  0  3.236201  0  0  -0.586048  0  3.239391  0  0  -0.357262  -0.548948  0  3.235149  0
N  N42  1  0.96926429  0.84423660  0.61468081  1  0  -0.532006  0  3.263142  0  0  -0.464337  0  3.50635  0  0  -0.487669  0  3.507746  0  0  -0.380872  -0.448362  0  3.505359  0
N  N43  1  0.46926387  0.84423626  0.38531983  1  0  -0.532064  0  3.263228  0  0  -0.464247  0  3.506298  0  0  -0.487581  0  3.507702  0  0  -0.380847  -0.448269  0  3.505308  0
N  N44  1  0.98651873  0.83641097  0.37193264  1  0  -0.577213  0  2.965869  0  0  -0.539761  0  3.25364  0  0  -0.562678  0  3.260142  0  0  -0.348298  -0.523807  0  3.248271  0
N  N45  1  0.48651718  0.83640987  0.62806697  1  0  -0.577225  0  2.965819  0  0  -0.539739  0  3.2536  0  0  -0.562656  0  3.260108  0  0  -0.348289  -0.523782  0  3.248233  0
N  N46  1  0.11763312  0.62525797  0.27310047  1  0  -0.393993  0  3.303153  0  0  -0.335984  0  3.55805  0  0  -0.354966  0  3.564945  0  0  -0.408583  -0.322726  0  3.551601  0
N  N47  1  0.61763358  0.62525730  0.72689863  1  0  -0.393967  0  3.303126  0  0  -0.335936  0  3.55798  0  0  -0.354938  0  3.564917  0  0  -0.408543  -0.322674  0  3.551529  0
N  N48  1  0.08078596  0.64800541  0.74783545  1  0  -0.404495  0  3.308845  0  0  -0.345501  0  3.562345  0  0  -0.365352  0  3.56917  0  0  -0.41387  -0.3317  0  3.557661  0
N  N49  1  0.58078601  0.64800632  0.25216469  1  0  -0.404453  0  3.308893  0  0  -0.345483  0  3.562396  0  0  -0.365336  0  3.569222  0  0  -0.413875  -0.331683  0  3.557719  0
N  N50  1  0.86124032  0.04467511  0.48055553  1  0  -0.403153  0  3.305493  0  0  -0.342926  0  3.554388  0  0  -0.362899  0  3.562007  0  0  -0.407478  -0.329271  0  3.549993  0
N  N51  1  0.36123997  0.04467382  0.51944613  1  0  -0.403063  0  3.305518  0  0  -0.342928  0  3.554538  0  0  -0.362903  0  3.562159  0  0  -0.407414  -0.329272  0  3.550139  0
O  O52  1  0.14544591  0.87328748  0.96218158  1  0  -0.636243  0  1.954247  0  0  -0.576112  0  2.191184  0  0  -0.604432  0  2.183149  0  0  -0.31875  -0.556157  0  2.197113  0
O  O53  1  0.64544568  0.87328803  0.03781785  1  0  -0.636239  0  1.954264  0  0  -0.576103  0  2.191196  0  0  -0.604423  0  2.18316  0  0  -0.318745  -0.556149  0  2.197131  0
O  O54  1  0.28041266  0.92178316  0.16369289  1  0  -0.634524  0  2.076141  0  0  -0.565743  0  2.320554  0  0  -0.596035  0  2.312605  0  0  -0.311207  -0.544196  0  2.325374  0
O  O55  1  0.78041325  0.92178268  0.83630565  1  0  -0.634554  0  2.07613  0  0  -0.565772  0  2.32055  0  0  -0.596064  0  2.312598  0  0  -0.31122  -0.544227  0  2.325385  0
O  O56  1  0.05835802  0.23490477  0.85965592  1  0  -0.686079  0  2.052278  0  0  -0.612604  0  2.317399  0  0  -0.645232  0  2.305924  0  0  -0.335237  -0.589368  0  2.324177  0
O  O57  1  0.55835782  0.23490430  0.14034473  1  0  -0.686059  0  2.052337  0  0  -0.612581  0  2.317453  0  0  -0.645211  0  2.30598  0  0  -0.335207  -0.589339  0  2.32421  0
O  O58  1  0.86780694  0.42373880  0.89619181  1  0  -0.62549  0  1.957366  0  0  -0.568356  0  2.199655  0  0  -0.596018  0  2.191083  0  0  -0.316204  -0.549026  0  2.205211  0
O  O59  1  0.36780626  0.42373917  0.10380722  1  0  -0.625449  0  1.957345  0  0  -0.568315  0  2.199642  0  0  -0.595978  0  2.191064  0  0  -0.316187  -0.548991  0  2.205199  0
O  O60  1  0.14993673  0.21034728  0.34017496  1  0  -0.602072  0  1.926213  0  0  -0.558187  0  2.15013  0  0  -0.580956  0  2.141006  0  0  -0.319394  -0.542668  0  2.156244  0
O  O61  1  0.64993710  0.21034650  0.65982572  1  0  -0.60209  0  1.926192  0  0  -0.558218  0  2.150089  0  0  -0.580989  0  2.140964  0  0  -0.319419  -0.542696  0  2.156207  0
O  O62  1  0.00006091  0.17621572  0.14096729  1  0  -0.723916  0  2.110041  0  0  -0.636995  0  2.385434  0  0  -0.674041  0  2.373351  0  0  -0.342043  -0.610706  0  2.391611  0
O  O63  1  0.50006030  0.17621648  0.85903222  1  0  -0.723922  0  2.110167  0  0  -0.636996  0  2.385539  0  0  -0.674041  0  2.373454  0  0  -0.342017  -0.610702  0  2.391715  0
