# generated using pymatgen
data_AlC24(Br2O)6
_symmetry_space_group_name_H-M   'P 1'
_cell_length_a   4.10314399
_cell_length_b   29.16654593
_cell_length_c   29.16663707
_cell_angle_alpha   119.99694870
_cell_angle_beta   90.00048625
_cell_angle_gamma   89.99867642
_symmetry_Int_Tables_number   1
_chemical_formula_structural   AlC24(Br2O)6
_chemical_formula_sum   'Al2 C48 Br24 O12'
_cell_volume   3022.95790763
_cell_formula_units_Z   2
loop_
 _symmetry_equiv_pos_site_id
 _symmetry_equiv_pos_as_xyz
  1  'x, y, z'
loop_
 _atom_site_type_symbol
 _atom_site_label
 _atom_site_symmetry_multiplicity
 _atom_site_fract_x
 _atom_site_fract_y
 _atom_site_fract_z
 _atom_site_occupancy
 _atom_site_pbe_bader_charge
 _atom_site_pbe_bader_spin_density
 _atom_site_pbe_cm5_charge
 _atom_site_pbe_ddec_charge
 _atom_site_pbe_ddec_spin_density
 _atom_site_pbe_ddec_sum_bond_order
 _atom_site_pbe_magmom
Al  Al0  1  0.00019556  0.50000451  0.49999080  1  2.513216  0  0.427399  1.643344  0  2.49414  0
Al  Al1  1  0.99909001  0.16666372  0.83333689  1  2.511898  0  0.427621  1.643524  0  2.494375  0
C  C2  1  0.50020568  0.45943258  0.41883288  1  1.58889  0  0.269492  0.672077  0  4.0803  0
C  C3  1  0.50022354  0.45941468  0.54056418  1  1.614394  0  0.269449  0.672261  0  4.080548  0
C  C4  1  0.50016577  0.58116301  0.54058008  1  1.59015  0  0.269241  0.672095  0  4.079994  0
C  C5  1  0.49909615  0.20727691  0.79278609  1  1.62685  0  0.269153  0.672189  0  4.081139  0
C  C6  1  0.49910762  0.08550284  0.79273217  1  1.672522  0  0.269195  0.672012  0  4.081835  0
C  C7  1  0.49911158  0.20720886  0.91449692  1  1.623958  0  0.269081  0.672156  0  4.080975  0
C  C8  1  0.49929054  0.23729727  0.76278100  1  0.048923  0  -0.016499  -0.096708  0  3.928096  0
C  C9  1  0.60916281  0.21275791  0.71021979  1  0.020392  0  -0.023639  0.035697  0  3.958055  0
C  C10  1  0.61294248  0.24044662  0.68248188  1  -0.045852  0  -0.020045  0.020075  0  3.918376  0
C  C11  1  0.49980400  0.29340634  0.70670382  1  0.213007  0  -0.011171  0.060706  0  4.087968  0
C  C12  1  0.38644664  0.31763353  0.75965401  1  -0.041726  0  -0.019633  0.020997  0  3.917825  0
C  C13  1  0.38969816  0.28987477  0.78732345  1  -0.019356  0  -0.024146  0.035166  0  3.958967  0
C  C14  1  0.49997910  0.32133328  0.67877775  1  -0.306469  0  -0.045908  -0.068952  0  4.111963  0
C  C15  1  0.50006929  0.34545687  0.65464059  1  0.061663  0  -0.04454  -0.065311  0  4.109831  0
C  C16  1  0.50014446  0.37336813  0.62668973  1  0.170241  0  -0.011272  0.057913  0  4.091001  0
C  C17  1  0.38677326  0.34912234  0.57374631  1  0.009627  0  -0.01963  0.021962  0  3.919297  0
C  C18  1  0.39028484  0.37685242  0.54605136  1  -0.062745  0  -0.023794  0.034526  0  3.958885  0
C  C19  1  0.50022168  0.42941969  0.57057681  1  0.09517  0  -0.017157  -0.096202  0  3.928966  0
C  C20  1  0.61013697  0.45397089  0.62314627  1  -0.064814  0  -0.023537  0.034594  0  3.959268  0
C  C21  1  0.61356640  0.42630602  0.65090763  1  0.009908  0  -0.019551  0.022029  0  3.919158  0
C  C22  1  0.49927456  0.02547700  0.76271795  1  0.043565  0  -0.016561  -0.096481  0  3.928147  0
C  C23  1  0.60920905  0.99745862  0.78725863  1  0.005127  0  -0.02389  0.035376  0  3.958248  0
C  C24  1  0.61297782  0.94203298  0.75957648  1  -0.020432  0  -0.019833  0.02036  0  3.918198  0
C  C25  1  0.49973855  0.91329379  0.70662012  1  0.178925  0  -0.010949  0.060507  0  4.088694  0
C  C26  1  0.38625207  0.94201839  0.68239746  1  0.03171  0  -0.019563  0.021159  0  3.91802  0
C  C27  1  0.38955592  0.99744455  0.71014902  1  -0.108614  0  -0.024234  0.034887  0  3.95886  0
C  C28  1  0.49999054  0.85745029  0.67869826  1  -0.107581  0  -0.046142  -0.069123  0  4.111742  0
C  C29  1  0.50018601  0.80918447  0.65456328  1  -0.143163  0  -0.044344  -0.06491  0  4.108662  0
C  C30  1  0.50026984  0.75332798  0.62664824  1  0.192534  0  -0.011399  0.057653  0  4.090805  0
C  C31  1  0.38684739  0.72462500  0.65088819  1  -0.003555  0  -0.019667  0.022072  0  3.919337  0
C  C32  1  0.39027984  0.66920217  0.62314906  1  -0.048928  0  -0.023876  0.034411  0  3.959104  0
C  C33  1  0.50020111  0.64116869  0.57058086  1  0.085577  0  -0.017015  -0.096346  0  3.928797  0
C  C34  1  0.61017015  0.66919061  0.54603595  1  0.051949  0  -0.023563  0.034835  0  3.958957  0
C  C35  1  0.61368847  0.72461452  0.57370886  1  -0.11034  0  -0.019372  0.022203  0  3.918777  0
C  C36  1  0.49931811  0.23721402  0.97452066  1  0.122831  0  -0.016563  -0.096671  0  3.927773  0
C  C37  1  0.60927234  0.28977115  0.00253566  1  -0.107572  0  -0.023754  0.035409  0  3.957966  0
C  C38  1  0.61311028  0.31750811  0.05795773  1  0.036293  0  -0.019954  0.020378  0  3.918194  0
C  C39  1  0.49992402  0.29329084  0.08669923  1  0.082127  0  -0.01122  0.060584  0  4.088066  0
C  C40  1  0.38649222  0.24034575  0.05798497  1  0.041646  0  -0.019745  0.020666  0  3.918095  0
C  C41  1  0.38970253  0.21267585  0.00256028  1  -0.090584  0  -0.024103  0.035204  0  3.95893  0
C  C42  1  0.50008185  0.32121961  0.14254867  1  -0.216179  0  -0.045764  -0.068787  0  4.111317  0
C  C43  1  0.50025682  0.34536208  0.19081234  1  -0.004262  0  -0.044535  -0.065186  0  4.109325  0
C  C44  1  0.50031716  0.37331136  0.24666527  1  0.252693  0  -0.011557  0.057621  0  4.091026  0
C  C45  1  0.38689122  0.42625389  0.27535997  1  -0.108517  0  -0.019407  0.02221  0  3.919656  0
C  C46  1  0.39034896  0.45394697  0.33078409  1  0.050396  0  -0.023854  0.034643  0  3.959923  0
C  C47  1  0.50026480  0.42941960  0.35882587  1  0.086244  0  -0.017062  -0.096252  0  3.929591  0
C  C48  1  0.61021291  0.37685550  0.33081761  1  -0.051206  0  -0.023608  0.034551  0  3.95932  0
C  C49  1  0.61373275  0.34909580  0.27539221  1  0.003202  0  -0.019413  0.022237  0  3.918438  0
Br  Br50  1  0.75012741  0.14166054  0.67770364  1  0.005807  0  0.057046  -0.001933  0  1.714336  0
Br  Br51  1  0.24827682  0.32237679  0.85839494  1  0.004772  0  0.057298  -0.001742  0  1.714182  0
Br  Br52  1  0.22841226  0.38757606  0.79161151  1  -0.000447  0  0.049607  -0.018256  0  1.619364  0
Br  Br53  1  0.77145315  0.20849088  0.61256798  1  0.000424  0  0.049712  -0.017946  0  1.619785  0
Br  Br54  1  0.22769957  0.27924032  0.54186819  1  -0.000857  0  0.049703  -0.018291  0  1.619445  0
Br  Br55  1  0.77250986  0.45821640  0.72079966  1  -0.000663  0  0.049476  -0.018475  0  1.619592  0
Br  Br56  1  0.75148271  0.52504130  0.65563869  1  -0.000316  0  0.057184  -0.001653  0  1.713867  0
Br  Br57  1  0.24901565  0.34432499  0.47497300  1  0.000251  0  0.057219  -0.001594  0  1.713838  0
Br  Br58  1  0.75023509  0.03603701  0.85835180  1  -0.000943  0  0.057175  -0.001757  0  1.714305  0
Br  Br59  1  0.24808121  0.03601051  0.67764180  1  0.006082  0  0.0573  -0.001644  0  1.714178  0
Br  Br60  1  0.22808895  0.90403512  0.61246336  1  0.003429  0  0.049648  -0.018151  0  1.619415  0
Br  Br61  1  0.77161106  0.90407554  0.79152812  1  0.00367  0  0.049551  -0.018086  0  1.619867  0
Br  Br62  1  0.22779279  0.76261894  0.72077186  1  0.007085  0  0.049644  -0.018418  0  1.619527  0
Br  Br63  1  0.77273113  0.76260238  0.54180836  1  0.002607  0  0.049509  -0.018499  0  1.619523  0
Br  Br64  1  0.75147983  0.63061968  0.47496162  1  0.004425  0  0.05717  -0.001726  0  1.713634  0
Br  Br65  1  0.24892367  0.63064421  0.65566760  1  0.000199  0  0.057269  -0.001493  0  1.713795  0
Br  Br66  1  0.75026786  0.32228315  0.96394951  1  0.006806  0  0.05708  -0.001848  0  1.714453  0
Br  Br67  1  0.24821991  0.14160766  0.96400256  1  -0.001784  0  0.057279  -0.001702  0  1.714143  0
Br  Br68  1  0.22840463  0.20839796  0.09597857  1  0.003145  0  0.049687  -0.018082  0  1.619377  0
Br  Br69  1  0.77170887  0.38741673  0.09590633  1  0.003513  0  0.049719  -0.018034  0  1.619803  0
Br  Br70  1  0.22779764  0.45813437  0.23735553  1  0.002442  0  0.049652  -0.01841  0  1.619496  0
Br  Br71  1  0.77275888  0.27920794  0.23742214  1  0.006723  0  0.049474  -0.018546  0  1.619469  0
Br  Br72  1  0.75153481  0.34436090  0.36939918  1  0.001062  0  0.057199  -0.001667  0  1.713877  0
Br  Br73  1  0.24902382  0.52502376  0.36932946  1  0.004113  0  0.057211  -0.001656  0  1.713716  0
O  O74  1  0.73749788  0.55845866  0.54894750  1  -1.25194  0  -0.232705  -0.594362  0  2.433465  0
O  O75  1  0.73751225  0.49050638  0.44153680  1  -1.250055  0  -0.232827  -0.594167  0  2.43322  0
O  O76  1  0.73755353  0.45104423  0.50949497  1  -1.252737  0  -0.232823  -0.594474  0  2.433712  0
O  O77  1  0.26284129  0.55846842  0.50951138  1  -1.250127  0  -0.232522  -0.593997  0  2.433426  0
O  O78  1  0.26289856  0.49048395  0.54893265  1  -1.249369  0  -0.232513  -0.593933  0  2.433397  0
O  O79  1  0.26286695  0.45106151  0.44152764  1  -1.250095  0  -0.232573  -0.593966  0  2.4333  0
O  O80  1  0.73643129  0.17615028  0.89179317  1  -1.254214  0  -0.23244  -0.594225  0  2.433994  0
O  O81  1  0.73643144  0.21563157  0.82384740  1  -1.254904  0  -0.232543  -0.594273  0  2.433598  0
O  O82  1  0.73643591  0.10820426  0.78437209  1  -1.255345  0  -0.23257  -0.594222  0  2.434081  0
O  O83  1  0.26169241  0.21559076  0.89182529  1  -1.256692  0  -0.232491  -0.594026  0  2.434696  0
O  O84  1  0.26170832  0.10817869  0.82378294  1  -1.25435  0  -0.232493  -0.594065  0  2.43521  0
O  O85  1  0.26169979  0.17622628  0.78440895  1  -1.255449  0  -0.232472  -0.594038  0  2.43492  0
