# generated using pymatgen
data_AlH9(C3O)6
_symmetry_space_group_name_H-M   'P 1'
_cell_length_a   3.97486695
_cell_length_b   17.13219232
_cell_length_c   17.13228652
_cell_angle_alpha   119.99989000
_cell_angle_beta   90.00028006
_cell_angle_gamma   89.99989363
_symmetry_Int_Tables_number   1
_chemical_formula_structural   AlH9(C3O)6
_chemical_formula_sum   'Al2 H18 C36 O12'
_cell_volume   1010.37357518
_cell_formula_units_Z   2
loop_
 _symmetry_equiv_pos_site_id
 _symmetry_equiv_pos_as_xyz
  1  'x, y, z'
loop_
 _atom_site_type_symbol
 _atom_site_label
 _atom_site_symmetry_multiplicity
 _atom_site_fract_x
 _atom_site_fract_y
 _atom_site_fract_z
 _atom_site_occupancy
 _atom_site_pbe_bader_charge
 _atom_site_pbe_bader_spin_density
 _atom_site_pbe_cm5_charge
 _atom_site_pbe_ddec_charge
 _atom_site_pbe_ddec_spin_density
 _atom_site_pbe_ddec_sum_bond_order
 _atom_site_pbe_magmom
Al  Al0  1  0.01686159  0.50000026  0.50000046  1  2.502439  0  0.426261  1.5985  0  2.571367  0
Al  Al1  1  0.98313523  0.16666686  0.83333440  1  2.503325  0  0.42668  1.59522  0  2.575025  0
H  H2  1  0.50314723  0.10210522  0.60329695  1  0.068278  0  0.104424  0.113338  0  1.014788  0
H  H3  1  0.50590064  0.01974922  0.43716676  1  -0.001105  0  0.096997  0.088628  0  0.999435  0
H  H4  1  0.49670684  0.27004856  0.43532277  1  0.092447  0  0.104511  0.113347  0  1.014391  0
H  H5  1  0.49477956  0.10391041  0.35298197  1  0.073262  0  0.096984  0.088479  0  0.999546  0
H  H6  1  0.48587358  0.49904904  0.74810298  1  0.081939  0  0.106914  0.109564  0  0.98654  0
H  H7  1  0.51449463  0.41482104  0.83230790  1  0.018658  0  0.107192  0.109831  0  0.986719  0
H  H8  1  0.50315070  0.00119140  0.89789340  1  0.056352  0  0.104431  0.113368  0  1.014728  0
H  H9  1  0.50590264  0.91741578  0.98024894  1  0.052239  0  0.096979  0.088614  0  0.999402  0
H  H10  1  0.49671333  0.66527303  0.72994914  1  0.043629  0  0.104516  0.113349  0  1.014426  0
H  H11  1  0.49477755  0.74906878  0.89608482  1  0.010772  0  0.097006  0.088507  0  0.999586  0
H  H12  1  0.48587000  0.74905433  0.50095002  1  0.029547  0  0.106903  0.10955  0  0.986537  0
H  H13  1  0.51449001  0.91748799  0.58517925  1  0.066057  0  0.107177  0.109845  0  0.986729  0
H  H14  1  0.50315265  0.39670298  0.99881043  1  0.126998  0  0.104453  0.113402  0  1.014684  0
H  H15  1  0.50590733  0.56283409  0.08258610  1  0.051024  0  0.096965  0.088573  0  0.999445  0
H  H16  1  0.49671718  0.56467666  0.33472836  1  0.097746  0  0.104508  0.113355  0  1.014419  0
H  H17  1  0.49478635  0.64701731  0.25093173  1  0.010685  0  0.096997  0.08849  0  0.999604  0
H  H18  1  0.48587445  0.25189439  0.25094541  1  0.078445  0  0.10688  0.109499  0  0.986555  0
H  H19  1  0.51450042  0.16768991  0.08251249  1  0.062948  0  0.107181  0.109849  0  0.986717  0
C  C20  1  0.51181034  0.42871533  0.36153456  1  1.597705  0  0.281365  0.66305  0  4.054462  0
C  C21  1  0.51180747  0.43281695  0.57128323  1  1.585208  0  0.281355  0.663028  0  4.05437  0
C  C22  1  0.51180911  0.63846598  0.56718252  1  1.548336  0  0.281347  0.66303  0  4.054345  0
C  C23  1  0.48812145  0.23796788  0.76607294  1  1.536713  0  0.281163  0.664189  0  4.051954  0
C  C24  1  0.48812477  0.02810438  0.76203251  1  1.545821  0  0.2811  0.664189  0  4.051924  0
C  C25  1  0.48812612  0.23392817  0.97189681  1  1.547368  0  0.281147  0.664314  0  4.051903  0
C  C26  1  0.50182682  0.28494477  0.71276237  1  0.012714  0  -0.001656  -0.070857  0  3.928216  0
C  C27  1  0.49737304  0.23486794  0.61651323  1  -0.042808  0  0.005425  0.06534  0  3.938681  0
C  C28  1  0.50673778  0.37818633  0.75882078  1  0.112645  0  -0.084006  -0.099067  0  4.008202  0
C  C29  1  0.50121204  0.13913051  0.56696549  1  -0.108023  0  -0.087271  -0.122055  0  3.964302  0
C  C30  1  0.50233331  0.09328894  0.47412866  1  0.144716  0  -0.093845  -0.083903  0  4.057074  0
C  C31  1  0.49789828  0.37950162  0.61822640  1  -0.159454  0  -0.001724  -0.069582  0  3.927577  0
C  C32  1  0.49326746  0.42554559  0.71147254  1  0.060484  0  -0.084002  -0.09968  0  4.007218  0
C  C33  1  0.50209703  0.28325927  0.56813061  1  -0.097166  0  0.005436  0.065483  0  3.937508  0
C  C34  1  0.49853385  0.23372127  0.47237110  1  -0.065462  0  -0.08749  -0.122009  0  3.961762  0
C  C35  1  0.49784694  0.14088945  0.42653101  1  0.030942  0  -0.093841  -0.083618  0  4.056722  0
C  C36  1  0.50182171  0.92781809  0.71505525  1  0.049974  0  -0.001675  -0.07088  0  3.928236  0
C  C37  1  0.49737951  0.88164509  0.76512914  1  0.175682  0  0.005403  0.065249  0  3.938647  0
C  C38  1  0.50673682  0.88063531  0.62181205  1  0.001245  0  -0.083953  -0.099058  0  4.008114  0
C  C39  1  0.50121440  0.92783159  0.86086870  1  -0.059538  0  -0.08726  -0.122083  0  3.964433  0
C  C40  1  0.50233712  0.88083826  0.90670580  1  -8.7e-05  0  -0.093827  -0.083843  0  4.057366  0
C  C41  1  0.49790187  0.73872550  0.62049544  1  -0.074161  0  -0.001648  -0.069432  0  3.927519  0
C  C42  1  0.49326708  0.78592716  0.57445351  1  -0.058208  0  -0.084  -0.099695  0  4.007367  0
C  C43  1  0.50210660  0.78487018  0.71673911  1  0.01323  0  0.005463  0.065576  0  3.937592  0
C  C44  1  0.49854240  0.73864765  0.76627416  1  -0.009268  0  -0.087456  -0.122065  0  3.961917  0
C  C45  1  0.49785133  0.78564034  0.85911092  1  -0.025755  0  -0.093935  -0.083684  0  4.056733  0
C  C46  1  0.50183021  0.28723749  0.07218408  1  -0.089406  0  -0.001668  -0.070865  0  3.928319  0
C  C47  1  0.49738236  0.38348424  0.11835423  1  -0.017844  0  0.005452  0.065311  0  3.938695  0
C  C48  1  0.50674426  0.24117704  0.11936587  1  0.053841  0  -0.083942  -0.099103  0  4.008208  0
C  C49  1  0.50122080  0.43303714  0.07216977  1  -0.019171  0  -0.087303  -0.122164  0  3.964486  0
C  C50  1  0.50234296  0.52586905  0.11916315  1  -0.058005  0  -0.093779  -0.083741  0  4.057222  0
C  C51  1  0.49790462  0.38177006  0.26127601  1  -0.066504  0  -0.001731  -0.069624  0  3.927556  0
C  C52  1  0.49327542  0.28852551  0.21407422  1  -0.036048  0  -0.083997  -0.099592  0  4.007245  0
C  C53  1  0.50211037  0.43186964  0.21513207  1  0.045397  0  0.005479  0.06565  0  3.937526  0
C  C54  1  0.49854304  0.52762733  0.26135235  1  -0.053207  0  -0.087508  -0.122149  0  3.962059  0
C  C55  1  0.49785555  0.57347037  0.21436228  1  0.029994  0  -0.093924  -0.08367  0  4.056814  0
O  O56  1  0.75449932  0.60033273  0.58379251  1  -1.251874  0  -0.229885  -0.594087  0  2.39206  0
O  O57  1  0.75450040  0.48345979  0.39966774  1  -1.254426  0  -0.229886  -0.594081  0  2.392111  0
O  O58  1  0.75449937  0.41620615  0.51654017  1  -1.246929  0  -0.229901  -0.594055  0  2.391977  0
O  O59  1  0.28454067  0.59714300  0.50774469  1  -1.267942  0  -0.240592  -0.603699  0  2.35104  0
O  O60  1  0.28454195  0.49225525  0.58939807  1  -1.263685  0  -0.240557  -0.603671  0  2.351122  0
O  O61  1  0.28454286  0.41060120  0.40285703  1  -1.261735  0  -0.240571  -0.603665  0  2.351134  0
O  O62  1  0.71550210  0.17451771  0.93057461  1  -1.260807  0  -0.240396  -0.603619  0  2.350297  0
O  O63  1  0.71550067  0.25605721  0.82548409  1  -1.248825  0  -0.2404  -0.603585  0  2.350346  0
O  O64  1  0.71549807  0.06942616  0.74394457  1  -1.260526  0  -0.240384  -0.603567  0  2.350329  0
O  O65  1  0.24553389  0.25050027  0.93370014  1  -1.254614  0  -0.230041  -0.593804  0  2.392179  0
O  O66  1  0.24553342  0.06630162  0.81680227  1  -1.254194  0  -0.230028  -0.593765  0  2.392101  0
O  O67  1  0.24552973  0.18320013  0.74950241  1  -1.252026  0  -0.23001  -0.593702  0  2.392201  0
