# generated using pymatgen
data_Zn3H40C50(N2O9)2
_symmetry_space_group_name_H-M   'P 1'
_cell_length_a   11.72549870
_cell_length_b   11.88738427
_cell_length_c   12.04095174
_cell_angle_alpha   102.81927463
_cell_angle_beta   108.48032127
_cell_angle_gamma   115.00848464
_symmetry_Int_Tables_number   1
_chemical_formula_structural   Zn3H40C50(N2O9)2
_chemical_formula_sum   'Zn3 H40 C50 N4 O18'
_cell_volume   1313.08709035
_cell_formula_units_Z   1
loop_
 _symmetry_equiv_pos_site_id
 _symmetry_equiv_pos_as_xyz
  1  'x, y, z'
loop_
 _atom_site_type_symbol
 _atom_site_label
 _atom_site_symmetry_multiplicity
 _atom_site_fract_x
 _atom_site_fract_y
 _atom_site_fract_z
 _atom_site_occupancy
 _atom_site_pbe_bader_charge
 _atom_site_pbe_bader_spin_density
 _atom_site_pbe_cm5_charge
 _atom_site_pbe_ddec_charge
 _atom_site_pbe_ddec_spin_density
 _atom_site_pbe_ddec_sum_bond_order
 _atom_site_pbe_magmom
Zn  Zn0  1  0.50000026  0.00000085  0.00000194  1  1.407747  0  0.683152  1.017039  0  2.210132  0
Zn  Zn1  1  0.21965414  0.03486013  0.88127296  1  1.296067  0  0.695218  0.810582  0  2.374118  0
Zn  Zn2  1  0.78034890  0.96514044  0.11872358  1  1.296048  0  0.695233  0.810664  0  2.374102  0
H  H3  1  0.45408007  0.86707932  0.73674214  1  0.08419  0  0.105101  0.092646  0  1.031723  0
H  H4  1  0.54592541  0.13292730  0.26325389  1  0.084265  0  0.105111  0.092593  0  1.031781  0
H  H5  1  0.28898034  0.70838338  0.66813488  1  0.098886  0  0.119752  0.124974  0  0.991009  0
H  H6  1  0.71102886  0.29162333  0.33186643  1  0.098765  0  0.119749  0.124943  0  0.990911  0
H  H7  1  0.46525437  0.61790046  0.71001999  1  0.08189  0  0.117604  0.108208  0  0.956643  0
H  H8  1  0.53474914  0.38209922  0.28998149  1  0.081894  0  0.117609  0.108226  0  0.956606  0
H  H9  1  0.47315449  0.54145684  0.82030444  1  0.073408  0  0.102827  0.079934  0  1.032796  0
H  H10  1  0.52684359  0.45854100  0.17970169  1  0.073005  0  0.10286  0.079957  0  1.032777  0
H  H11  1  0.64463555  0.23871650  0.66376961  1  0.105683  0  0.106828  0.117034  0  0.999501  0
H  H12  1  0.35536180  0.76128198  0.33622232  1  0.105613  0  0.106812  0.116977  0  0.999661  0
H  H13  1  0.25627341  0.39478158  0.05149164  1  0.059056  0  0.100948  0.118187  0  1.004551  0
H  H14  1  0.74372562  0.60522939  0.94851169  1  0.059017  0  0.100905  0.118154  0  1.004545  0
H  H15  1  0.49546247  0.05424574  0.70979835  1  0.093639  0  0.105615  0.122199  0  1.047056  0
H  H16  1  0.50453384  0.94575577  0.29019224  1  0.09348  0  0.105573  0.122142  0  1.0471  0
H  H17  1  0.78888200  0.17540415  0.81124910  1  0.060803  0  0.101262  0.079241  0  1.046334  0
H  H18  1  0.21112288  0.82460274  0.18875679  1  0.060606  0  0.101286  0.079337  0  1.046215  0
H  H19  1  0.81809343  0.31294887  0.93737889  1  0.077605  0  0.108181  0.099763  0  0.968285  0
H  H20  1  0.18190069  0.68704997  0.06262462  1  0.077699  0  0.10818  0.099811  0  0.968136  0
H  H21  1  0.93060239  0.87990963  0.87361318  1  0.164269  0  0.12529  0.10496  0  0.993224  0
H  H22  1  0.06939789  0.12008906  0.12638797  1  0.164317  0  0.125275  0.104957  0  0.993254  0
H  H23  1  0.40142599  0.51745741  0.95807837  1  0.039264  0  0.095243  0.09976  0  1.040448  0
H  H24  1  0.59857853  0.48255361  0.04192992  1  0.039338  0  0.095233  0.099763  0  1.040476  0
H  H25  1  0.88252489  0.33308174  0.75677796  1  0.042965  0  0.098817  0.105026  0  1.047225  0
H  H26  1  0.11747349  0.66691687  0.24321928  1  0.042976  0  0.09881  0.104998  0  1.047259  0
H  H27  1  0.85384907  0.07463488  0.55585988  1  0.13614  0  0.111535  0.130524  0  1.02444  0
H  H28  1  0.14614754  0.92536194  0.44414561  1  0.136082  0  0.111547  0.130581  0  1.024363  0
H  H29  1  0.46748375  0.23814361  0.83849291  1  0.121796  0  0.120277  0.095823  0  0.985392  0
H  H30  1  0.53251495  0.76185711  0.16150736  1  0.121773  0  0.120261  0.095796  0  0.985431  0
H  H31  1  0.03026399  0.18300634  0.53464475  1  0.168691  0  0.114206  0.138584  0  1.031559  0
H  H32  1  0.96973266  0.81698919  0.46535051  1  0.168703  0  0.114208  0.138558  0  1.031608  0
H  H33  1  0.02509362  0.44603636  0.65865959  1  0.102581  0  0.111791  0.130503  0  0.972462  0
H  H34  1  0.97490812  0.55395706  0.34133508  1  0.102583  0  0.111771  0.130486  0  0.972459  0
H  H35  1  0.68690573  0.83329258  0.75033122  1  0.075525  0  0.105713  0.113396  0  1.018131  0
H  H36  1  0.31309487  0.16671138  0.24967693  1  0.075501  0  0.105698  0.1134  0  1.01816  0
H  H37  1  0.47970799  0.34439167  0.68062053  1  0.093058  0  0.109589  0.111388  0  0.989511  0
H  H38  1  0.52028701  0.65560400  0.31937926  1  0.093129  0  0.109566  0.111348  0  0.989503  0
H  H39  1  0.25445145  0.31494764  0.52630543  1  0.073871  0  0.113461  0.109276  0  0.967535  0
H  H40  1  0.74554463  0.68503876  0.47369025  1  0.073567  0  0.113446  0.109235  0  0.967515  0
H  H41  1  0.64841641  0.92774488  0.58280883  1  0.09901  0  0.098664  0.091087  0  1.071883  0
H  H42  1  0.35157767  0.07225707  0.41719697  1  0.099106  0  0.098684  0.091127  0  1.071892  0
C  C43  1  0.34104093  0.80880046  0.66600133  1  0.410031  0  -0.075349  -0.140572  0  3.890642  0
C  C44  1  0.65896856  0.19120205  0.33399504  1  0.410662  0  -0.075341  -0.140366  0  3.890217  0
C  C45  1  0.43838143  0.60648119  0.78811667  1  0.408804  0  -0.068994  -0.131629  0  3.954719  0
C  C46  1  0.56162090  0.39351956  0.21188635  1  0.409191  0  -0.069014  -0.131644  0  3.954742  0
C  C47  1  0.00171356  0.05518059  0.70125136  1  0.513492  0  0.127631  0.174118  0  3.96701  0
C  C48  1  0.99828461  0.94481916  0.29875022  1  0.513551  0  0.127636  0.174116  0  3.966941  0
C  C49  1  0.06050953  0.35634364  0.91221021  1  0.445083  0  0.066941  0.225196  0  4.086993  0
C  C50  1  0.93949438  0.64366319  0.08779288  1  0.445027  0  0.066966  0.225317  0  4.08707  0
C  C51  1  0.58163272  0.13329475  0.59264643  1  -0.092934  0  -0.105628  -0.192802  0  4.034781  0
C  C52  1  0.41836128  0.86670266  0.40734179  1  -0.093075  0  -0.105638  -0.19285  0  4.034611  0
C  C53  1  0.41152335  0.89406309  0.52347445  1  0.410525  0  0.069581  0.230462  0  4.078968  0
C  C54  1  0.58847257  0.10593442  0.47651852  1  0.410653  0  0.069474  0.230292  0  4.079207  0
C  C55  1  0.20708284  0.40989736  0.96732987  1  -0.020744  0  -0.110374  -0.184572  0  4.015486  0
C  C56  1  0.79292078  0.59011367  0.03267816  1  -0.020736  0  -0.110315  -0.184639  0  4.015644  0
C  C57  1  0.22188655  0.48915298  0.80080021  1  0.4057  0  0.066854  0.229942  0  4.069689  0
C  C58  1  0.77810919  0.51084569  0.19919792  1  0.405625  0  0.066787  0.22984  0  4.069629  0
C  C59  1  0.26919250  0.88120015  0.70292101  1  1.576064  0  0.207555  0.603912  0  4.145579  0
C  C60  1  0.73081835  0.11880147  0.29708056  1  1.576129  0  0.207599  0.604066  0  4.145555  0
C  C61  1  0.52367715  0.74766404  0.89876617  1  1.597798  0  0.203695  0.579889  0  4.208544  0
C  C62  1  0.47632774  0.25233972  0.10123657  1  1.597842  0  0.203657  0.579807  0  4.208517  0
C  C63  1  0.49434810  0.02900816  0.61678403  1  0.012427  0  -0.109651  -0.205454  0  4.01413  0
C  C64  1  0.50564943  0.97099231  0.38320670  1  0.01228  0  -0.109655  -0.205365  0  4.014051  0
C  C65  1  0.77373811  0.13114578  0.96948540  1  1.63949  0  0.218261  0.627936  0  4.138446  0
C  C66  1  0.22626502  0.86885487  0.03051451  1  1.639523  0  0.218244  0.628024  0  4.138338  0
C  C67  1  0.84117532  0.23189953  0.91647784  1  0.424555  0  -0.069226  -0.121776  0  3.899825  0
C  C68  1  0.15883065  0.76810936  0.08352712  1  0.424758  0  -0.069182  -0.121881  0  3.89949  0
C  C69  1  0.13065260  0.13962996  0.69111225  1  0.473914  0  0.129379  0.176668  0  3.96692  0
C  C70  1  0.86934205  0.86036672  0.30888681  1  0.474053  0  0.129386  0.176766  0  3.966834  0
C  C71  1  0.90829216  0.92152759  0.80306258  1  0.451157  0  0.061767  0.116991  0  3.901982  0
C  C72  1  0.09170394  0.07847007  0.19693628  1  0.45113  0  0.061768  0.117037  0  3.90205  0
C  C73  1  0.28777294  0.47699654  0.91296103  1  -0.026241  0  -0.116564  -0.20272  0  4.048055  0
C  C74  1  0.71222571  0.52300414  0.08703755  1  -0.02616  0  -0.116575  -0.202655  0  4.048086  0
C  C75  1  0.99580548  0.37266868  0.80218136  1  0.017988  0  -0.11101  -0.198535  0  4.025882  0
C  C76  1  0.00419465  0.62732988  0.19781473  1  0.017887  0  -0.111073  -0.1986  0  4.025973  0
C  C77  1  0.86849794  0.03136630  0.62631689  1  -0.058756  0  -0.073761  -0.149096  0  3.909627  0
C  C78  1  0.13149594  0.96863049  0.37368611  1  -0.05871  0  -0.073757  -0.149167  0  3.909382  0
C  C79  1  0.37340085  0.22897386  0.76970889  1  0.465737  0  0.051872  0.101928  0  3.944619  0
C  C80  1  0.62659591  0.77102491  0.23029372  1  0.465861  0  0.052011  0.10208  0  3.94437  0
C  C81  1  0.12826462  0.19692918  0.60125397  1  -0.05977  0  -0.069819  -0.143707  0  3.885099  0
C  C82  1  0.87173160  0.80306230  0.39874198  1  -0.059547  0  -0.069862  -0.143769  0  3.88504  0
C  C83  1  0.07613667  0.43738563  0.74657612  1  0.013708  0  -0.098494  -0.162865  0  3.988904  0
C  C84  1  0.92386234  0.56261091  0.25342005  1  0.013834  0  -0.09841  -0.162775  0  3.988764  0
C  C85  1  0.77301232  0.89466660  0.73231067  1  0.019858  0  -0.082484  -0.126314  0  3.95413  0
C  C86  1  0.22698322  0.10533321  0.26769179  1  0.019974  0  -0.0825  -0.126434  0  3.954266  0
C  C87  1  0.37933454  0.28795055  0.68211541  1  -0.017844  0  -0.084813  -0.139178  0  3.990157  0
C  C88  1  0.62066030  0.71204001  0.31788327  1  -0.018178  0  -0.084779  -0.139097  0  3.989981  0
C  C89  1  0.25451711  0.27105595  0.59669172  1  0.002108  0  -0.062566  -0.013884  0  3.967007  0
C  C90  1  0.74547709  0.72893353  0.40330405  1  0.002131  0  -0.062535  -0.013822  0  3.966807  0
C  C91  1  0.75322764  0.94915870  0.64176933  1  -0.035768  0  -0.068958  -0.023992  0  3.969539  0
C  C92  1  0.24676755  0.05083897  0.35822927  1  -0.035854  0  -0.068966  -0.023954  0  3.969368  0
N  N93  1  0.25194379  0.15625953  0.77299319  1  -1.234207  0  -0.318814  -0.269915  0  3.542333  0
N  N94  1  0.74805381  0.84374233  0.22701115  1  -1.234248  0  -0.318949  -0.270147  0  3.542382  0
N  N95  1  0.01882607  0.99881567  0.78657655  1  -1.243193  0  -0.320159  -0.2576  0  3.526332  0
N  N96  1  0.98117124  0.00118411  0.21342560  1  -1.243296  0  -0.320135  -0.257579  0  3.526406  0
O  O97  1  0.28903471  0.54388033  0.73339328  1  -1.090413  0  -0.185036  -0.191891  0  2.604667  0
O  O98  1  0.71096548  0.45612143  0.26660848  1  -1.090484  0  -0.185031  -0.191905  0  2.604796  0
O  O99  1  0.64000437  0.07706258  0.92511851  1  -1.211703  0  -0.323724  -0.584243  0  2.334914  0
O  O100  1  0.35999923  0.92293403  0.07488236  1  -1.211732  0  -0.323742  -0.58433  0  2.334794  0
O  O101  1  0.32511478  0.78373091  0.53874204  1  -1.07014  0  -0.193209  -0.191527  0  2.536312  0
O  O102  1  0.67488892  0.21627076  0.46125826  1  -1.070664  0  -0.193248  -0.191659  0  2.536384  0
O  O103  1  0.45834629  0.79827994  0.93178761  1  -1.184606  0  -0.30858  -0.550993  0  2.354654  0
O  O104  1  0.54166077  0.20172283  0.06821723  1  -1.184673  0  -0.308602  -0.551009  0  2.354584  0
O  O105  1  0.99030859  0.28805724  0.97055208  1  -1.088823  0  -0.186574  -0.181658  0  2.570228  0
O  O106  1  0.00969493  0.71195684  0.02945572  1  -1.088848  0  -0.186595  -0.181704  0  2.570097  0
O  O107  1  0.85292445  0.10837012  0.04778692  1  -1.174374  0  -0.311258  -0.534303  0  2.347648  0
O  O108  1  0.14708106  0.89162212  0.95220364  1  -1.174393  0  -0.311198  -0.534227  0  2.347706  0
O  O109  1  0.32430658  0.95061230  0.82668600  1  -1.179443  0  -0.322821  -0.583072  0  2.479353  0
O  O110  1  0.67570472  0.04939336  0.17331489  1  -1.179434  0  -0.322777  -0.583132  0  2.479348  0
O  O111  1  0.65799909  0.80105586  0.94694633  1  -1.174104  0  -0.323598  -0.546024  0  2.320992  0
O  O112  1  0.34200595  0.19894985  0.05305354  1  -1.174042  0  -0.323541  -0.545944  0  2.320987  0
O  O113  1  0.16487204  0.87024706  0.62062890  1  -1.177433  0  -0.311544  -0.530291  0  2.154428  0
O  O114  1  0.83512781  0.12975256  0.37936900  1  -1.17759  0  -0.311523  -0.530308  0  2.154676  0
