# generated using pymatgen
data_SnH31C25NO3
_symmetry_space_group_name_H-M   'P 1'
_cell_length_a   9.40724124
_cell_length_b   11.17874352
_cell_length_c   11.42770000
_cell_angle_alpha   90.00000000
_cell_angle_beta   90.00000000
_cell_angle_gamma   108.94366855
_symmetry_Int_Tables_number   1
_chemical_formula_structural   SnH31C25NO3
_chemical_formula_sum   'Sn2 H62 C50 N2 O6'
_cell_volume   1136.66099546
_cell_formula_units_Z   2
loop_
 _symmetry_equiv_pos_site_id
 _symmetry_equiv_pos_as_xyz
  1  'x, y, z'
loop_
 _atom_site_type_symbol
 _atom_site_label
 _atom_site_symmetry_multiplicity
 _atom_site_fract_x
 _atom_site_fract_y
 _atom_site_fract_z
 _atom_site_occupancy
 _atom_site_hle17_bader_spin_density
 _atom_site_hle17_ddec_charge
 _atom_site_hle17_ddec_spin_density
 _atom_site_hle17_ddec_sum_bond_order
 _atom_site_hle17_magmom
 _atom_site_hse06_10hf_bader_spin_density
 _atom_site_hse06_10hf_ddec_charge
 _atom_site_hse06_10hf_ddec_spin_density
 _atom_site_hse06_10hf_ddec_sum_bond_order
 _atom_site_hse06_10hf_magmom
 _atom_site_hse06_bader_spin_density
 _atom_site_hse06_ddec_charge
 _atom_site_hse06_ddec_spin_density
 _atom_site_hse06_ddec_sum_bond_order
 _atom_site_hse06_magmom
 _atom_site_pbe_bader_charge
 _atom_site_pbe_bader_spin_density
 _atom_site_pbe_cm5_charge
 _atom_site_pbe_ddec_charge
 _atom_site_pbe_ddec_spin_density
 _atom_site_pbe_ddec_sum_bond_order
 _atom_site_pbe_magmom
Sn  Sn0  1  0.53883929  0.07784716  0.19575855  1  0  1.397377  0  2.779326  0  0  1.233992  0  3.265806  0  0  1.284668  0  3.241612  0  1.856748  0  0.63719  1.200261  0  3.282735  0
Sn  Sn1  1  0.46116041  0.92215258  0.69576030  1  0  1.397365  0  2.779312  0  0  1.233977  0  3.265801  0  0  1.28466  0  3.241608  0  1.856616  0  0.637177  1.200241  0  3.28273  0
H  H2  1  0.88391249  0.16157896  0.41671465  1  0  0.069149  0  0.935918  0  0  0.084266  0  0.993274  0  0  0.085102  0  0.99349  0  0.064896  0  0.11466  0.083766  0  0.99293  0
H  H3  1  0.11608472  0.83841984  0.91671552  1  0  0.069146  0  0.935879  0  0  0.084247  0  0.99328  0  0  0.085083  0  0.993497  0  0.064795  0  0.114651  0.083747  0  0.992936  0
H  H4  1  0.98549476  0.28334057  0.03197144  1  0  0.10822  0  1.001257  0  0  0.117855  0  1.065902  0  0  0.120983  0  1.067051  0  0.045757  0  0.093225  0.115876  0  1.064945  0
H  H5  1  0.01450458  0.71665822  0.53197319  1  0  0.108261  0  1.001216  0  0  0.117865  0  1.065903  0  0  0.12099  0  1.067056  0  0.045714  0  0.093238  0.115892  0  1.064939  0
H  H6  1  0.84406534  0.38337762  0.38660885  1  0  0.074346  0  0.927936  0  0  0.094068  0  0.985509  0  0  0.094891  0  0.985824  0  0.017714  0  0.092528  0.093499  0  0.98513  0
H  H7  1  0.15593472  0.61662306  0.88660798  1  0  0.074361  0  0.927959  0  0  0.094081  0  0.985504  0  0  0.094904  0  0.98582  0  0.017713  0  0.092527  0.093511  0  0.985127  0
H  H8  1  0.66295003  0.30953584  0.44260875  1  0  0.076435  0  0.961273  0  0  0.091734  0  1.026882  0  0  0.091681  0  1.029966  0  0.052539  0  0.091248  0.091609  0  1.025105  0
H  H9  1  0.33704824  0.69046295  0.94260787  1  0  0.076466  0  0.961357  0  0  0.09176  0  1.026942  0  0  0.091713  0  1.030006  0  0.052222  0  0.091259  0.091635  0  1.025165  0
H  H10  1  0.79426955  0.25095423  0.62378344  1  0  0.036255  0  0.941025  0  0  0.052873  0  0.998376  0  0  0.052946  0  0.999585  0  0.032847  0  0.088726  0.052616  0  0.997857  0
H  H11  1  0.20572872  0.74904457  0.12378256  1  0  0.036321  0  0.940987  0  0  0.052932  0  0.998319  0  0  0.053001  0  0.999531  0  0.032893  0  0.08875  0.052677  0  0.997795  0
H  H12  1  0.06623432  0.45572601  0.51826964  1  0  0.087575  0  0.962618  0  0  0.11022  0  1.025755  0  0  0.110659  0  1.027346  0  0.015304  0  0.079505  0.109682  0  1.024891  0
H  H13  1  0.93376432  0.54427373  0.01826789  1  0  0.087631  0  0.96266  0  0  0.110285  0  1.025768  0  0  0.110724  0  1.02736  0  0.015279  0  0.079532  0.109746  0  1.024905  0
H  H14  1  0.05122220  0.29407139  0.53937450  1  0  0.088309  0  0.976134  0  0  0.106272  0  1.046332  0  0  0.106941  0  1.047669  0  -0.00281  0  0.079961  0.1055  0  1.045831  0
H  H15  1  0.94877750  0.70592835  0.03937363  1  0  0.088319  0  0.976123  0  0  0.106284  0  1.046321  0  0  0.106953  0  1.047657  0  -0.00282  0  0.079956  0.105512  0  1.045819  0
H  H16  1  0.05737328  0.39240699  0.66153994  1  0  0.092365  0  0.950681  0  0  0.115075  0  1.010687  0  0  0.116241  0  1.011051  0  0.014547  0  0.082619  0.11422  0  1.010365  0
H  H17  1  0.94262499  0.60759181  0.16153994  1  0  0.092408  0  0.950631  0  0  0.11511  0  1.010646  0  0  0.116273  0  1.011014  0  0.014554  0  0.082644  0.114255  0  1.010323  0
H  H18  1  0.84487167  0.47435883  0.70589970  1  0  0.087992  0  0.974154  0  0  0.112041  0  1.033701  0  0  0.112441  0  1.034984  0  0.004592  0  0.08207  0.111704  0  1.032755  0
H  H19  1  0.15512411  0.52563902  0.20589882  1  0  0.088007  0  0.97415  0  0  0.112062  0  1.033692  0  0  0.11246  0  1.034976  0  0.004572  0  0.082103  0.111732  0  1.032738  0
H  H20  1  0.66976482  0.41376932  0.63193381  1  0  0.093627  0  0.963378  0  0  0.112944  0  1.029326  0  0  0.113692  0  1.030942  0  -0.013886  0  0.082307  0.112563  0  1.028094  0
H  H21  1  0.33023308  0.58622853  0.13193381  1  0  0.093606  0  0.963413  0  0  0.112952  0  1.029322  0  0  0.113698  0  1.03094  0  -0.013835  0  0.082307  0.112572  0  1.028089  0
H  H22  1  0.82425427  0.52511790  0.56161170  1  0  0.085412  0  0.962604  0  0  0.10793  0  1.02545  0  0  0.109016  0  1.025778  0  -0.024419  0  0.080507  0.107159  0  1.02514  0
H  H23  1  0.17574151  0.47487995  0.06160995  1  0  0.085462  0  0.962517  0  0  0.107964  0  1.025389  0  0  0.10904  0  1.025727  0  -0.024476  0  0.080546  0.107193  0  1.025081  0
H  H24  1  0.33200111  0.17489554  0.13558809  1  0  0.137326  0  0.962722  0  0  0.153086  0  1.019287  0  0  0.155795  0  1.019397  0  0.064635  0  0.100029  0.151074  0  1.020193  0
H  H25  1  0.66799932  0.82510609  0.63558721  1  0  0.13733  0  0.962709  0  0  0.1531  0  1.01927  0  0  0.155809  0  1.019378  0  0.064625  0  0.10003  0.151088  0  1.020176  0
H  H26  1  0.27455749  0.09384786  0.27088916  1  0  0.122539  0  0.988314  0  0  0.136693  0  1.051114  0  0  0.138852  0  1.052105  0  0.035908  0  0.093804  0.135938  0  1.049651  0
H  H27  1  0.72544400  0.90615377  0.77088828  1  0  0.122518  0  0.988324  0  0  0.136665  0  1.051146  0  0  0.138825  0  1.052136  0  0.035883  0  0.093788  0.13591  0  1.049686  0
H  H28  1  0.48334252  0.82789993  0.18094980  1  0  0.131478  0  0.974133  0  0  0.147487  0  1.031885  0  0  0.149973  0  1.032746  0  0.059071  0  0.097083  0.145631  0  1.031479  0
H  H29  1  0.51665897  0.17210171  0.68095067  1  0  0.131487  0  0.97408  0  0  0.147505  0  1.03182  0  0  0.14999  0  1.032685  0  0.059047  0  0.097098  0.14565  0  1.031414  0
H  H30  1  0.58891835  0.90395767  0.05635955  1  0  0.136147  0  0.994038  0  0  0.147137  0  1.058071  0  0  0.150405  0  1.058235  0  0.050085  0  0.095467  0.144842  0  1.058097  0
H  H31  1  0.41108135  0.09604207  0.55635955  1  0  0.136131  0  0.99399  0  0  0.147121  0  1.058038  0  0  0.15039  0  1.058202  0  0.050101  0  0.095457  0.144827  0  1.058063  0
H  H32  1  0.05761147  0.33149591  0.32039693  1  0  0.123806  0  0.949658  0  0  0.145281  0  1.010877  0  0  0.147785  0  1.00999  0  0.058659  0  0.100592  0.143706  0  1.010962  0
H  H33  1  0.94238680  0.66850288  0.82039693  1  0  0.123786  0  0.949679  0  0  0.145251  0  1.010915  0  0  0.147753  0  1.010031  0  0.058631  0  0.100572  0.143676  0  1.011001  0
H  H34  1  0.12579643  0.29255247  0.18600943  1  0  0.121602  0  0.952843  0  0  0.145142  0  1.007224  0  0  0.147025  0  1.007033  0  0.057028  0  0.096886  0.14374  0  1.008141  0
H  H35  1  0.87420184  0.70744632  0.68600943  1  0  0.121649  0  0.952807  0  0  0.145202  0  1.007169  0  0  0.147086  0  1.006978  0  0.057017  0  0.096912  0.1438  0  1.008086  0
H  H36  1  0.05123381  0.17401218  0.29344137  1  0  0.122454  0  0.954428  0  0  0.141763  0  1.018834  0  0  0.143662  0  1.019271  0  0.07297  0  0.097851  0.140257  0  1.018785  0
H  H37  1  0.94876410  0.82598567  0.79344225  1  0  0.122432  0  0.954403  0  0  0.141776  0  1.018772  0  0  0.143676  0  1.019208  0  0.072976  0  0.097854  0.140272  0  1.018722  0
H  H38  1  0.70072224  0.21786233  0.82940049  1  0  0.128747  0  0.938416  0  0  0.150511  0  0.99838  0  0  0.153334  0  0.996508  0  0.049243  0  0.100489  0.148614  0  0.999561  0
H  H39  1  0.29927497  0.78213647  0.32940224  1  0  0.128761  0  0.938388  0  0  0.15052  0  0.998361  0  0  0.153341  0  0.996491  0  0.04928  0  0.100498  0.148623  0  0.999542  0
H  H40  1  0.88504381  0.32543252  0.85809568  1  0  0.116392  0  0.952865  0  0  0.138162  0  1.011607  0  0  0.140012  0  1.01111  0  0.023253  0  0.094108  0.136884  0  1.012041  0
H  H41  1  0.11495339  0.67456628  0.35809743  1  0  0.116368  0  0.952846  0  0  0.138152  0  1.011575  0  0  0.140002  0  1.011078  0  0.023232  0  0.094102  0.136874  0  1.012012  0
H  H42  1  0.72133844  0.37109572  0.88169623  1  0  0.12952  0  0.945407  0  0  0.149144  0  1.008333  0  0  0.151345  0  1.00815  0  0.057646  0  0.099423  0.147617  0  1.008644  0
H  H43  1  0.27865877  0.62890307  0.38169710  1  0  0.129472  0  0.94539  0  0  0.149101  0  1.008315  0  0  0.151302  0  1.008134  0  0.057656  0  0.099409  0.147574  0  1.008627  0
H  H44  1  0.28659376  0.21292536  0.44425562  1  0  0.082377  0  0.970613  0  0  0.094627  0  1.033492  0  0  0.097091  0  1.032788  0  0.05428  0  0.094686  0.092789  0  1.034103  0
H  H45  1  0.71341341  0.78707722  0.94425475  1  0  0.082358  0  0.970753  0  0  0.09464  0  1.033605  0  0  0.097102  0  1.032902  0  0.054606  0  0.094685  0.092802  0  1.034216  0
H  H46  1  0.37018349  0.41459215  0.55281465  1  0  0.08303  0  0.966115  0  0  0.096971  0  1.023563  0  0  0.099103  0  1.023185  0  0.078302  0  0.098658  0.095387  0  1.024019  0
H  H47  1  0.62982229  0.58541232  0.05281640  1  0  0.082966  0  0.966185  0  0  0.096948  0  1.023592  0  0  0.099081  0  1.023213  0  0.078329  0  0.098651  0.095366  0  1.024045  0
H  H48  1  0.55215682  0.60709906  0.46172371  1  0  0.084544  0  0.961221  0  0  0.094657  0  1.025062  0  0  0.097454  0  1.023978  0  0.054032  0  0.096531  0.092655  0  1.026021  0
H  H49  1  0.44784859  0.39290447  0.96172721  1  0  0.084513  0  0.961275  0  0  0.094638  0  1.025093  0  0  0.097434  0  1.024011  0  0.053928  0  0.096532  0.092636  0  1.026054  0
H  H50  1  0.64963970  0.59328689  0.26175608  1  0  0.078983  0  0.972607  0  0  0.089624  0  1.034624  0  0  0.091909  0  1.03437  0  0.067428  0  0.093862  0.087914  0  1.034991  0
H  H51  1  0.35036498  0.40671475  0.76175958  1  0  0.078982  0  0.972674  0  0  0.089635  0  1.034668  0  0  0.09192  0  1.034413  0  0.067446  0  0.093878  0.087926  0  1.035034  0
H  H52  1  0.56639007  0.38884234  0.15329156  1  0  0.093765  0  0.967837  0  0  0.10458  0  1.029918  0  0  0.10743  0  1.029036  0  0.089353  0  0.098787  0.102531  0  1.030614  0
H  H53  1  0.43361069  0.61115740  0.65329331  1  0  0.093738  0  0.96786  0  0  0.104558  0  1.029934  0  0  0.107407  0  1.029051  0  0.089395  0  0.098775  0.10251  0  1.030629  0
H  H54  1  0.62175527  0.82909918  0.37465282  1  0  0.103992  0  0.94944  0  0  0.113903  0  1.011896  0  0  0.11739  0  1.010109  0  0.105468  0  0.103007  0.111267  0  1.013658  0
H  H55  1  0.37824479  0.17090151  0.87465194  1  0  0.104007  0  0.949441  0  0  0.11392  0  1.011899  0  0  0.117406  0  1.010114  0  0.105256  0  0.103011  0.111295  0  1.013644  0
H  H56  1  0.85924788  0.82945195  0.46864636  1  0  0.07968  0  0.961422  0  0  0.093441  0  1.019695  0  0  0.096181  0  1.018401  0  0.047734  0  0.095416  0.091365  0  1.020964  0
H  H57  1  0.14075182  0.17054779  0.96864636  1  0  0.079636  0  0.961385  0  0  0.093404  0  1.019664  0  0  0.096145  0  1.018369  0  0.047749  0  0.095389  0.091329  0  1.020933  0
H  H58  1  0.09781934  0.89188100  0.35497344  1  0  0.079355  0  0.977705  0  0  0.092216  0  1.040062  0  0  0.094195  0  1.040249  0  0.053076  0  0.094107  0.090767  0  1.040105  0
H  H59  1  0.90217750  0.10811685  0.85497432  1  0  0.079298  0  0.977712  0  0  0.092173  0  1.04005  0  0  0.094152  0  1.040237  0  0.053054  0  0.09409  0.090723  0  1.040094  0
H  H60  1  0.09635390  0.95194749  0.14414712  1  0  0.096137  0  0.970595  0  0  0.104925  0  1.034313  0  0  0.108423  0  1.032248  0  0.102438  0  0.098843  0.102346  0  1.035811  0
H  H61  1  0.90364576  0.04804941  0.64414799  1  0  0.09609  0  0.970589  0  0  0.104884  0  1.034317  0  0  0.10838  0  1.032254  0  0.102418  0  0.098833  0.102305  0  1.035808  0
H  H62  1  0.86091864  0.96034224  0.05319356  1  0  0.082114  0  0.961255  0  0  0.093728  0  1.025032  0  0  0.096393  0  1.024417  0  0.062055  0  0.094516  0.091797  0  1.025539  0
H  H63  1  0.13908106  0.03965750  0.55319531  1  0  0.082127  0  0.961346  0  0  0.093752  0  1.025103  0  0  0.096419  0  1.024486  0  0.06202  0  0.094526  0.091821  0  1.025609  0
C  C64  1  0.65054698  0.07327053  0.44701558  1  0  0.651352  0  3.838583  0  0  0.596862  0  4.146916  0  0  0.630792  0  4.13881  0  1.577413  0  0.227043  0.573949  0  4.15179  0
C  C65  1  0.34945062  0.92673205  0.94702521  1  0  0.65157  0  3.838384  0  0  0.596977  0  4.146927  0  0  0.630908  0  4.13882  0  1.577883  0  0.227147  0.574066  0  4.151803  0
C  C66  1  0.77979341  0.17989966  0.39276145  1  0  0.011411  0  3.664799  0  0  -0.008769  0  3.904557  0  0  -0.008451  0  3.917972  0  0.308859  0  0.005964  -0.00889  0  3.895148  0
C  C67  1  0.22020738  0.82010292  0.89276670  1  0  0.011536  0  3.664371  0  0  -0.00866  0  3.90424  0  0  -0.008346  0  3.917653  0  0.308883  0  0.006038  -0.008779  0  3.89482  0
C  C68  1  0.88410050  0.22729554  0.19887291  1  0  0.405491  0  3.728236  0  0  0.398457  0  3.981791  0  0  0.421922  0  3.992005  0  0.59063  0  0.144041  0.383185  0  3.973873  0
C  C69  1  0.11589919  0.77270420  0.69887379  1  0  0.405546  0  3.728179  0  0  0.398517  0  3.981725  0  0  0.421983  0  3.991935  0  0.590557  0  0.14406  0.383245  0  3.973811  0
C  C70  1  0.87789068  0.24828524  0.07664972  1  0  -0.437973  0  3.739651  0  0  -0.461339  0  4.001862  0  0  -0.484545  0  4.022325  0  -0.04061  0  -0.151172  -0.44565  0  3.987088  0
C  C71  1  0.12210796  0.75171451  0.57665147  1  0  -0.438075  0  3.739668  0  0  -0.461402  0  4.001908  0  0  -0.484607  0  4.022369  0  -0.040543  0  -0.151204  -0.44572  0  3.987131  0
C  C72  1  0.77898717  0.30726786  0.44573974  1  0  -0.170255  0  3.605295  0  0  -0.211875  0  3.846705  0  0  -0.213895  0  3.860856  0  -0.037367  0  -0.157733  -0.210335  0  3.836804  0
C  C73  1  0.22101286  0.69272999  0.94574149  1  0  -0.170356  0  3.605426  0  0  -0.211951  0  3.846787  0  0  -0.213966  0  3.860935  0  -0.037058  0  -0.157752  -0.210412  0  3.83689  0
C  C74  1  0.84213671  0.33641681  0.57011035  1  0  0.104875  0  3.65671  0  0  0.11682  0  3.889531  0  0  0.116652  0  3.90814  0  0.051397  0  -0.096463  0.117123  0  3.876627  0
C  C75  1  0.15786156  0.66358199  0.07010860  1  0  0.104756  0  3.656814  0  0  0.116755  0  3.889522  0  0  0.116594  0  3.908112  0  0.051363  0  -0.096505  0.117059  0  3.87662  0
C  C76  1  0.01344044  0.37115436  0.57203374  1  0  -0.31888  0  3.702329  0  0  -0.397033  0  3.942495  0  0  -0.399964  0  3.954831  0  -0.063668  0  -0.248678  -0.394611  0  3.934212  0
C  C77  1  0.98655925  0.62884538  0.07203199  1  0  -0.318969  0  3.702379  0  0  -0.397143  0  3.942545  0  0  -0.400074  0  3.954879  0  -0.063656  0  -0.248712  -0.39472  0  3.934263  0
C  C78  1  0.79226519  0.44295893  0.62072333  1  0  -0.31405  0  3.695892  0  0  -0.392746  0  3.933682  0  0  -0.3957  0  3.946272  0  0.020451  0  -0.248352  -0.39033  0  3.924657  0
C  C79  1  0.20772952  0.55703892  0.12072158  1  0  -0.314055  0  3.695855  0  0  -0.392802  0  3.933679  0  0  -0.395746  0  3.946278  0  0.020479  0  -0.248415  -0.390392  0  3.924646  0
C  C80  1  0.75184383  0.24414556  0.01111772  1  0  0.488179  0  3.785416  0  0  0.475443  0  4.051583  0  0  0.501688  0  4.05708  0  0.66019  0  0.116091  0.458193  0  4.04654  0
C  C81  1  0.24815444  0.75585324  0.51111860  1  0  0.488288  0  3.785459  0  0  0.475507  0  4.051661  0  0  0.501759  0  4.057156  0  0.660111  0  0.116114  0.458253  0  4.046619  0
C  C82  1  0.36662506  0.16459694  0.22560883  1  0  -0.517553  0  3.627508  0  0  -0.543524  0  3.883067  0  0  -0.55589  0  3.897655  0  -0.329494  0  -0.229648  -0.536632  0  3.875671  0
C  C83  1  0.63337679  0.83540564  0.72560795  1  0  -0.517515  0  3.627426  0  0  -0.543534  0  3.883036  0  0  -0.555898  0  3.897619  0  -0.329379  0  -0.229656  -0.536647  0  3.87565  0
C  C84  1  0.58469889  0.90293717  0.15208747  1  0  -0.526615  0  3.625164  0  0  -0.550839  0  3.878984  0  0  -0.564107  0  3.89437  0  -0.330212  0  -0.229858  -0.542607  0  3.868847  0
C  C85  1  0.41530080  0.09706257  0.65208922  1  0  -0.526638  0  3.625169  0  0  -0.550873  0  3.878985  0  0  -0.564141  0  3.894372  0  -0.330188  0  -0.229869  -0.542639  0  3.868846  0
C  C86  1  0.03815819  0.25867747  0.25226073  1  0  -0.384145  0  3.675414  0  0  -0.465118  0  3.909266  0  0  -0.47037  0  3.913545  0  -0.109374  0  -0.235991  -0.46088  0  3.906054  0
C  C87  1  0.96183972  0.74132038  0.75226249  1  0  -0.384198  0  3.675344  0  0  -0.465195  0  3.909175  0  0  -0.470446  0  3.91345  0  -0.109348  0  -0.236024  -0.460957  0  3.905962  0
C  C88  1  0.76807739  0.29298564  0.88793633  1  0  -0.403456  0  3.695581  0  0  -0.485987  0  3.934662  0  0  -0.49102  0  3.937425  0  -0.05387  0  -0.241308  -0.482469  0  3.932387  0
C  C89  1  0.23192124  0.70701410  0.38793808  1  0  -0.40348  0  3.695645  0  0  -0.486011  0  3.934735  0  0  -0.491041  0  3.937495  0  -0.053874  0  -0.241353  -0.482493  0  3.932462  0
C  C90  1  0.41952952  0.28644841  0.29049152  1  0  0.148223  0  3.818915  0  0  0.17139  0  4.048331  0  0  0.174188  0  4.074508  0  -0.026527  0  -0.014231  0.169382  0  4.032398  0
C  C91  1  0.58047303  0.71355323  0.79049152  1  0  0.148249  0  3.818902  0  0  0.17144  0  4.048292  0  0  0.17424  0  4.074466  0  -0.049298  0  -0.01418  0.169432  0  4.032359  0
C  C92  1  0.36669542  0.29607267  0.40386779  1  0  -0.129292  0  3.732198  0  0  -0.146556  0  3.974086  0  0  -0.15046  0  3.995672  0  -0.076321  0  -0.097261  -0.143724  0  3.959826  0
C  C93  1  0.63331068  0.70392991  0.90386692  1  0  -0.129348  0  3.732355  0  0  -0.146657  0  3.974261  0  0  -0.15056  0  3.995845  0  -0.076446  0  -0.097292  -0.143823  0  3.959999  0
C  C94  1  0.41358407  0.41022454  0.46504196  1  0  -0.073479  0  3.799979  0  0  -0.084754  0  4.046793  0  0  -0.085661  0  4.068625  0  -0.105055  0  -0.095768  -0.084461  0  4.03256  0
C  C95  1  0.58642134  0.58977899  0.96504283  1  0  -0.073388  0  3.799928  0  0  -0.084705  0  4.046764  0  0  -0.085612  0  4.068596  0  -0.105407  0  -0.095765  -0.084412  0  4.03253  0
C  C96  1  0.51534735  0.51770771  0.41418396  1  0  -0.091106  0  3.799042  0  0  -0.107491  0  4.051923  0  0  -0.110571  0  4.074256  0  0.031098  0  -0.10035  -0.105366  0  4.03724  0
C  C97  1  0.48465663  0.48229487  0.91418483  1  0  -0.091079  0  3.79905  0  0  -0.107464  0  4.051941  0  0  -0.110545  0  4.074276  0  0.031296  0  -0.100329  -0.105341  0  4.03726  0
C  C98  1  0.56964283  0.50959008  0.30154887  1  0  -0.07324  0  3.808557  0  0  -0.084245  0  4.056986  0  0  -0.08516  0  4.078773  0  -0.098069  0  -0.096223  -0.083615  0  4.042368  0
C  C99  1  0.43035936  0.49041061  0.80155062  1  0  -0.073198  0  3.808681  0  0  -0.084215  0  4.057093  0  0  -0.08513  0  4.078882  0  -0.097721  0  -0.096245  -0.083586  0  4.042474  0
C  C100  1  0.52242681  0.39544105  0.24051471  1  0  -0.138537  0  3.725568  0  0  -0.157628  0  3.969705  0  0  -0.161703  0  3.991237  0  -0.104985  0  -0.097315  -0.155035  0  3.955662  0
C  C101  1  0.47757644  0.60455964  0.74051646  1  0  -0.138548  0  3.725722  0  0  -0.157636  0  3.969837  0  0  -0.161712  0  3.991371  0  -0.08262  0  -0.097315  -0.155042  0  3.955791  0
C  C102  1  0.72404072  0.89461052  0.20696903  1  0  0.150688  0  3.828821  0  0  0.17163  0  4.058794  0  0  0.17452  0  4.086063  0  -0.059041  0  -0.016607  0.170088  0  4.040107  0
C  C103  1  0.27595934  0.10539016  0.70696816  1  0  0.150807  0  3.828785  0  0  0.171783  0  4.058702  0  0  0.174677  0  4.085964  0  -0.058774  0  -0.016524  0.170239  0  4.040022  0
C  C104  1  0.72576327  0.85613335  0.32402583  1  0  -0.134569  0  3.718112  0  0  -0.153032  0  3.963704  0  0  -0.157278  0  3.985122  0  -0.01454  0  -0.09821  -0.151116  0  3.950379  0
C  C105  1  0.27423855  0.14386639  0.82402408  1  0  -0.134672  0  3.718153  0  0  -0.153154  0  3.963754  0  0  -0.157399  0  3.985171  0  -0.014661  0  -0.09828  -0.151244  0  3.950422  0
C  C106  1  0.85957046  0.85625914  0.37678535  1  0  -0.073064  0  3.803037  0  0  -0.085947  0  4.054101  0  0  -0.086855  0  4.0758  0  -0.067956  0  -0.09876  -0.085264  0  4.040131  0
C  C107  1  0.14043030  0.14374060  0.87678448  1  0  -0.073039  0  3.802902  0  0  -0.085932  0  4.053984  0  0  -0.086842  0  4.075684  0  -0.067908  0  -0.098728  -0.085251  0  4.040017  0
C  C108  1  0.99367573  0.89182236  0.31310062  1  0  -0.103937  0  3.805886  0  0  -0.120158  0  4.056408  0  0  -0.123609  0  4.079578  0  -0.074403  0  -0.106345  -0.118512  0  4.041152  0
C  C109  1  0.00632287  0.10817454  0.81309975  1  0  -0.10391  0  3.805755  0  0  -0.120132  0  4.056294  0  0  -0.123586  0  4.079467  0  -0.074353  0  -0.106354  -0.118486  0  4.041036  0
C  C110  1  0.99303975  0.92677840  0.19558441  1  0  -0.070591  0  3.78729  0  0  -0.080117  0  4.032987  0  0  -0.081018  0  4.054239  0  -0.124521  0  -0.096301  -0.07905  0  4.017972  0
C  C111  1  0.00696028  0.07321946  0.69558354  1  0  -0.070485  0  3.787162  0  0  -0.080024  0  4.032885  0  0  -0.080927  0  4.054141  0  -0.124507  0  -0.096295  -0.078951  0  4.01787  0
C  C112  1  0.85980857  0.92922040  0.14390035  1  0  -0.136639  0  3.736679  0  0  -0.152831  0  3.978389  0  0  -0.157621  0  4.000994  0  -0.065202  0  -0.099078  -0.148986  0  3.962212  0
C  C113  1  0.14019146  0.07077745  0.64389947  1  0  -0.136682  0  3.736716  0  0  -0.152896  0  3.978421  0  0  -0.157688  0  4.001023  0  -0.065179  0  -0.099063  -0.14905  0  3.962244  0
N  N114  1  0.76318960  0.18337824  0.26588640  1  0  -0.475003  0  3.163098  0  0  -0.397117  0  3.415252  0  0  -0.422285  0  3.433584  0  -1.225066  0  -0.335667  -0.379848  0  3.402571  0
N  N115  1  0.23680976  0.81662339  0.76588815  1  0  -0.475095  0  3.162852  0  0  -0.397186  0  3.414997  0  0  -0.422351  0  3.433324  0  -1.225006  0  -0.335725  -0.379918  0  3.40232  0
O  O116  1  0.52793044  0.03032171  0.38806146  1  0  -0.625882  0  2.025987  0  0  -0.558324  0  2.270817  0  0  -0.585787  0  2.264343  0  -1.189953  0  -0.286621  -0.539997  0  2.274913  0
O  O117  1  0.47206856  0.96967898  0.88806847  1  0  -0.625967  0  2.025711  0  0  -0.558383  0  2.2706  0  0  -0.585851  0  2.264131  0  -1.190078  0  -0.286681  -0.54005  0  2.274684  0
O  O118  1  0.66931126  0.03812912  0.54878760  1  0  -0.618857  0  1.995953  0  0  -0.558868  0  2.237331  0  0  -0.585542  0  2.230442  0  -1.192595  0  -0.286476  -0.540117  0  2.241005  0
O  O119  1  0.33068631  0.96187062  0.04878935  1  0  -0.618936  0  1.996243  0  0  -0.55892  0  2.237687  0  0  -0.585591  0  2.230797  0  -1.192762  0  -0.286516  -0.540171  0  2.241365  0
O  O120  1  0.61408750  0.20377493  0.04911487  1  0  -0.57413  0  2.064301  0  0  -0.498627  0  2.304613  0  0  -0.52526  0  2.299306  0  -1.15771  0  -0.277409  -0.479985  0  2.307727  0
O  O121  1  0.38591113  0.79622481  0.54911662  1  0  -0.574141  0  2.064234  0  0  -0.498594  0  2.304542  0  0  -0.525246  0  2.299243  0  -1.157674  0  -0.277364  -0.479942  0  2.307647  0
