# generated using pymatgen
data_NaH9C7SO8
_symmetry_space_group_name_H-M   'P 1'
_cell_length_a   6.55346510
_cell_length_b   7.03476203
_cell_length_c   11.61754558
_cell_angle_alpha   78.07452436
_cell_angle_beta   83.73551355
_cell_angle_gamma   78.44275101
_symmetry_Int_Tables_number   1
_chemical_formula_structural   NaH9C7SO8
_chemical_formula_sum   'Na2 H18 C14 S2 O16'
_cell_volume   512.12577587
_cell_formula_units_Z   2
loop_
 _symmetry_equiv_pos_site_id
 _symmetry_equiv_pos_as_xyz
  1  'x, y, z'
loop_
 _atom_site_type_symbol
 _atom_site_label
 _atom_site_symmetry_multiplicity
 _atom_site_fract_x
 _atom_site_fract_y
 _atom_site_fract_z
 _atom_site_occupancy
 _atom_site_hle17_bader_spin_density
 _atom_site_hle17_ddec_charge
 _atom_site_hle17_ddec_spin_density
 _atom_site_hle17_ddec_sum_bond_order
 _atom_site_hle17_magmom
 _atom_site_hse06_10hf_bader_spin_density
 _atom_site_hse06_10hf_ddec_charge
 _atom_site_hse06_10hf_ddec_spin_density
 _atom_site_hse06_10hf_ddec_sum_bond_order
 _atom_site_hse06_10hf_magmom
 _atom_site_hse06_bader_spin_density
 _atom_site_hse06_ddec_charge
 _atom_site_hse06_ddec_spin_density
 _atom_site_hse06_ddec_sum_bond_order
 _atom_site_hse06_magmom
 _atom_site_pbe_bader_spin_density
 _atom_site_pbe_cm5_charge
 _atom_site_pbe_ddec_charge
 _atom_site_pbe_ddec_spin_density
 _atom_site_pbe_ddec_sum_bond_order
 _atom_site_pbe_magmom
Na  Na0  1  0.23976122  0.94068502  0.57735890  1  0  0.908074  0  0.364349  0  0  0.870308  0  0.50897  0  0  0.879704  0  0.487925  0  0  0.662828  0.863384  0  0.5241  0
Na  Na1  1  0.76023869  0.05931425  0.42264109  1  0  0.908072  0  0.364351  0  0  0.870299  0  0.508981  0  0  0.879696  0  0.487936  0  0  0.662819  0.863377  0  0.524112  0
H  H2  1  0.74928971  0.36831120  0.19641388  1  0  0.413412  0  0.869199  0  0  0.382729  0  0.945646  0  0  0.395571  0  0.931975  0  0  0.306022  0.373688  0  0.955187  0
H  H3  1  0.25071114  0.63169101  0.80358308  1  0  0.413386  0  0.8692  0  0  0.382678  0  0.945693  0  0  0.395545  0  0.931979  0  0  0.306015  0.373638  0  0.955229  0
H  H4  1  0.74568582  0.82227475  0.18914349  1  0  0.381226  0  0.898806  0  0  0.35431  0  0.972468  0  0  0.366033  0  0.960116  0  0  0.307085  0.346058  0  0.981057  0
H  H5  1  0.25431813  0.17772748  0.81085758  1  0  0.381152  0  0.898925  0  0  0.354236  0  0.97257  0  0  0.365954  0  0.960231  0  0  0.307081  0.345985  0  0.981159  0
H  H6  1  0.73876309  0.35241850  0.90176687  1  0  0.111829  0  0.943323  0  0  0.119746  0  1.009303  0  0  0.123651  0  1.004808  0  0  0.112841  0.116968  0  1.012437  0
H  H7  1  0.26123651  0.64758224  0.09823122  1  0  0.111829  0  0.943332  0  0  0.119752  0  1.009295  0  0  0.123656  0  1.0048  0  0  0.112837  0.116972  0  1.012432  0
H  H8  1  0.78110874  0.63029214  0.92668371  1  0  0.128507  0  0.939192  0  0  0.138631  0  0.996735  0  0  0.142669  0  0.99446  0  0  0.112609  0.135747  0  0.99855  0
H  H9  1  0.21888812  0.36970712  0.07331819  1  0  0.128518  0  0.939137  0  0  0.138641  0  0.996683  0  0  0.14268  0  0.994406  0  0  0.112592  0.135758  0  0.998499  0
H  H10  1  0.78274629  0.85700530  0.73019766  1  0  0.109385  0  0.93693  0  0  0.124051  0  0.990456  0  0  0.126923  0  0.988374  0  0  0.12136  0.121921  0  0.992038  0
H  H11  1  0.21724960  0.14299100  0.26980381  1  0  0.109417  0  0.936974  0  0  0.124085  0  0.990489  0  0  0.126958  0  0.988407  0  0  0.121383  0.121958  0  0.992075  0
H  H12  1  0.09258492  0.53843989  0.67913800  1  0  0.443238  0  0.842006  0  0  0.414861  0  0.899711  0  0  0.4245  0  0.885594  0  0  0.306307  0.408036  0  0.909709  0
H  H13  1  0.90741470  0.46156085  0.32086181  1  0  0.443265  0  0.84196  0  0  0.414891  0  0.899661  0  0  0.424531  0  0.885543  0  0  0.306329  0.408066  0  0.909658  0
H  H14  1  0.33923621  0.50794795  0.65987043  1  0  0.434906  0  0.862296  0  0  0.404609  0  0.923727  0  0  0.414757  0  0.908853  0  0  0.30297  0.397431  0  0.934251  0
H  H15  1  0.66076524  0.49205132  0.34013031  1  0  0.434901  0  0.862306  0  0  0.404604  0  0.923738  0  0  0.414752  0  0.908864  0  0  0.302955  0.397426  0  0.93426  0
H  H16  1  0.43828850  0.26342056  0.52149251  1  0  0.417857  0  0.890731  0  0  0.388194  0  0.953515  0  0  0.398448  0  0.938264  0  0  0.289755  0.380959  0  0.964276  0
H  H17  1  0.56171016  0.73657722  0.47850689  1  0  0.417931  0  0.890627  0  0  0.388218  0  0.953498  0  0  0.398477  0  0.938237  0  0  0.289759  0.380974  0  0.964265  0
H  H18  1  0.30321192  0.32348896  0.41247145  1  0  0.424117  0  0.872221  0  0  0.396011  0  0.931645  0  0  0.405428  0  0.917641  0  0  0.294043  0.389353  0  0.941538  0
H  H19  1  0.69678798  0.67651030  0.58752768  1  0  0.424129  0  0.872211  0  0  0.396021  0  0.931636  0  0  0.405439  0  0.917631  0  0  0.294041  0.389362  0  0.94153  0
C  C20  1  0.76259603  0.11819763  0.80479366  1  0  -0.172245  0  3.764238  0  0  -0.151699  0  4.033066  0  0  -0.163257  0  4.053996  0  0  -0.033396  -0.144365  0  4.01913  0
C  C21  1  0.23740234  0.88180163  0.19520642  1  0  -0.172243  0  3.764257  0  0  -0.15171  0  4.033129  0  0  -0.163268  0  4.054056  0  0  -0.033385  -0.144377  0  4.019193  0
C  C22  1  0.74643001  0.19513784  0.90681553  1  0  -0.001969  0  3.708802  0  0  -0.047384  0  3.972932  0  0  -0.037609  0  3.986601  0  0  -0.070963  -0.053584  0  3.963592  0
C  C23  1  0.25357143  0.80486142  0.09318349  1  0  -0.001967  0  3.708854  0  0  -0.047387  0  3.972967  0  0  -0.037615  0  3.986638  0  0  -0.07097  -0.053585  0  3.963622  0
C  C24  1  0.74244452  0.06955161  0.01752523  1  0  -0.245034  0  3.78652  0  0  -0.222827  0  4.026306  0  0  -0.240818  0  4.052355  0  0  -0.038529  -0.211173  0  4.009221  0
C  C25  1  0.25755666  0.93044914  0.98247706  1  0  -0.245119  0  3.786623  0  0  -0.222887  0  4.026371  0  0  -0.240876  0  4.052416  0  0  -0.038545  -0.211231  0  4.009281  0
C  C26  1  0.75638885  0.86349862  0.02375407  1  0  0.36215  0  3.777721  0  0  0.341706  0  4.040045  0  0  0.358643  0  4.055234  0  0  0.103843  0.330371  0  4.029714  0
C  C27  1  0.24361538  0.13650213  0.97624630  1  0  0.362249  0  3.777748  0  0  0.341761  0  4.04009  0  0  0.358699  0  4.055277  0  0  0.103852  0.330426  0  4.029759  0
C  C28  1  0.77000180  0.78857272  0.91937447  1  0  -0.181475  0  3.680908  0  0  -0.200855  0  3.943027  0  0  -0.209901  0  3.960218  0  0  -0.098585  -0.195155  0  3.931704  0
C  C29  1  0.22999813  0.21142655  0.08062723  1  0  -0.181455  0  3.680881  0  0  -0.200839  0  3.94301  0  0  -0.209886  0  3.960203  0  0  -0.098558  -0.195136  0  3.931689  0
C  C30  1  0.77192727  0.91475261  0.81107030  1  0  -0.003159  0  3.722345  0  0  -0.036531  0  3.981565  0  0  -0.028924  0  3.996787  0  0  -0.068181  -0.041194  0  3.971163  0
C  C31  1  0.22807265  0.08524665  0.18893054  1  0  -0.003223  0  3.722513  0  0  -0.036597  0  3.981744  0  0  -0.028994  0  3.996977  0  0  -0.068223  -0.041261  0  3.971344  0
C  C32  1  0.73238938  0.14411039  0.12750539  1  0  0.6738  0  3.824686  0  0  0.623903  0  4.117774  0  0  0.657973  0  4.111437  0  0  0.231408  0.6008  0  4.121735  0
C  C33  1  0.26761148  0.85589183  0.87249330  1  0  0.673749  0  3.824728  0  0  0.623878  0  4.117792  0  0  0.65795  0  4.111456  0  0  0.231395  0.600777  0  4.121747  0
S  S34  1  0.76931610  0.27406678  0.66445566  1  0  1.350686  0  5.595666  0  0  1.248112  0  6.118249  0  0  1.296018  0  6.093708  0  0  0.533452  1.215128  0  6.134251  0
S  S35  1  0.23068102  0.72593099  0.33554383  1  0  1.35074  0  5.595833  0  0  1.248146  0  6.118431  0  0  1.296057  0  6.093885  0  0  0.53347  1.215163  0  6.134431  0
O  O36  1  0.89974191  0.15443320  0.58484947  1  0  -0.748644  0  1.967151  0  0  -0.707617  0  2.234822  0  0  -0.726273  0  2.216478  0  0  -0.422995  -0.694422  0  2.247007  0
O  O37  1  0.10025580  0.84556162  0.41515122  1  0  -0.748669  0  1.967176  0  0  -0.707642  0  2.234857  0  0  -0.7263  0  2.21652  0  0  -0.423008  -0.694448  0  2.247044  0
O  O38  1  0.85065442  0.44900518  0.67744726  1  0  -0.680285  0  1.957635  0  0  -0.616744  0  2.189514  0  0  -0.638219  0  2.173459  0  0  -0.325569  -0.601666  0  2.200133  0
O  O39  1  0.14934548  0.55099408  0.32255186  1  0  -0.680312  0  1.957744  0  0  -0.616757  0  2.189614  0  0  -0.638242  0  2.173565  0  0  -0.325577  -0.60168  0  2.200232  0
O  O40  1  0.55059422  0.33267020  0.62971348  1  0  -0.706721  0  2.024318  0  0  -0.638183  0  2.260591  0  0  -0.660755  0  2.244776  0  0  -0.328519  -0.622277  0  2.271081  0
O  O41  1  0.44940568  0.66732906  0.37028564  1  0  -0.706749  0  2.024366  0  0  -0.638166  0  2.260638  0  0  -0.66074  0  2.24482  0  0  -0.328513  -0.622253  0  2.27111  0
O  O42  1  0.72788614  0.33499003  0.11610051  1  0  -0.535228  0  2.105883  0  0  -0.483262  0  2.323923  0  0  -0.506265  0  2.311695  0  0  -0.318072  -0.467314  0  2.332059  0
O  O43  1  0.27211626  0.66501219  0.88389808  1  0  -0.535163  0  2.10584  0  0  -0.483206  0  2.323901  0  0  -0.506227  0  2.311646  0  0  -0.318036  -0.467252  0  2.332017  0
O  O44  1  0.73079039  0.02972994  0.22645241  1  0  -0.630764  0  1.995734  0  0  -0.586363  0  2.226149  0  0  -0.607795  0  2.216399  0  0  -0.348194  -0.571759  0  2.232758  0
O  O45  1  0.26921047  0.97027228  0.77354628  1  0  -0.630683  0  1.995839  0  0  -0.586311  0  2.22626  0  0  -0.607742  0  2.21651  0  0  -0.348194  -0.571707  0  2.232864  0
O  O46  1  0.75916146  0.73711296  0.12706111  1  0  -0.494649  0  2.140842  0  0  -0.443985  0  2.360409  0  0  -0.464984  0  2.353017  0  0  -0.336033  -0.429126  0  2.36502  0
O  O47  1  0.24084279  0.26288779  0.87294012  1  0  -0.494694  0  2.141016  0  0  -0.443961  0  2.360554  0  0  -0.464957  0  2.353161  0  0  -0.336046  -0.429104  0  2.365164  0
O  O48  1  0.21287151  0.60390461  0.67886868  1  0  -0.851014  0  1.85313  0  0  -0.80473  0  2.026291  0  0  -0.822758  0  1.995294  0  0  -0.608757  -0.792004  0  2.047877  0
O  O49  1  0.78712811  0.39609613  0.32113114  1  0  -0.851058  0  1.853096  0  0  -0.804789  0  2.026246  0  0  -0.822804  0  1.995259  0  0  -0.608769  -0.792062  0  2.047832  0
O  O50  1  0.38625279  0.20838923  0.46077623  1  0  -0.907962  0  1.748477  0  0  -0.866951  0  1.914323  0  0  -0.882726  0  1.882923  0  0  -0.686712  -0.855777  0  1.936283  0
O  O51  1  0.61374557  0.79161003  0.53922213  1  0  -0.90804  0  1.748329  0  0  -0.867001  0  1.914216  0  0  -0.882781  0  1.882812  0  0  -0.686719  -0.855814  0  1.936208  0
