# generated using pymatgen
data_AgPH16C20SNO3
_symmetry_space_group_name_H-M   'P 1'
_cell_length_a   8.50522382
_cell_length_b   11.27315724
_cell_length_c   11.52333253
_cell_angle_alpha   90.72965848
_cell_angle_beta   106.58960479
_cell_angle_gamma   103.59361572
_symmetry_Int_Tables_number   1
_chemical_formula_structural   AgPH16C20SNO3
_chemical_formula_sum   'Ag2 P2 H32 C40 S2 N2 O6'
_cell_volume   1025.42546344
_cell_formula_units_Z   2
loop_
 _symmetry_equiv_pos_site_id
 _symmetry_equiv_pos_as_xyz
  1  'x, y, z'
loop_
 _atom_site_type_symbol
 _atom_site_label
 _atom_site_symmetry_multiplicity
 _atom_site_fract_x
 _atom_site_fract_y
 _atom_site_fract_z
 _atom_site_occupancy
 _atom_site_hle17_bader_spin_density
 _atom_site_hle17_ddec_charge
 _atom_site_hle17_ddec_spin_density
 _atom_site_hle17_ddec_sum_bond_order
 _atom_site_hle17_magmom
 _atom_site_hse06_10hf_bader_spin_density
 _atom_site_hse06_10hf_ddec_charge
 _atom_site_hse06_10hf_ddec_spin_density
 _atom_site_hse06_10hf_ddec_sum_bond_order
 _atom_site_hse06_10hf_magmom
 _atom_site_hse06_bader_spin_density
 _atom_site_hse06_ddec_charge
 _atom_site_hse06_ddec_spin_density
 _atom_site_hse06_ddec_sum_bond_order
 _atom_site_hse06_magmom
 _atom_site_pbe_bader_spin_density
 _atom_site_pbe_cm5_charge
 _atom_site_pbe_ddec_charge
 _atom_site_pbe_ddec_spin_density
 _atom_site_pbe_ddec_sum_bond_order
 _atom_site_pbe_magmom
Ag  Ag0  1  0.68778975  0.48678938  0.73654497  1  0  0.407403  0  1.622342  0  0  0.290178  0  2.061032  0  0  0.309272  0  2.022599  0  0  0.46212  0.2768  0  2.087773  0
Ag  Ag1  1  0.31221894  0.51321371  0.26345560  1  0  0.407362  0  1.622381  0  0  0.290161  0  2.061081  0  0  0.309256  0  2.022647  0  0  0.462146  0.276783  0  2.087823  0
P  P2  1  0.81332293  0.60656367  0.92097787  1  0  0.320934  0  3.780081  0  0  0.290998  0  4.242043  0  0  0.297899  0  4.241048  0  0  -0.021195  0.286432  0  4.242157  0
P  P3  1  0.18668391  0.39344490  0.07902067  1  0  0.320987  0  3.780118  0  0  0.29103  0  4.242095  0  0  0.297933  0  4.241102  0  0  -0.021187  0.286469  0  4.242212  0
H  H4  1  0.85090502  0.04122041  0.57431007  1  0  0.103222  0  0.937931  0  0  0.113336  0  0.997751  0  0  0.117001  0  0.995326  0  0  0.109705  0.110632  0  0.999671  0
H  H5  1  0.14909538  0.95877621  0.42569035  1  0  0.103248  0  0.937927  0  0  0.11338  0  0.997723  0  0  0.117046  0  0.995297  0  0  0.109715  0.110682  0  0.999644  0
H  H6  1  0.72175670  0.90358185  0.38099803  1  0  0.09782  0  0.949538  0  0  0.108868  0  1.007887  0  0  0.111971  0  1.006291  0  0  0.106036  0.106677  0  1.009073  0
H  H7  1  0.27824989  0.09641851  0.61899771  1  0  0.097811  0  0.949512  0  0  0.108917  0  1.00782  0  0  0.112021  0  1.006222  0  0  0.106033  0.106721  0  1.009016  0
H  H8  1  0.49047896  0.94946203  0.21577782  1  0  0.084992  0  0.974634  0  0  0.094533  0  1.039627  0  0  0.097068  0  1.039139  0  0  0.100751  0.09263  0  1.040211  0
H  H9  1  0.50952118  0.05053370  0.78421906  1  0  0.084971  0  0.97468  0  0  0.094514  0  1.039669  0  0  0.097043  0  1.039178  0  0  0.10077  0.09261  0  1.040252  0
H  H10  1  0.37313347  0.12867193  0.24262215  1  0  0.100152  0  0.95418  0  0  0.108793  0  1.018871  0  0  0.111744  0  1.017716  0  0  0.106303  0.106627  0  1.019869  0
H  H11  1  0.62685402  0.87131543  0.75738055  1  0  0.100059  0  0.954314  0  0  0.10867  0  1.019035  0  0  0.11162  0  1.017881  0  0  0.106227  0.106506  0  1.02003  0
H  H12  1  0.87802632  0.72736615  0.71246619  1  0  0.087859  0  0.992938  0  0  0.09328  0  1.067304  0  0  0.097314  0  1.063392  0  0  0.091174  0.090349  0  1.070155  0
H  H13  1  0.12197743  0.27264055  0.28753426  1  0  0.087813  0  0.992997  0  0  0.093237  0  1.067355  0  0  0.09727  0  1.063444  0  0  0.091129  0.090309  0  1.070203  0
H  H14  1  0.06490400  0.92450715  0.69068420  1  0  0.08332  0  0.969244  0  0  0.09678  0  1.025239  0  0  0.098645  0  1.025545  0  0  0.097432  0.095425  0  1.025141  0
H  H15  1  0.93509456  0.07549862  0.30931165  1  0  0.083192  0  0.96921  0  0  0.096681  0  1.025189  0  0  0.098545  0  1.025497  0  0  0.097393  0.095326  0  1.02509  0
H  H16  1  0.24757574  0.06312103  0.87480174  1  0  0.084594  0  0.96993  0  0  0.095032  0  1.032514  0  0  0.096544  0  1.033732  0  0  0.096825  0.093898  0  1.03185  0
H  H17  1  0.75242126  0.93688380  0.12519636  1  0  0.084626  0  0.969921  0  0  0.095039  0  1.032528  0  0  0.096546  0  1.033742  0  0  0.096851  0.093907  0  1.031859  0
H  H18  1  0.24101941  0.00137120  0.07970745  1  0  0.080051  0  0.96619  0  0  0.095651  0  1.021218  0  0  0.097474  0  1.021504  0  0  0.099095  0.094351  0  1.021103  0
H  H19  1  0.75898526  0.99863825  0.92029238  1  0  0.080034  0  0.966368  0  0  0.095659  0  1.021358  0  0  0.097483  0  1.021645  0  0  0.09911  0.094369  0  1.021234  0
H  H20  1  0.05656500  0.80467773  0.10378847  1  0  0.107902  0  0.981113  0  0  0.119153  0  1.043175  0  0  0.122  0  1.041451  0  0  0.103922  0.117048  0  1.044505  0
H  H21  1  0.94343809  0.19533076  0.89621621  1  0  0.107908  0  0.981132  0  0  0.119175  0  1.043182  0  0  0.122019  0  1.041468  0  0  0.10394  0.117075  0  1.044493  0
H  H22  1  0.49350961  0.66562188  0.82787505  1  0  0.091501  0  0.971509  0  0  0.100531  0  1.037752  0  0  0.103422  0  1.036266  0  0  0.097541  0.098409  0  1.038863  0
H  H23  1  0.50648710  0.33438204  0.17212210  1  0  0.091518  0  0.971513  0  0  0.10053  0  1.037779  0  0  0.10342  0  1.036291  0  0  0.097531  0.098406  0  1.038891  0
H  H24  1  0.30702700  0.74341764  0.92543467  1  0  0.090288  0  0.968465  0  0  0.101145  0  1.02749  0  0  0.102822  0  1.029001  0  0  0.098899  0.099949  0  1.026513  0
H  H25  1  0.69297121  0.25658352  0.07456797  1  0  0.090302  0  0.968441  0  0  0.101159  0  1.027468  0  0  0.102836  0  1.028979  0  0  0.098897  0.099964  0  1.02649  0
H  H26  1  0.37077428  0.75581564  0.15034765  1  0  0.087334  0  0.972692  0  0  0.096129  0  1.039445  0  0  0.098517  0  1.038481  0  0  0.097318  0.094303  0  1.04043  0
H  H27  1  0.62922794  0.24418279  0.84965666  1  0  0.087335  0  0.97272  0  0  0.096131  0  1.039453  0  0  0.098527  0  1.03849  0  0  0.097293  0.094305  0  1.040437  0
H  H28  1  0.63263612  0.70368615  0.27915707  1  0  0.100561  0  0.956289  0  0  0.111168  0  1.014659  0  0  0.114232  0  1.013021  0  0  0.101563  0.108939  0  1.015911  0
H  H29  1  0.36736679  0.29631053  0.72083868  1  0  0.100613  0  0.956277  0  0  0.111175  0  1.014706  0  0  0.114262  0  1.013043  0  0  0.10157  0.108944  0  1.015955  0
H  H30  1  0.82892847  0.64134012  0.18376922  1  0  0.107586  0  0.947766  0  0  0.122535  0  1.00021  0  0  0.125243  0  0.998983  0  0  0.108311  0.120626  0  1.001152  0
H  H31  1  0.17107505  0.35866205  0.81622589  1  0  0.107545  0  0.947829  0  0  0.122507  0  1.000251  0  0  0.125216  0  0.99902  0  0  0.108299  0.120598  0  1.001193  0
H  H32  1  0.02482294  0.58970420  0.11092764  1  0  0.105033  0  0.975873  0  0  0.115065  0  1.053288  0  0  0.117925  0  1.050274  0  0  0.096009  0.11287  0  1.055654  0
H  H33  1  0.97517744  0.41029973  0.88907203  1  0  0.105052  0  0.975855  0  0  0.115081  0  1.053265  0  0  0.117941  0  1.050254  0  0  0.096012  0.112885  0  1.055633  0
H  H34  1  0.85857651  0.45429139  0.06012816  1  0  0.108635  0  0.949871  0  0  0.127443  0  1.006162  0  0  0.128122  0  1.008166  0  0  0.101357  0.127019  0  1.004569  0
H  H35  1  0.14142328  0.54571439  0.93986882  1  0  0.108584  0  0.949908  0  0  0.127395  0  1.0062  0  0  0.128074  0  1.008204  0  0  0.101345  0.126971  0  1.004608  0
C  C36  1  0.74184416  0.25457024  0.62097107  1  0  0.5469  0  3.904684  0  0  0.505687  0  4.187615  0  0  0.535587  0  4.187637  0  0  0.22304  0.485383  0  4.187078  0
C  C37  1  0.25814980  0.74542541  0.37902796  1  0  0.546939  0  3.904875  0  0  0.505777  0  4.187709  0  0  0.535679  0  4.187728  0  0  0.223035  0.485475  0  4.187175  0
C  C38  1  0.68630399  0.16149711  0.51404790  1  0  -0.059552  0  3.800398  0  0  -0.043383  0  4.025041  0  0  -0.049261  0  4.049452  0  0  -0.009757  -0.03953  0  4.008667  0
C  C39  1  0.31368622  0.83849481  0.48595807  1  0  -0.059674  0  3.800448  0  0  -0.043469  0  4.025006  0  0  -0.049344  0  4.049414  0  0  -0.009893  -0.039619  0  4.008641  0
C  C40  1  0.74882571  0.06019154  0.50082984  1  0  -0.049644  0  3.702594  0  0  -0.071483  0  3.949948  0  0  -0.07149  0  3.968265  0  0  -0.07143  -0.071482  0  3.937697  0
C  C41  1  0.25116824  0.93980045  0.49917172  1  0  -0.049693  0  3.702666  0  0  -0.071562  0  3.950004  0  0  -0.071572  0  3.968321  0  0  -0.07144  -0.071567  0  3.93776  0
C  C42  1  0.67611889  0.98420450  0.39256952  1  0  -0.05942  0  3.731007  0  0  -0.077946  0  3.9911  0  0  -0.07895  0  4.010383  0  0  -0.080612  -0.077289  0  3.978069  0
C  C43  1  0.32387815  0.01578935  0.60743013  1  0  -0.059406  0  3.731052  0  0  -0.077997  0  3.991166  0  0  -0.079001  0  4.010447  0  0  -0.0806  -0.07734  0  3.978134  0
C  C44  1  0.54390428  0.00940777  0.29964988  1  0  -0.050061  0  3.720257  0  0  -0.066324  0  3.975949  0  0  -0.067786  0  3.996034  0  0  -0.079649  -0.065237  0  3.962427  0
C  C45  1  0.45608815  0.99058330  0.70034960  1  0  -0.050093  0  3.720334  0  0  -0.066351  0  3.976048  0  0  -0.067805  0  3.996125  0  0  -0.07968  -0.065263  0  3.962524  0
C  C46  1  0.47862736  0.10991314  0.31316191  1  0  -0.057886  0  3.739093  0  0  -0.080654  0  3.987625  0  0  -0.080651  0  4.006646  0  0  -0.078883  -0.080674  0  3.974812  0
C  C47  1  0.52136534  0.89007882  0.68684112  1  0  -0.0577  0  3.739061  0  0  -0.080445  0  3.987602  0  0  -0.08044  0  4.006622  0  0  -0.078782  -0.080468  0  3.974794  0
C  C48  1  0.55286719  0.18393775  0.42128055  1  0  -0.130331  0  3.770828  0  0  -0.109233  0  4.008877  0  0  -0.114834  0  4.032036  0  0  -0.013417  -0.105468  0  3.99329  0
C  C49  1  0.44711936  0.81605050  0.57872371  1  0  -0.130376  0  3.770566  0  0  -0.109273  0  4.008553  0  0  -0.114876  0  4.031718  0  0  -0.013398  -0.105505  0  3.992972  0
C  C50  1  0.95557016  0.75176960  0.90934671  1  0  -0.107717  0  3.772387  0  0  -0.070003  0  4.010905  0  0  -0.076427  0  4.039142  0  0  -0.03091  -0.065819  0  3.991482  0
C  C51  1  0.04443545  0.24823530  0.09065324  1  0  -0.107924  0  3.772337  0  0  -0.07022  0  4.010884  0  0  -0.076645  0  4.039119  0  0  -0.031006  -0.06604  0  3.991462  0
C  C52  1  0.95836119  0.78689025  0.79345976  1  0  -0.092708  0  3.778329  0  0  -0.108945  0  4.016828  0  0  -0.11036  0  4.038999  0  0  -0.091776  -0.107856  0  4.001803  0
C  C53  1  0.04164656  0.21311740  0.20654070  1  0  -0.092641  0  3.778115  0  0  -0.108872  0  4.01662  0  0  -0.110287  0  4.03879  0  0  -0.0917  -0.107787  0  4.001588  0
C  C54  1  0.06298335  0.89869913  0.78113079  1  0  -0.070106  0  3.772285  0  0  -0.079514  0  4.010265  0  0  -0.083222  0  4.033768  0  0  -0.092198  -0.076994  0  3.994404  0
C  C55  1  0.93702013  0.10130667  0.21886611  1  0  -0.069934  0  3.771946  0  0  -0.079374  0  4.00994  0  0  -0.083081  0  4.033441  0  0  -0.092162  -0.076853  0  3.994077  0
C  C56  1  0.16598931  0.97559836  0.88403105  1  0  -0.058698  0  3.752457  0  0  -0.071167  0  3.996725  0  0  -0.071546  0  4.018154  0  0  -0.085108  -0.070877  0  3.982158  0
C  C57  1  0.83401720  0.02440560  0.11597254  1  0  -0.0587  0  3.752427  0  0  -0.071136  0  3.996704  0  0  -0.071505  0  4.018126  0  0  -0.08511  -0.070846  0  3.982139  0
C  C58  1  0.16297156  0.94052207  0.99943726  1  0  -0.065126  0  3.766011  0  0  -0.076525  0  4.011587  0  0  -0.079796  0  4.033922  0  0  -0.088305  -0.074216  0  3.996064  0
C  C59  1  0.83703562  0.05948010  0.00056210  1  0  -0.065217  0  3.76633  0  0  -0.076647  0  4.01191  0  0  -0.079921  0  4.034246  0  0  -0.08837  -0.074349  0  3.996385  0
C  C60  1  0.05800517  0.82962565  0.01289841  1  0  -0.072799  0  3.717833  0  0  -0.0937  0  3.960048  0  0  -0.094665  0  3.982309  0  0  -0.084968  -0.09255  0  3.944473  0
C  C61  1  0.94200045  0.17037558  0.98710234  1  0  -0.072684  0  3.717977  0  0  -0.093595  0  3.960181  0  0  -0.094568  0  3.982456  0  0  -0.084972  -0.092449  0  3.944627  0
C  C62  1  0.67458194  0.65009878  0.99887674  1  0  -0.094024  0  3.757059  0  0  -0.057681  0  3.994909  0  0  -0.062987  0  4.022292  0  0  -0.024598  -0.054187  0  3.976577  0
C  C63  1  0.32541447  0.34990423  0.00111947  1  0  -0.094027  0  3.757144  0  0  -0.057647  0  3.994941  0  0  -0.062958  0  4.022328  0  0  -0.024567  -0.05417  0  3.976627  0
C  C64  1  0.52619939  0.67768925  0.92680702  1  0  -0.078432  0  3.746786  0  0  -0.096487  0  3.987161  0  0  -0.098229  0  4.00949  0  0  -0.085153  -0.095102  0  3.971976  0
C  C65  1  0.47379639  0.32231190  0.07319249  1  0  -0.07833  0  3.746819  0  0  -0.096383  0  3.987148  0  0  -0.09812  0  4.009474  0  0  -0.085092  -0.094994  0  3.971967  0
C  C66  1  0.41967802  0.71865706  0.98146220  1  0  -0.074417  0  3.769245  0  0  -0.082783  0  4.009659  0  0  -0.085577  0  4.032251  0  0  -0.094376  -0.080901  0  3.994273  0
C  C67  1  0.58032234  0.28134685  0.01854008  1  0  -0.074551  0  3.769309  0  0  -0.082919  0  4.009734  0  0  -0.08571  0  4.032322  0  0  -0.094442  -0.081036  0  3.994342  0
C  C68  1  0.45700695  0.72727917  0.10808288  1  0  -0.086752  0  3.788796  0  0  -0.099012  0  4.040126  0  0  -0.100104  0  4.060596  0  0  -0.096085  -0.098121  0  4.026402  0
C  C69  1  0.54299435  0.27272019  0.89191952  1  0  -0.086726  0  3.788808  0  0  -0.098987  0  4.040133  0  0  -0.100087  0  4.060613  0  0  -0.096063  -0.098094  0  4.026402  0
C  C70  1  0.60312942  0.69759659  0.18024135  1  0  -0.086871  0  3.767827  0  0  -0.095442  0  4.015835  0  0  -0.098409  0  4.036211  0  0  -0.09443  -0.093365  0  4.002074  0
C  C71  1  0.39687684  0.30240649  0.81975610  1  0  -0.086958  0  3.767853  0  0  -0.095512  0  4.015848  0  0  -0.098496  0  4.036218  0  0  -0.094477  -0.09343  0  4.002084  0
C  C72  1  0.71316624  0.66051463  0.12603900  1  0  -0.057662  0  3.699742  0  0  -0.076804  0  3.935435  0  0  -0.077724  0  3.957226  0  0  -0.078279  -0.076167  0  3.920804  0
C  C73  1  0.28683850  0.33948754  0.87395724  1  0  -0.057572  0  3.699813  0  0  -0.076708  0  3.935426  0  0  -0.077625  0  3.957223  0  0  -0.078213  -0.076066  0  3.920799  0
C  C74  1  0.94594979  0.52709841  0.03042125  1  0  -0.262777  0  3.684915  0  0  -0.283082  0  3.925557  0  0  -0.287777  0  3.939506  0  0  -0.169278  -0.279603  0  3.915534  0
C  C75  1  0.05405336  0.47290646  0.96957817  1  0  -0.262708  0  3.68502  0  0  -0.283053  0  3.925754  0  0  -0.28775  0  3.939708  0  0  -0.169244  -0.279572  0  3.915731  0
S  S76  1  0.50208642  0.31613363  0.46977823  1  0  1.218134  0  5.410858  0  0  1.13196  0  5.91428  0  0  1.176457  0  5.901336  0  0  0.544952  1.1012  0  5.922079  0
S  S77  1  0.49790753  0.68385836  0.53022333  1  0  1.218264  0  5.410613  0  0  1.132096  0  5.914021  0  0  1.176593  0  5.901078  0  0  0.545068  1.101336  0  5.921827  0
N  N78  1  0.64700081  0.33978319  0.60271489  1  0  -0.652325  0  3.096563  0  0  -0.572619  0  3.412285  0  0  -0.60136  0  3.411097  0  0  -0.429489  -0.55279  0  3.41258  0
N  N79  1  0.35299217  0.66021334  0.39728914  1  0  -0.652242  0  3.096544  0  0  -0.57261  0  3.412288  0  0  -0.601359  0  3.411106  0  0  -0.429499  -0.552781  0  3.412585  0
O  O80  1  0.53926318  0.41443434  0.39294244  1  0  -0.607324  0  1.978136  0  0  -0.553035  0  2.239498  0  0  -0.574127  0  2.223934  0  0  -0.327756  -0.538003  0  2.249551  0
O  O81  1  0.46073389  0.58555587  0.60705542  1  0  -0.607476  0  1.977994  0  0  -0.553161  0  2.239336  0  0  -0.574252  0  2.223766  0  0  -0.327816  -0.538134  0  2.2494  0
O  O82  1  0.33277490  0.28752252  0.48307040  1  0  -0.593029  0  1.893693  0  0  -0.546729  0  2.123763  0  0  -0.568414  0  2.113043  0  0  -0.314823  -0.531376  0  2.130551  0
O  O83  1  0.66722148  0.71247313  0.51693348  1  0  -0.593019  0  1.893715  0  0  -0.546729  0  2.123771  0  0  -0.568412  0  2.113048  0  0  -0.314855  -0.531376  0  2.130562  0
O  O84  1  0.85824028  0.25398262  0.71475003  1  0  -0.546562  0  1.932386  0  0  -0.505708  0  2.153474  0  0  -0.52556  0  2.145327  0  0  -0.299877  -0.491953  0  2.158773  0
O  O85  1  0.14176134  0.74601400  0.28525239  1  0  -0.546512  0  1.932628  0  0  -0.505669  0  2.153683  0  0  -0.525519  0  2.145533  0  0  -0.299795  -0.491914  0  2.158985  0
