# generated using pymatgen
data_Pr3Cu7H45C53I7(N6O11)2
_symmetry_space_group_name_H-M   'P 1'
_cell_length_a   14.95838520
_cell_length_b   16.49555435
_cell_length_c   17.94864091
_cell_angle_alpha   115.03636072
_cell_angle_beta   101.96654995
_cell_angle_gamma   90.65859788
_symmetry_Int_Tables_number   1
_chemical_formula_structural   Pr3Cu7H45C53I7(N6O11)2
_chemical_formula_sum   'Pr6 Cu14 H90 C106 I14 N24 O44'
_cell_volume   3900.75905180
_cell_formula_units_Z   2
loop_
 _symmetry_equiv_pos_site_id
 _symmetry_equiv_pos_as_xyz
  1  'x, y, z'
loop_
 _atom_site_type_symbol
 _atom_site_label
 _atom_site_symmetry_multiplicity
 _atom_site_fract_x
 _atom_site_fract_y
 _atom_site_fract_z
 _atom_site_occupancy
 _atom_site_pbe_bader_charge
 _atom_site_pbe_bader_spin_density
 _atom_site_pbe_cm5_charge
 _atom_site_pbe_ddec_charge
 _atom_site_pbe_ddec_spin_density
 _atom_site_pbe_ddec_sum_bond_order
 _atom_site_pbe_magmom
Pr  Pr0  1  0.97460235  0.39717140  0.54776733  1  2.299263  0  1.51042  2.174807  0  2.15621  0
Pr  Pr1  1  0.02539982  0.60282896  0.45223404  1  2.299282  0  1.510451  2.174833  0  2.15624  0
Pr  Pr2  1  0.75232428  0.28662585  0.62102660  1  2.261887  0  1.492902  2.08853  0  2.104396  0
Pr  Pr3  1  0.24767530  0.71336982  0.37896802  1  2.261843  0  1.492867  2.088463  0  2.104451  0
Pr  Pr4  1  0.50784137  0.40147499  0.54557705  1  2.286276  0  1.512233  2.159222  0  2.16297  0
Pr  Pr5  1  0.49215884  0.59852605  0.45442368  1  2.28625  0  1.512207  2.159258  0  2.162961  0
Cu  Cu6  1  0.56689133  0.71413990  0.08997951  1  0.413872  0  0.24448  0.177295  0  2.68436  0
Cu  Cu7  1  0.43310635  0.28585711  0.91001920  1  0.413829  0  0.244507  0.17738  0  2.684305  0
Cu  Cu8  1  0.72843913  0.80189809  0.17480879  1  0.403426  0  0.239229  0.151247  0  2.752315  0
Cu  Cu9  1  0.27155834  0.19810295  0.82519258  1  0.403406  0  0.239229  0.151275  0  2.752308  0
Cu  Cu10  1  0.78233788  0.80727781  0.01554609  1  0.431662  0  0.261079  0.224514  0  2.55074  0
Cu  Cu11  1  0.21766178  0.19271853  0.98445159  1  0.431627  0  0.261078  0.224483  0  2.550771  0
Cu  Cu12  1  0.92120028  0.98960270  0.92981490  1  0.39944  0  0.247124  0.166158  0  2.648836  0
Cu  Cu13  1  0.07879864  0.01039903  0.07018421  1  0.399417  0  0.247118  0.166113  0  2.648876  0
Cu  Cu14  1  0.79378961  0.07591598  0.00398575  1  0.398576  0  0.240077  0.132548  0  2.708358  0
Cu  Cu15  1  0.20620991  0.92408506  0.99601487  1  0.398564  0  0.240111  0.132564  0  2.70848  0
Cu  Cu16  1  0.66631420  0.09632639  0.87767738  1  0.393922  0  0.233466  0.131729  0  2.704221  0
Cu  Cu17  1  0.33368569  0.90367196  0.12232113  1  0.393894  0  0.233508  0.131774  0  2.704248  0
Cu  Cu18  1  0.58045715  0.17754578  0.99341372  1  0.404173  0  0.263571  0.187393  0  2.627923  0
Cu  Cu19  1  0.41954306  0.82245527  0.00658591  1  0.404136  0  0.263603  0.18741  0  2.628016  0
H  H20  1  0.98198713  0.23575126  0.65032897  1  0.520825  0  0.318495  0.334655  0  0.945829  0
H  H21  1  0.01800850  0.76424573  0.34967272  1  0.521007  0  0.318446  0.334598  0  0.945922  0
H  H22  1  0.07665101  0.21133040  0.71084125  1  0.480167  0  0.298521  0.303379  0  0.965194  0
H  H23  1  0.92334586  0.78867131  0.28916251  1  0.480146  0  0.2985  0.303339  0  0.965273  0
H  H24  1  0.75402048  0.33722217  0.81703018  1  0.516178  0  0.299062  0.304072  0  0.997569  0
H  H25  1  0.24598085  0.66277684  0.18297052  1  0.516157  0  0.29909  0.304102  0  0.99755  0
H  H26  1  0.82843741  0.34230955  0.91192510  1  0.497984  0  0.281617  0.270377  0  1.0612  0
H  H27  1  0.17156150  0.65769216  0.08807679  1  0.498051  0  0.281659  0.270453  0  1.06114  0
H  H28  1  0.50392856  0.21898075  0.60102013  1  0.509067  0  0.316651  0.329693  0  0.9508  0
H  H29  1  0.49606739  0.78101896  0.39897768  1  0.509108  0  0.316657  0.329726  0  0.95082  0
H  H30  1  0.47019347  0.19830793  0.67963717  1  0.484453  0  0.284202  0.291531  0  0.998388  0
H  H31  1  0.52980545  0.80169379  0.32036194  1  0.484428  0  0.284218  0.291573  0  0.99835  0
H  H32  1  0.29266272  0.42980223  0.57981890  1  0.498815  0  0.313848  0.325964  0  0.958846  0
H  H33  1  0.70733716  0.57019611  0.42018184  1  0.498797  0  0.313859  0.326004  0  0.958857  0
H  H34  1  0.19332407  0.36266285  0.57135460  1  0.541407  0  0.309166  0.315582  0  0.99029  0
H  H35  1  0.80667643  0.63733483  0.42864431  1  0.541401  0  0.309178  0.315594  0  0.990253  0
H  H36  1  0.79489068  0.11141945  0.18167184  1  0.071981  0  0.104126  0.079342  0  1.017478  0
H  H37  1  0.20510868  0.88858025  0.81832823  1  0.071995  0  0.10411  0.079327  0  1.017527  0
H  H38  1  0.82847244  0.24547857  0.32422984  1  0.132704  0  0.117752  0.131723  0  1.005728  0
H  H39  1  0.17152753  0.75452044  0.67577117  1  0.13274  0  0.11775  0.131688  0  1.005764  0
H  H40  1  0.86831412  0.41056089  0.19924559  1  0.112437  0  0.105662  0.111766  0  1.048387  0
H  H41  1  0.13168593  0.58943880  0.80075459  1  0.112213  0  0.105659  0.111773  0  1.048372  0
H  H42  1  0.83519753  0.27004743  0.06151702  1  0.084405  0  0.09971  0.070903  0  1.057638  0
H  H43  1  0.16480115  0.72995228  0.93848181  1  0.084435  0  0.099735  0.070925  0  1.057593  0
H  H44  1  0.94269646  0.80193868  0.90057789  1  0.116736  0  0.104713  0.078829  0  1.019004  0
H  H45  1  0.05730519  0.19806304  0.09942280  1  0.116728  0  0.104688  0.078786  0  1.019021  0
H  H46  1  0.93887844  0.65235549  0.77677256  1  0.110535  0  0.108143  0.11576  0  1.025296  0
H  H47  1  0.06111995  0.34764759  0.22322588  1  0.110483  0  0.108102  0.115744  0  1.025307  0
H  H48  1  0.88697874  0.78645742  0.61479244  1  0.093784  0  0.117777  0.129109  0  0.986329  0
H  H49  1  0.11302094  0.21354499  0.38520539  1  0.093774  0  0.117778  0.129114  0  0.986301  0
H  H50  1  0.88826838  0.93078660  0.74459600  1  0.109098  0  0.102968  0.07689  0  1.01764  0
H  H51  1  0.11172857  0.06921580  0.25540359  1  0.109185  0  0.103007  0.076979  0  1.017594  0
H  H52  1  0.85852973  0.95232838  0.20453997  1  0.133627  0  0.089346  0.07101  0  1.072861  0
H  H53  1  0.14146859  0.04767402  0.79545930  1  0.133669  0  0.089343  0.071018  0  1.072823  0
H  H54  1  0.91757350  0.10752182  0.31978453  1  0.108741  0  0.110705  0.119837  0  1.013074  0
H  H55  1  0.08242481  0.89248058  0.68021530  1  0.108703  0  0.110684  0.119782  0  1.013121  0
H  H56  1  0.77848136  0.04440237  0.47924699  1  0.115077  0  0.12201  0.128447  0  0.987847  0
H  H57  1  0.22152195  0.95559597  0.52075433  1  0.115318  0  0.122013  0.128459  0  0.987847  0
H  H58  1  0.72242275  0.89194769  0.35667200  1  0.087107  0  0.096204  0.068306  0  1.040862  0
H  H59  1  0.27757806  0.10805269  0.64332747  1  0.087084  0  0.096221  0.068343  0  1.040801  0
H  H60  1  0.20855627  0.51053544  0.93335994  1  0.057211  0  0.107855  0.07617  0  1.014697  0
H  H61  1  0.79144670  0.48947166  0.06664198  1  0.057186  0  0.107822  0.076187  0  1.014696  0
H  H62  1  0.10047821  0.41381983  0.79399339  1  0.109664  0  0.109598  0.122063  0  1.011585  0
H  H63  1  0.89952247  0.58618524  0.20601012  1  0.109562  0  0.109592  0.122024  0  1.011574  0
H  H64  1  0.89453127  0.59036297  0.87574851  1  0.109125  0  0.105771  0.110385  0  1.032362  0
H  H65  1  0.10546825  0.40963804  0.12425711  1  0.10912  0  0.105735  0.110305  0  1.032335  0
H  H66  1  0.01276882  0.68453232  0.00825832  1  0.093554  0  0.093247  0.070434  0  1.052631  0
H  H67  1  0.98723093  0.31547072  0.99174591  1  0.093674  0  0.093225  0.070405  0  1.05262  0
H  H68  1  0.52958938  0.94423627  0.19477975  1  0.125043  0  0.090264  0.069931  0  1.081117  0
H  H69  1  0.47041111  0.05576140  0.80522027  1  0.125073  0  0.090257  0.069926  0  1.081138  0
H  H70  1  0.63820219  0.06299851  0.32184297  1  0.123202  0  0.111333  0.125232  0  1.005684  0
H  H71  1  0.36179777  0.93700050  0.67815805  1  0.123199  0  0.111341  0.125266  0  1.00568  0
H  H72  1  0.40385011  0.16268725  0.42368489  1  0.114371  0  0.119413  0.134091  0  1.005194  0
H  H73  1  0.59614842  0.83731113  0.57631061  1  0.114333  0  0.119423  0.134155  0  1.005194  0
H  H74  1  0.30362268  0.03860623  0.29260902  1  0.099617  0  0.109374  0.081722  0  1.002062  0
H  H75  1  0.69637629  0.96139011  0.70738743  1  0.09961  0  0.109401  0.081756  0  1.00206  0
H  H76  1  0.71391098  0.59799831  0.03879092  1  0.103716  0  0.090053  0.064038  0  1.087912  0
H  H77  1  0.28609112  0.40200138  0.96120905  1  0.103728  0  0.090073  0.064026  0  1.087946  0
H  H78  1  0.73781885  0.48222534  0.90124509  1  0.077946  0  0.112545  0.124908  0  0.995309  0
H  H79  1  0.26218501  0.51777772  0.09875596  1  0.078042  0  0.112525  0.124933  0  0.995272  0
H  H80  1  0.44916252  0.47111544  0.79504281  1  0.12123  0  0.102905  0.118128  0  1.024676  0
H  H81  1  0.55083850  0.52888089  0.20495399  1  0.121243  0  0.102907  0.118109  0  1.024637  0
H  H82  1  0.43484870  0.57888836  0.94049064  1  0.083549  0  0.098445  0.067359  0  1.047328  0
H  H83  1  0.56515035  0.42110866  0.05950608  1  0.083506  0  0.098469  0.067386  0  1.047343  0
H  H84  1  0.52980946  0.13925100  0.12637616  1  0.13355  0  0.094135  0.077166  0  1.052013  0
H  H85  1  0.47019332  0.86074868  0.87362560  1  0.133513  0  0.094136  0.077172  0  1.052021  0
H  H86  1  0.53570261  0.22541318  0.28124913  1  0.096491  0  0.1102  0.118783  0  1.012453  0
H  H87  1  0.46429941  0.77458584  0.71875168  1  0.096384  0  0.110195  0.118767  0  1.012464  0
H  H88  1  0.66377685  0.45619249  0.27332062  1  0.090896  0  0.115512  0.125446  0  0.993039  0
H  H89  1  0.33622175  0.54380654  0.72667904  1  0.090889  0  0.1155  0.125473  0  0.992976  0
H  H90  1  0.65832312  0.35937489  0.12043731  1  0.09981  0  0.107598  0.074202  0  1.023168  0
H  H91  1  0.34167564  0.64062549  0.87956236  1  0.099898  0  0.1076  0.074233  0  1.023153  0
H  H92  1  0.75153282  0.62118000  0.87911528  1  0.069254  0  0.107923  0.073583  0  1.044027  0
H  H93  1  0.24846799  0.37882039  0.12088196  1  0.069273  0  0.107951  0.073623  0  1.044029  0
H  H94  1  0.68466517  0.54577540  0.72286866  1  0.145274  0  0.120816  0.133641  0  1.021427  0
H  H95  1  0.31533698  0.45421892  0.27712755  1  0.145358  0  0.120826  0.13368  0  1.021455  0
H  H96  1  0.66234236  0.80988357  0.73192755  1  0.115426  0  0.107057  0.114266  0  1.025766  0
H  H97  1  0.33765776  0.19011681  0.26807069  1  0.115388  0  0.10709  0.114323  0  1.025726  0
H  H98  1  0.73097294  0.87509862  0.88769723  1  0.06842  0  0.08922  0.065106  0  1.080147  0
H  H99  1  0.26902984  0.12490108  0.11230175  1  0.068485  0  0.089228  0.065119  0  1.080093  0
H  H100  1  0.73781912  0.47911732  0.53506732  1  0.121747  0  0.137785  0.055053  0  0.940253  0
H  H101  1  0.26218156  0.52088773  0.46493953  1  0.121692  0  0.137802  0.055078  0  0.940267  0
H  H102  1  0.18264485  0.25903836  0.65975271  1  0.105822  0  0.098169  0.011925  0  1.070025  0
H  H103  1  0.81735141  0.74096402  0.34025177  1  0.105727  0  0.098177  0.011963  0  1.069978  0
H  H104  1  0.93355612  0.26289688  0.83751821  1  0.091108  0  0.099809  0.03054  0  1.023322  0
H  H105  1  0.06644361  0.73710010  0.16248420  1  0.091243  0  0.099798  0.03054  0  1.023363  0
H  H106  1  0.60542585  0.13964795  0.71100848  1  0.106703  0  0.115251  0.033664  0  1.001371  0
H  H107  1  0.39457315  0.86035445  0.28899091  1  0.106616  0  0.115243  0.033659  0  1.001377  0
H  H108  1  0.27208766  0.24153759  0.55904411  1  0.095895  0  0.117687  0.029425  0  0.963941  0
H  H109  1  0.72791367  0.75846142  0.44095714  1  0.096063  0  0.117725  0.029467  0  0.963927  0
C  C110  1  0.81188614  0.17909249  0.18848738  1  0.497295  0  0.036603  0.085704  0  3.913743  0
C  C111  1  0.18811057  0.82090789  0.81151249  1  0.497376  0  0.03661  0.085697  0  3.913833  0
C  C112  1  0.82965789  0.25337427  0.26712230  1  -0.05842  0  -0.072616  -0.132628  0  3.916425  0
C  C113  1  0.17033934  0.74662475  0.73287824  1  -0.058732  0  -0.072581  -0.132502  0  3.916538  0
C  C114  1  0.85117549  0.33853015  0.27204532  1  -0.025122  0  0.001441  0.004595  0  3.925641  0
C  C115  1  0.14882312  0.66146888  0.72795379  1  -0.025185  0  0.001425  0.004492  0  3.925714  0
C  C116  1  0.85255387  0.34504243  0.19714699  1  -0.018609  0  -0.081095  -0.139762  0  3.955365  0
C  C117  1  0.14744670  0.65495592  0.80285275  1  -0.018314  0  -0.081082  -0.139731  0  3.955281  0
C  C118  1  0.83464536  0.26763754  0.12121203  1  0.474441  0  0.033592  0.075004  0  3.933893  0
C  C119  1  0.16535469  0.73236216  0.87878760  1  0.474455  0  0.033584  0.075017  0  3.933856  0
C  C120  1  0.87737123  0.42139627  0.35541826  1  1.588505  0  0.224889  0.625871  0  4.191701  0
C  C121  1  0.12262881  0.57860342  0.64458192  1  1.588496  0  0.224887  0.625906  0  4.191648  0
C  C122  1  0.92957340  0.79530112  0.83597977  1  0.407931  0  0.038659  0.091421  0  3.913043  0
C  C123  1  0.07042567  0.20470195  0.16402101  1  0.40787  0  0.038646  0.091414  0  3.913266  0
C  C124  1  0.92719685  0.71274407  0.76748394  1  -0.005539  0  -0.076981  -0.131948  0  3.939363  0
C  C125  1  0.07280002  0.28725766  0.23251482  1  -0.005565  0  -0.076951  -0.131951  0  3.939491  0
C  C126  1  0.91208935  0.70831782  0.68631053  1  0.002021  0  0.004753  0.00941  0  3.913038  0
C  C127  1  0.08790965  0.29168458  0.31368830  1  0.001831  0  0.004776  0.009504  0  3.912961  0
C  C128  1  0.89775675  0.78767213  0.67719480  1  -0.009995  0  -0.071414  -0.12514  0  3.9264  0
C  C129  1  0.10224209  0.21232893  0.32280292  1  -0.009888  0  -0.071415  -0.125156  0  3.92639  0
C  C130  1  0.89943271  0.86729998  0.74866152  1  0.426954  0  0.034577  0.074135  0  3.941107  0
C  C131  1  0.10056561  0.13270242  0.25133719  1  0.426965  0  0.034561  0.074024  0  3.941295  0
C  C132  1  0.91780000  0.62189649  0.61134468  1  1.598427  0  0.233019  0.632928  0  4.184637  0
C  C133  1  0.08219679  0.37810457  0.38865325  1  1.598837  0  0.233041  0.632955  0  4.184555  0
C  C134  1  0.84213065  0.97557015  0.26632003  1  0.429697  0  0.030184  0.079023  0  3.930363  0
C  C135  1  0.15786956  0.02443090  0.73367960  1  0.429479  0  0.030203  0.079054  0  3.930376  0
C  C136  1  0.87494739  0.06111093  0.33019667  1  -0.019407  0  -0.077332  -0.133538  0  3.928596  0
C  C137  1  0.12505350  0.93889013  0.66980140  1  -0.019159  0  -0.077289  -0.133467  0  3.928669  0
C  C138  1  0.85166576  0.08763682  0.40816227  1  -0.037816  0  0.006578  0.013027  0  3.918542  0
C  C139  1  0.14833300  0.91236356  0.59183629  1  -0.037903  0  0.006536  0.01295  0  3.91865  0
C  C140  1  0.79769510  0.02572609  0.41928940  1  0.023923  0  -0.070777  -0.126945  0  3.942609  0
C  C141  1  0.20230571  0.97427428  0.58070951  1  0.023679  0  -0.070705  -0.126825  0  3.942539  0
C  C142  1  0.76667651  0.94186480  0.35190689  1  0.429458  0  0.03286  0.074859  0  3.947509  0
C  C143  1  0.23332361  0.05813557  0.64809246  1  0.429418  0  0.032865  0.074823  0  3.947411  0
C  C144  1  0.88037985  0.18165133  0.47662807  1  1.596844  0  0.236576  0.63928  0  4.157209  0
C  C145  1  0.11962317  0.81835039  0.52337119  1  1.596822  0  0.236458  0.639122  0  4.15725  0
C  C146  1  0.13850750  0.52663170  0.91802049  1  0.549259  0  0.042211  0.081873  0  3.978684  0
C  C147  1  0.86149462  0.47337405  0.08198298  1  0.549196  0  0.042249  0.081732  0  3.978739  0
C  C148  1  0.07853456  0.47247036  0.84084669  1  -0.016399  0  -0.075858  -0.133316  0  3.933841  0
C  C149  1  0.92146664  0.52753336  0.15915694  1  -0.016288  0  -0.075877  -0.133249  0  3.93385  0
C  C150  1  0.98917029  0.49526865  0.82427737  1  -0.07797  0  0.007993  0.016632  0  3.920169  0
C  C151  1  0.01082870  0.50473372  0.17572757  1  -0.077674  0  0.008021  0.016768  0  3.920034  0
C  C152  1  0.96387644  0.57135759  0.88593905  1  -0.049161  0  -0.08002  -0.138635  0  3.93857  0
C  C153  1  0.03612331  0.42864546  0.11406518  1  -0.049497  0  -0.080021  -0.138609  0  3.938302  0
C  C154  1  0.02952308  0.62310516  0.95992231  1  0.493241  0  0.038059  0.084011  0  3.967195  0
C  C155  1  0.97047820  0.37689924  0.04008216  1  0.493751  0  0.038093  0.084041  0  3.967163  0
C  C156  1  0.92317482  0.43903004  0.74123483  1  1.606209  0  0.224055  0.616727  0  4.205164  0
C  C157  1  0.07682409  0.56097166  0.25876929  1  1.60626  0  0.223949  0.61655  0  4.205526  0
C  C158  1  0.50435234  0.99360395  0.24701366  1  0.403984  0  0.032987  0.082749  0  3.920018  0
C  C159  1  0.49564823  0.00639440  0.75298609  1  0.403994  0  0.032971  0.082693  0  3.920044  0
C  C160  1  0.56440351  0.05952642  0.31728858  1  0.015174  0  -0.074689  -0.126666  0  3.91546  0
C  C161  1  0.43559638  0.94047192  0.68271104  1  0.015186  0  -0.074642  -0.126664  0  3.915424  0
C  C162  1  0.52902284  0.12191546  0.38254812  1  -0.060977  0  0.00681  0.010766  0  3.920611  0
C  C163  1  0.47097705  0.87808289  0.61745151  1  -0.060956  0  0.006774  0.010797  0  3.920425  0
C  C164  1  0.43375564  0.11481415  0.37441048  1  0.003401  0  -0.070296  -0.128369  0  3.91216  0
C  C165  1  0.56624433  0.88518489  0.62558553  1  0.003248  0  -0.07031  -0.128486  0  3.912107  0
C  C166  1  0.37826524  0.04667454  0.30181717  1  0.460744  0  0.039705  0.076543  0  3.929114  0
C  C167  1  0.62173374  0.95332180  0.69817927  1  0.460769  0  0.039695  0.076541  0  3.929111  0
C  C168  1  0.59284592  0.19283510  0.45961036  1  1.556161  0  0.223854  0.609488  0  4.205165  0
C  C169  1  0.40715337  0.80716392  0.54038887  1  1.556009  0  0.223852  0.609504  0  4.20512  0
C  C170  1  0.65638036  0.56580656  0.98377979  1  0.44466  0  0.029525  0.070609  0  3.942562  0
C  C171  1  0.34362045  0.43419381  0.01621912  1  0.44461  0  0.029561  0.070724  0  3.942303  0
C  C172  1  0.66932468  0.50203411  0.90680057  1  0.00489  0  -0.083431  -0.144252  0  3.947471  0
C  C173  1  0.33067971  0.49796762  0.09319782  1  0.004896  0  -0.083426  -0.144271  0  3.94752  0
C  C174  1  0.59485414  0.46913295  0.83621442  1  -0.05263  0  -0.000486  0.004844  0  3.928694  0
C  C175  1  0.40514880  0.53086810  0.16378400  1  -0.052783  0  -0.000414  0.004811  0  3.928679  0
C  C176  1  0.50880540  0.49667031  0.84812766  1  -0.011803  0  -0.080126  -0.126609  0  3.947411  0
C  C177  1  0.49119698  0.50332602  0.15187049  1  -0.011642  0  -0.08019  -0.126581  0  3.947251  0
C  C178  1  0.50089658  0.55714984  0.92783739  1  0.489832  0  0.036135  0.091106  0  3.927085  0
C  C179  1  0.49910581  0.44284647  0.07216242  1  0.48971  0  0.036067  0.091013  0  3.927107  0
C  C180  1  0.60501633  0.41112635  0.74826283  1  1.589179  0  0.238904  0.642321  0  4.151947  0
C  C181  1  0.39498690  0.58887132  0.25173655  1  1.589173  0  0.238959  0.642401  0  4.151784  0
C  C182  1  0.55929224  0.20956997  0.16161507  1  0.366936  0  0.037301  0.087811  0  3.908263  0
C  C183  1  0.44070728  0.79043107  0.83838666  1  0.366897  0  0.037286  0.087718  0  3.908337  0
C  C184  1  0.56240436  0.25745650  0.24712566  1  -0.009974  0  -0.075007  -0.12656  0  3.926698  0
C  C185  1  0.43759440  0.74254386  0.75287623  1  -0.009766  0  -0.074971  -0.126416  0  3.92665  0
C  C186  1  0.59879354  0.34816973  0.28891332  1  0.061286  0  0.004203  0.00837  0  3.922794  0
C  C187  1  0.40120864  0.65183062  0.71108860  1  0.061121  0  0.004214  0.008321  0  3.922698  0
C  C188  1  0.63382302  0.38618723  0.24315209  1  -0.026032  0  -0.073515  -0.129143  0  3.936366  0
C  C189  1  0.36617778  0.61381313  0.75684904  1  -0.025835  0  -0.073558  -0.129225  0  3.936379  0
C  C190  1  0.63014083  0.33313317  0.15822474  1  0.478662  0  0.041154  0.084654  0  3.941917  0
C  C191  1  0.36985861  0.66686720  0.84177560  1  0.478571  0  0.041186  0.084616  0  3.941966  0
C  C192  1  0.59576179  0.40367008  0.37947941  1  1.566433  0  0.234358  0.62946  0  4.171369  0
C  C193  1  0.40424023  0.59632894  0.62052140  1  1.566396  0  0.23442  0.629558  0  4.171167  0
C  C194  1  0.73084307  0.66050107  0.84394703  1  0.507886  0  0.038446  0.082114  0  3.926501  0
C  C195  1  0.26915766  0.33949863  0.15605105  1  0.507716  0  0.038407  0.082009  0  3.926424  0
C  C196  1  0.69279552  0.61876914  0.75737789  1  -0.046209  0  -0.070195  -0.125028  0  3.896985  0
C  C197  1  0.30720763  0.38122785  0.24262177  1  -0.046035  0  -0.070235  -0.125024  0  3.896904  0
C  C198  1  0.66636748  0.67256094  0.71557518  1  -0.120149  0  0.004088  0.00964  0  3.9268  0
C  C199  1  0.33363491  0.32743538  0.28442408  1  -0.120161  0  0.004131  0.009622  0  3.92679  0
C  C200  1  0.68138539  0.76614437  0.76271883  1  0.032866  0  -0.076641  -0.129262  0  3.930833  0
C  C201  1  0.31861587  0.23385399  0.23727770  1  0.033147  0  -0.076641  -0.129245  0  3.930902  0
C  C202  1  0.71917973  0.80245139  0.84905564  1  0.494709  0  0.032364  0.088525  0  3.926641  0
C  C203  1  0.28082108  0.19754899  0.15094271  1  0.494369  0  0.032361  0.088581  0  3.926717  0
C  C204  1  0.61954713  0.63357512  0.62361708  1  1.592352  0  0.217909  0.61716  0  4.186171  0
C  C205  1  0.38045473  0.36642255  0.37638262  1  1.59248  0  0.217878  0.617198  0  4.186073  0
C  C206  1  0.74205715  0.42469791  0.55556353  1  1.553097  0  0.17393  0.568946  0  4.124026  0
C  C207  1  0.25794458  0.57530446  0.44443967  1  1.553122  0  0.173906  0.56887  0  4.124209  0
C  C208  1  0.10978188  0.26468802  0.63586515  1  1.374842  0  0.18853  0.481737  0  4.103937  0
C  C209  1  0.89021330  0.73531099  0.36413671  1  1.374979  0  0.188606  0.481741  0  4.104175  0
C  C210  1  0.87127067  0.27738994  0.80201585  1  1.427464  0  0.178874  0.481484  0  4.110425  0
C  C211  1  0.12873043  0.72260705  0.19798512  1  1.427406  0  0.178689  0.481206  0  4.110758  0
C  C212  1  0.59739643  0.16410912  0.66174501  1  1.418762  0  0.192271  0.499788  0  4.098992  0
C  C213  1  0.40260249  0.83589261  0.33825354  1  1.418782  0  0.19224  0.499786  0  4.099041  0
C  C214  1  0.31086273  0.30272473  0.56601581  1  1.394338  0  0.183658  0.479337  0  4.15217  0
C  C215  1  0.68914058  0.69727361  0.43398440  1  1.394186  0  0.183662  0.479377  0  4.152005  0
I  I216  1  0.64798976  0.70448058  0.22982464  1  -0.473475  0  -0.207129  -0.383186  0  1.951549  0
I  I217  1  0.35200975  0.29552045  0.77017875  1  -0.473444  0  -0.207137  -0.383186  0  1.951529  0
I  I218  1  0.62378845  0.85099927  0.06445104  1  -0.383205  0  -0.171221  -0.283329  0  2.449966  0
I  I219  1  0.37620878  0.14899977  0.93554616  1  -0.383184  0  -0.17123  -0.283329  0  2.450013  0
I  I220  1  0.86822732  0.73348731  0.10519464  1  -0.483915  0  -0.215259  -0.395815  0  1.967015  0
I  I221  1  0.13177349  0.26651305  0.89480649  1  -0.483949  0  -0.21525  -0.395807  0  1.967039  0
I  I222  1  0.89087388  0.96039508  0.05338218  1  -0.372798  0  -0.142691  -0.268076  0  2.527189  0
I  I223  1  0.10912525  0.03960261  0.94661426  1  -0.372828  0  -0.142689  -0.26808  0  2.527227  0
I  I224  1  0.84344014  0.10898193  0.88589467  1  -0.380332  0  -0.167303  -0.261968  0  2.23218  0
I  I225  1  0.15656151  0.89101980  0.11410435  1  -0.380254  0  -0.167315  -0.261979  0  2.232245  0
I  I226  1  0.61797519  0.01637201  0.96742701  1  -0.362801  0  -0.160961  -0.23746  0  2.355487  0
I  I227  1  0.38202538  0.98362633  0.03257384  1  -0.362738  0  -0.16098  -0.237483  0  2.355601  0
I  I228  1  0.61236950  0.26464831  0.91103407  1  -0.403697  0  -0.171942  -0.285809  0  2.172267  0
I  I229  1  0.38763031  0.73534936  0.08896528  1  -0.403719  0  -0.171893  -0.285724  0  2.172223  0
N  N230  1  0.81549397  0.18523728  0.11643909  1  -1.217312  0  -0.357781  -0.171535  0  3.639924  0
N  N231  1  0.18450547  0.81476309  0.88356236  1  -1.217115  0  -0.357792  -0.171576  0  3.640004  0
N  N232  1  0.91569435  0.87184925  0.82729521  1  -1.201188  0  -0.358184  -0.177212  0  3.641022  0
N  N233  1  0.08430464  0.12815315  0.17270473  1  -1.201181  0  -0.358176  -0.177161  0  3.641129  0
N  N234  1  0.78731580  0.91677633  0.27596601  1  -1.230428  0  -0.362901  -0.180891  0  3.650785  0
N  N235  1  0.21268304  0.08322473  0.72403283  1  -1.230308  0  -0.362949  -0.180978  0  3.650835  0
N  N236  1  0.11540337  0.60140189  0.97632022  1  -1.241654  0  -0.311308  -0.24517  0  3.396899  0
N  N237  1  0.88459936  0.39860318  0.02368365  1  -1.242034  0  -0.311281  -0.245068  0  3.396908  0
N  N238  1  0.41215628  0.98697445  0.23837876  1  -1.221759  0  -0.35647  -0.180187  0  3.633323  0
N  N239  1  0.58784406  0.01302188  0.76162014  1  -1.221667  0  -0.356474  -0.180154  0  3.633278  0
N  N240  1  0.57389816  0.59514839  0.99422689  1  -1.245415  0  -0.361547  -0.176494  0  3.627009  0
N  N241  1  0.42610294  0.40484861  0.00577186  1  -1.245426  0  -0.361554  -0.176541  0  3.626888  0
N  N242  1  0.59189234  0.24686323  0.11701953  1  -1.226241  0  -0.360204  -0.169185  0  3.636559  0
N  N243  1  0.40810710  0.75313713  0.88298137  1  -1.226295  0  -0.360242  -0.169147  0  3.636576  0
N  N244  1  0.74311831  0.75075432  0.89009267  1  -1.21192  0  -0.362801  -0.187385  0  3.661403  0
N  N245  1  0.25688235  0.24924471  0.10990457  1  -1.211961  0  -0.362844  -0.187469  0  3.661397  0
N  N246  1  0.05125230  0.23226330  0.66550099  1  -1.292935  0  -0.546471  -0.552739  0  3.359485  0
N  N247  1  0.94874228  0.76773639  0.33450159  1  -1.293322  0  -0.546481  -0.552761  0  3.359698  0
N  N248  1  0.81242869  0.32019009  0.84648818  1  -1.349753  0  -0.559766  -0.571249  0  3.44626  0
N  N249  1  0.18757067  0.67980960  0.15351411  1  -1.349762  0  -0.55977  -0.571205  0  3.446279  0
N  N250  1  0.51603766  0.19066238  0.64266625  1  -1.309236  0  -0.549767  -0.562103  0  3.370873  0
N  N251  1  0.48395913  0.80933868  0.35733223  1  -1.309185  0  -0.549753  -0.562144  0  3.370908  0
N  N252  1  0.26158921  0.37041593  0.57259752  1  -1.328996  0  -0.552425  -0.570634  0  3.385964  0
N  N253  1  0.73841060  0.62958173  0.42740349  1  -1.32904  0  -0.552453  -0.570682  0  3.385921  0
O  O254  1  0.89243541  0.41041448  0.42273502  1  -1.212012  0  -0.397441  -0.695808  0  2.332641  0
O  O255  1  0.10756524  0.58958454  0.57726500  1  -1.212005  0  -0.397462  -0.695822  0  2.332588  0
O  O256  1  0.88648651  0.49701107  0.35319120  1  -1.18995  0  -0.384479  -0.646831  0  2.227295  0
O  O257  1  0.11351354  0.50298863  0.64680842  1  -1.189975  0  -0.384475  -0.646841  0  2.227334  0
O  O258  1  0.92331806  0.55067949  0.62203835  1  -1.193878  0  -0.368497  -0.65383  0  2.26172  0
O  O259  1  0.07667531  0.44932158  0.37795954  1  -1.194111  0  -0.368559  -0.653901  0  2.261732  0
O  O260  1  0.91972841  0.62776065  0.54332348  1  -1.202277  0  -0.402107  -0.685286  0  2.338946  0
O  O261  1  0.08027156  0.37223838  0.45667475  1  -1.202353  0  -0.402072  -0.685262  0  2.338843  0
O  O262  1  0.91798450  0.23705864  0.45755393  1  -1.187486  0  -0.373147  -0.635359  0  2.264119  0
O  O263  1  0.08201639  0.76294240  0.54244637  1  -1.187393  0  -0.373118  -0.635325  0  2.264094  0
O  O264  1  0.86450587  0.19984505  0.54904335  1  -1.208727  0  -0.398951  -0.684674  0  2.309025  0
O  O265  1  0.13549699  0.80015532  0.45095536  1  -1.208836  0  -0.398921  -0.684573  0  2.308908  0
O  O266  1  0.95848519  0.39513330  0.67887932  1  -1.220079  0  -0.400625  -0.707491  0  2.381301  0
O  O267  1  0.04151396  0.60487043  0.32112396  1  -1.220157  0  -0.400577  -0.70749  0  2.381529  0
O  O268  1  0.83777070  0.43590632  0.73803619  1  -1.186574  0  -0.363177  -0.612852  0  2.212694  0
O  O269  1  0.16222721  0.56409269  0.26196613  1  -1.186601  0  -0.363134  -0.61275  0  2.212805  0
O  O270  1  0.67851065  0.19072632  0.46679227  1  -1.14768  0  -0.35672  -0.603657  0  2.237826  0
O  O271  1  0.32148795  0.80927270  0.53320795  1  -1.147622  0  -0.356724  -0.603663  0  2.23782  0
O  O272  1  0.55838375  0.25124192  0.51704910  1  -1.224176  0  -0.399823  -0.719295  0  2.378312  0
O  O273  1  0.44161501  0.74875846  0.48294890  1  -1.224019  0  -0.399804  -0.719332  0  2.378386  0
O  O274  1  0.66819420  0.35914029  0.73785595  1  -1.19218  0  -0.363985  -0.641856  0  2.304885  0
O  O275  1  0.33180698  0.64085739  0.26214252  1  -1.192049  0  -0.364081  -0.641951  0  2.304774  0
O  O276  1  0.54907984  0.42014031  0.68935233  1  -1.194152  0  -0.397006  -0.664531  0  2.312773  0
O  O277  1  0.45092194  0.57985669  0.31064542  1  -1.194209  0  -0.396976  -0.664537  0  2.312836  0
O  O278  1  0.58005906  0.36211352  0.42142124  1  -1.188984  0  -0.360092  -0.626312  0  2.286214  0
O  O279  1  0.41994364  0.63788550  0.57857802  1  -1.18891  0  -0.360125  -0.626357  0  2.286136  0
O  O280  1  0.60652773  0.48954558  0.40717622  1  -1.192635  0  -0.384769  -0.691771  0  2.301639  0
O  O281  1  0.39347801  0.51045611  0.59282740  1  -1.192614  0  -0.384833  -0.691812  0  2.30182  0
O  O282  1  0.57940242  0.55287096  0.58676199  1  -1.22874  0  -0.413625  -0.744288  0  2.433477  0
O  O283  1  0.42059952  0.44712739  0.41323631  1  -1.228772  0  -0.413585  -0.744305  0  2.433444  0
O  O284  1  0.61743754  0.68322921  0.58552961  1  -1.186428  0  -0.370408  -0.619383  0  2.222819  0
O  O285  1  0.38256311  0.31676981  0.41447041  1  -1.186502  0  -0.370405  -0.619386  0  2.222795  0
O  O286  1  0.08908181  0.29990842  0.58558895  1  -1.183556  0  -0.356258  -0.565035  0  2.316571  0
O  O287  1  0.91091542  0.70009060  0.41441326  1  -1.183373  0  -0.356272  -0.564991  0  2.316805  0
O  O288  1  0.86160787  0.25273725  0.72350909  1  -1.208894  0  -0.39589  -0.592328  0  2.28954  0
O  O289  1  0.13839125  0.74726041  0.27649292  1  -1.208973  0  -0.395732  -0.592124  0  2.289656  0
O  O290  1  0.66299065  0.16528201  0.62799617  1  -1.203491  0  -0.395893  -0.599358  0  2.251391  0
O  O291  1  0.33700751  0.83471905  0.37200199  1  -1.203494  0  -0.395883  -0.599375  0  2.25136  0
O  O292  1  0.39500163  0.30323094  0.56687403  1  -1.183087  0  -0.370925  -0.572006  0  2.339964  0
O  O293  1  0.60499697  0.69676809  0.43312564  1  -1.183041  0  -0.370951  -0.572085  0  2.339833  0
O  O294  1  0.80676557  0.37537937  0.54388659  1  -1.203858  0  -0.406564  -0.660054  0  2.435119  0
O  O295  1  0.19323593  0.62462099  0.45611410  1  -1.203871  0  -0.406582  -0.660055  0  2.435241  0
O  O296  1  0.68161301  0.41225616  0.59151303  1  -1.215989  0  -0.431321  -0.689698  0  2.481354  0
O  O297  1  0.31838916  0.58774419  0.40849000  1  -1.216009  0  -0.431309  -0.689673  0  2.48138  0
