# generated using pymatgen
data_NiH9C8NO6
_symmetry_space_group_name_H-M   'P 1'
_cell_length_a   6.48902431
_cell_length_b   7.92367452
_cell_length_c   10.26852873
_cell_angle_alpha   114.41132589
_cell_angle_beta   101.51464327
_cell_angle_gamma   99.16035233
_symmetry_Int_Tables_number   1
_chemical_formula_structural   NiH9C8NO6
_chemical_formula_sum   'Ni2 H18 C16 N2 O12'
_cell_volume   453.48721153
_cell_formula_units_Z   2
loop_
 _symmetry_equiv_pos_site_id
 _symmetry_equiv_pos_as_xyz
  1  'x, y, z'
loop_
 _atom_site_type_symbol
 _atom_site_label
 _atom_site_symmetry_multiplicity
 _atom_site_fract_x
 _atom_site_fract_y
 _atom_site_fract_z
 _atom_site_occupancy
 _atom_site_pbe_cm5_charge
 _atom_site_pbe_ddec_charge
 _atom_site_pbe_ddec_spin_density
 _atom_site_pbe_ddec_sum_bond_order
 _atom_site_pbe_magmom
Ni  Ni0  1  0.20011559  0.24912167  0.30406842  1  0.590834  0.831766  -0.03497  2.276651  -0.019
Ni  Ni1  1  0.79995049  0.75128971  0.69575284  1  0.591455  0.829042  0.035585  2.288523  0.02
H  H2  1  0.39801423  0.61593219  0.43314706  1  0.29846  0.388818  0.000853  0.950303  0.001
H  H3  1  0.60345945  0.38606613  0.56621400  1  0.299157  0.388865  -0.00086  0.94994  -0.001
H  H4  1  0.13867376  0.59185086  0.37531482  1  0.307506  0.39969  0.000313  0.922391  0.0
H  H5  1  0.86284318  0.41182536  0.62545693  1  0.308958  0.399655  -0.000281  0.922839  0.0
H  H6  1  0.90644356  0.22661798  0.42314438  1  0.288522  0.36871  -0.000123  0.979699  0.0
H  H7  1  0.09961080  0.77960658  0.58100248  1  0.288775  0.369366  0.000127  0.977515  0.0
H  H8  1  0.75856148  0.25399519  0.29209458  1  0.294873  0.400837  0.000976  0.92827  0.001
H  H9  1  0.24396854  0.74784096  0.71073034  1  0.293368  0.399257  -0.00094  0.932949  -0.001
H  H10  1  0.93134622  0.07858641  0.72544865  1  0.303919  0.296605  -1.3e-05  0.950744  0.0
H  H11  1  0.06818854  0.92075811  0.27509727  1  0.302703  0.295738  1.5e-05  0.954329  0.0
H  H12  1  0.98370816  0.09208952  0.89620947  1  0.296706  0.299684  -0.000452  0.979069  0.0
H  H13  1  0.01503051  0.90696250  0.10415334  1  0.296065  0.29833  0.000401  0.978381  0.0
H  H14  1  0.19971869  0.34475720  0.88298084  1  0.11047  0.112702  -0.000405  1.010554  0.0
H  H15  1  0.80017410  0.65487701  0.11643116  1  0.110302  0.113022  0.000409  1.010231  0.0
H  H16  1  0.60699889  0.12269639  0.60598887  1  0.109736  0.117352  -0.000268  1.027633  0.0
H  H17  1  0.39705356  0.88159834  0.39548258  1  0.110452  0.118379  0.000262  1.027237  0.0
H  H18  1  0.72758281  0.14291185  0.04013375  1  0.115486  0.133609  1.6e-05  1.000885  0.0
H  H19  1  0.26473802  0.84729560  0.95655003  1  0.114808  0.133928  -8e-06  1.001117  0.0
C  C20  1  0.38152245  0.26753866  0.10795853  1  0.204333  0.551566  -0.000583  4.198022  0.0
C  C21  1  0.61394030  0.72786042  0.88972028  1  0.2033  0.550534  0.000567  4.20023  0.0
C  C22  1  0.45531177  0.24539561  0.97492726  1  -0.014456  -0.017009  0.003914  4.007043  0.005
C  C23  1  0.54143371  0.75037382  0.02342199  1  -0.013543  -0.016134  -0.003808  4.002692  -0.004
C  C24  1  0.33479074  0.28146836  0.86486317  1  -0.082432  -0.123606  -0.013845  3.961415  -0.01
C  C25  1  0.66474325  0.71756366  0.13453378  1  -0.083401  -0.125116  0.013541  3.961816  0.01
C  C26  1  0.38850493  0.23719904  0.73170054  1  -0.018524  -0.027799  -0.001419  4.001975  -0.001
C  C27  1  0.61319011  0.76433846  0.26861278  1  -0.018152  -0.027005  0.00132  4.001335  0.001
C  C28  1  0.24644500  0.25531655  0.60649654  1  0.224417  0.596994  -0.001036  4.14607  0.001
C  C29  1  0.75693481  0.74865723  0.39448839  1  0.222533  0.595355  0.000965  4.145258  -0.001
C  C30  1  0.56620653  0.16099458  0.71053232  1  -0.08274  -0.182472  -0.011839  3.900587  -0.009
C  C31  1  0.43543936  0.84040707  0.28993781  1  -0.082914  -0.183032  0.011632  3.901052  0.009
C  C32  1  0.68876642  0.12786859  0.82127396  1  0.090716  0.283009  0.002046  4.005428  0.003
C  C33  1  0.30972898  0.87000588  0.17813177  1  0.091477  0.284825  -0.001979  4.00533  -0.003
C  C34  1  0.63438266  0.17130159  0.95440776  1  -0.07754  -0.170124  -0.011986  3.865187  -0.009
C  C35  1  0.36119337  0.82291216  0.04362888  1  -0.07826  -0.173498  0.01184  3.860252  0.009
N  N36  1  0.86323288  0.04305332  0.79588960  1  -0.604765  -0.592376  -0.032024  3.490837  -0.029
N  N37  1  0.13584090  0.95543543  0.20406311  1  -0.602637  -0.592166  0.032567  3.485278  0.03
O  O38  1  0.17501612  0.24209045  0.09310880  1  -0.303291  -0.533093  -0.056537  2.247753  -0.059
O  O39  1  0.82067604  0.75534810  0.90461580  1  -0.302999  -0.533227  0.054692  2.249908  0.057
O  O40  1  0.51373463  0.29946281  0.22999773  1  -0.294102  -0.536143  0.022887  2.253156  0.024
O  O41  1  0.48096545  0.69467485  0.76769392  1  -0.294072  -0.537177  -0.020694  2.25873  -0.022
O  O42  1  0.04988615  0.25462729  0.60240085  1  -0.309458  -0.552762  -0.000353  2.176244  -0.001
O  O43  1  0.95426271  0.75213041  0.39944146  1  -0.30938  -0.552845  0.000331  2.173704  0.0
O  O44  1  0.33541871  0.25940682  0.50583681  1  -0.300167  -0.541058  -0.052825  2.395455  -0.056
O  O45  1  0.66771738  0.74279484  0.49460671  1  -0.297735  -0.538203  0.051423  2.394445  0.055
O  O46  1  0.24812385  0.53586860  0.41111143  1  -0.567145  -0.741816  0.023348  2.237437  0.023
O  O47  1  0.75317180  0.46625160  0.58789252  1  -0.56812  -0.7389  -0.023275  2.246725  -0.023
O  O48  1  0.87197493  0.19169200  0.31523976  1  -0.58156  -0.759505  0.029989  2.158543  0.031
O  O49  1  0.13126049  0.81128656  0.68807346  1  -0.581937  -0.762574  -0.029498  2.158133  -0.031
