# generated using pymatgen
data_Zn2H26C25N8O
_symmetry_space_group_name_H-M   'P 1'
_cell_length_a   15.70322731
_cell_length_b   14.68166383
_cell_length_c   15.78344647
_cell_angle_alpha   102.94346309
_cell_angle_beta   109.34336240
_cell_angle_gamma   121.19951768
_symmetry_Int_Tables_number   1
_chemical_formula_structural   Zn2H26C25N8O
_chemical_formula_sum   'Zn4 H52 C50 N16 O2'
_cell_volume   2559.92656380
_cell_formula_units_Z   2
loop_
 _symmetry_equiv_pos_site_id
 _symmetry_equiv_pos_as_xyz
  1  'x, y, z'
loop_
 _atom_site_type_symbol
 _atom_site_label
 _atom_site_symmetry_multiplicity
 _atom_site_fract_x
 _atom_site_fract_y
 _atom_site_fract_z
 _atom_site_occupancy
 _atom_site_pbe_bader_charge
 _atom_site_pbe_bader_spin_density
 _atom_site_pbe_cm5_charge
 _atom_site_pbe_ddec_charge
 _atom_site_pbe_ddec_spin_density
 _atom_site_pbe_ddec_sum_bond_order
 _atom_site_pbe_magmom
C  C0  1  0.15985377  0.32525514  0.07034129  1  0.390971  0  -0.009798  -0.076032  0  3.994244  0
C  C1  1  0.46564603  0.17057367  0.94708041  1  0.047287  0  -0.034755  -0.050941  0  4.005067  0
C  C2  1  0.77545343  0.32663738  0.89666044  1  0.402089  0  -0.140159  -0.165268  0  3.919686  0
C  C3  1  0.53355749  0.44822702  0.34133566  1  -0.024341  0  -0.036129  -0.051391  0  4.024441  0
C  C4  1  0.54651702  0.83539142  0.92102942  1  0.024426  0  -0.029301  -0.042399  0  3.999347  0
C  C5  1  0.55303163  0.44630506  0.70443166  1  0.019685  0  -0.030477  -0.040216  0  3.999358  0
C  C6  1  0.63176371  0.05131239  0.02352476  1  -0.032376  0  -0.160139  -0.17779  0  3.863248  0
C  C7  1  0.64095623  0.43689233  0.59562422  1  -0.029856  0  -0.161123  -0.190345  0  3.871252  0
C  C8  1  0.17905552  0.32790673  0.75405591  1  0.363029  0  -0.001526  -0.070682  0  3.970356  0
C  C9  1  0.61126542  0.14372639  0.02473126  1  -0.031139  0  -0.165091  -0.19291  0  3.848028  0
C  C10  1  0.64821078  0.46000000  0.50612807  1  -0.034041  0  -0.160407  -0.184972  0  3.873712  0
C  C11  1  0.50968016  0.94531527  0.83127253  1  -0.049395  0  -0.160167  -0.18418  0  3.86173  0
C  C12  1  0.57223505  0.55717069  0.60728029  1  -0.040126  0  -0.160635  -0.185972  0  3.870734  0
C  C13  1  0.41467985  0.87819493  0.92889317  1  -0.060028  0  -0.160664  -0.181878  0  3.869229  0
C  C14  1  0.42592977  0.32885423  0.50959808  1  -0.003545  0  -0.161204  -0.187646  0  3.878786  0
C  C15  1  0.52694175  0.92589136  0.92610095  1  0.058018  0  -0.01142  0.126587  0  3.830979  0
C  C16  1  0.54814137  0.43988121  0.60636235  1  0.071006  0  -0.010835  0.12798  0  3.829746  0
C  C17  1  0.48576796  0.08007503  0.93558605  1  0.067191  0  -0.01107  0.131827  0  3.826565  0
C  C18  1  0.54065087  0.44525051  0.43781898  1  0.068433  0  -0.011843  0.130425  0  3.830188  0
C  C19  1  0.47353214  0.02566491  0.83212179  1  0.00114  0  -0.16095  -0.184751  0  3.863707  0
C  C20  1  0.54936198  0.54968433  0.50221915  1  -0.019973  0  -0.161135  -0.189544  0  3.876677  0
C  C21  1  0.65944817  0.73355645  0.25067959  1  0.407862  0  0.008786  -0.045633  0  3.921703  0
C  C22  1  0.82872557  0.54153896  0.13381997  1  0.408574  0  0.008781  -0.056885  0  3.980021  0
C  C23  1  0.39686074  0.97307221  0.94364415  1  -0.034521  0  -0.161748  -0.185909  0  3.883541  0
C  C24  1  0.72433352  0.85570101  0.27065543  1  -0.007271  0  -0.038897  0.036333  0  4.107984  0
C  C25  1  0.42882561  0.32284260  0.41155599  1  -0.018345  0  -0.158886  -0.187436  0  3.85706  0
C  C26  1  0.79460033  0.96895358  0.36432772  1  0.006566  0  -0.110173  -0.256412  0  4.017645  0
C  C27  1  0.98906801  0.56243009  0.10931335  1  0.026982  0  -0.120806  -0.283303  0  4.00457  0
C  C28  1  0.83226256  0.98512084  0.46180295  1  0.428272  0  0.06224  0.229138  0  4.104966  0
C  C29  1  0.94491122  0.44485535  0.06203582  1  0.383534  0  0.064804  0.237729  0  4.117969  0
C  C30  1  0.91511117  0.59406635  0.10955110  1  0.089645  0  -0.039281  0.039846  0  4.123538  0
C  C31  1  0.96800456  0.11904158  0.65041135  1  -0.02279  0  -0.098334  -0.107239  0  4.049665  0
C  C32  1  0.97042436  0.29012221  0.02914862  1  -0.078485  0  -0.095712  -0.088118  0  4.053874  0
C  C33  1  0.92704928  0.10309705  0.55338538  1  -0.03405  0  -0.114754  -0.215622  0  4.07529  0
C  C34  1  0.01499566  0.40815729  0.06959275  1  -0.067997  0  -0.121499  -0.22888  0  4.076263  0
C  C35  1  0.43734978  0.41889831  0.25772653  1  0.384447  0  0.000293  -0.059878  0  3.995339  0
C  C36  1  0.37309265  0.15883494  0.95226340  1  0.373166  0  0.005158  -0.053947  0  3.991411  0
C  C37  1  0.64818255  0.84848992  0.94367104  1  0.335523  0  0.009127  -0.045786  0  3.97054  0
C  C38  1  0.65208970  0.53110358  0.80552762  1  0.365629  0  0.00553  -0.052936  0  3.977259  0
C  C39  1  0.61589621  0.48039310  0.31199619  1  0.386471  0  -0.003618  -0.076467  0  4.020222  0
C  C40  1  0.54391464  0.29292628  0.97260205  1  0.320628  0  -0.003042  -0.055648  0  3.964414  0
C  C41  1  0.46264591  0.71419042  0.89460876  1  0.385708  0  0.001375  -0.061169  0  4.022154  0
C  C42  1  0.45833836  0.39122135  0.71827696  1  0.36022  0  0.000195  -0.067754  0  3.989744  0
C  C43  1  0.72557676  0.84769390  0.18029680  1  0.404648  0  0.004892  -0.054415  0  3.949223  0
C  C44  1  0.90814724  0.67760573  0.08571457  1  0.354375  0  0.003918  -0.063059  0  3.98124  0
C  C45  1  0.00031991  0.13177284  0.98950694  1  0.41839  0  -0.014777  -0.075639  0  4.060526  0
C  C46  1  0.12401265  0.23512627  0.84053155  1  0.410256  0  0.016624  -0.033238  0  3.908458  0
C  C47  1  0.03882600  0.25192619  0.03236712  1  -0.01578  0  -0.055949  -0.014723  0  4.158045  0
C  C48  1  0.08077702  0.22469143  0.74203420  1  0.001282  0  -0.039219  0.014667  0  4.121011  0
C  C49  1  0.85781941  0.84814965  0.49241296  1  0.408971  0  -0.14268  -0.168715  0  3.928583  0
H  H50  1  0.22621756  0.42411497  0.10749678  1  0.066089  0  0.111463  0.099211  0  1.005565  0
H  H51  1  0.65180578  0.39592779  0.45898430  1  0.003213  0  0.087583  0.081902  0  0.987875  0
H  H52  1  0.86314898  0.82141081  0.42448301  1  0.044417  0  0.090944  0.088118  0  1.00692  0
H  H53  1  0.81420111  0.76926019  0.50412411  1  0.035336  0  0.098278  0.099721  0  1.002843  0
H  H54  1  0.81827674  0.30492348  0.86320969  1  0.034784  0  0.094153  0.091193  0  0.996496  0
H  H55  1  0.78694745  0.40578757  0.89228273  1  0.034787  0  0.090252  0.08674  0  1.01165  0
H  H56  1  0.68106745  0.24772090  0.85349621  1  0.053534  0  0.09913  0.101573  0  1.01778  0
H  H57  1  0.62134997  0.18737071  0.09789110  1  0.010094  0  0.084715  0.08003  0  0.987782  0
H  H58  1  0.67720096  0.21725736  0.01846098  1  0.045529  0  0.088073  0.087781  0  1.046757  0
H  H59  1  0.72941147  0.55275052  0.53640493  1  0.022827  0  0.085601  0.07817  0  0.988789  0
H  H60  1  0.59246670  0.98816350  0.83270597  1  0.020173  0  0.086969  0.083573  0  0.983938  0
H  H61  1  0.66403519  0.63673471  0.66972904  1  0.032522  0  0.087395  0.084174  0  0.984476  0
H  H62  1  0.18839075  0.35865178  0.69867990  1  0.068725  0  0.115749  0.103361  0  1.002231  0
H  H63  1  0.52787908  0.09985709  0.81928699  1  0.009483  0  0.084897  0.077047  0  1.024148  0
H  H64  1  0.61983869  0.63648814  0.51199476  1  0.026356  0  0.089027  0.088607  0  0.990846  0
H  H65  1  0.33809534  0.79255687  0.85645890  1  0.025285  0  0.086797  0.07922  0  0.987366  0
H  H66  1  0.36007400  0.33715578  0.50948432  1  -0.004879  0  0.08611  0.079762  0  0.987236  0
H  H67  1  0.42152739  0.85542251  0.99136563  1  0.026413  0  0.087934  0.082818  0  0.984714  0
H  H68  1  0.39947833  0.24437366  0.51213619  1  0.012535  0  0.088122  0.083456  0  0.984243  0
H  H69  1  0.40858492  0.00931641  0.01930964  1  0.020125  0  0.089094  0.084642  0  0.982075  0
H  H70  1  0.42862979  0.24909605  0.37583637  1  0.01284  0  0.088593  0.085956  0  0.980371  0
H  H71  1  0.30639892  0.93027587  0.88529138  1  0.01827  0  0.087169  0.078919  0  0.991605  0
H  H72  1  0.34947123  0.30176119  0.35343750  1  0.020571  0  0.091065  0.090722  0  0.989225  0
H  H73  1  0.44233254  0.85581573  0.76061118  1  0.037971  0  0.085841  0.080005  0  0.990562  0
H  H74  1  0.51620706  0.56848568  0.62709667  1  0.016871  0  0.08693  0.084053  0  0.98902  0
H  H75  1  0.63481626  0.69587770  0.29817148  1  0.127557  0  0.12036  0.116696  0  1.01856  0
H  H76  1  0.80497877  0.47302754  0.15822034  1  0.086589  0  0.122738  0.114155  0  0.991516  0
H  H77  1  0.38159020  0.97173040  0.76921629  1  -0.006583  0  0.086924  0.082706  0  0.985234  0
H  H78  1  0.64221366  0.03986555  0.09189704  1  0.027625  0  0.085762  0.079879  0  0.986927  0
H  H79  1  0.46669338  0.53237909  0.45865695  1  0.006423  0  0.088607  0.086669  0  0.980878  0
H  H80  1  0.97363250  0.18021950  0.54071050  1  0.032851  0  0.096145  0.108218  0  0.996049  0
H  H81  1  0.11025596  0.48266412  0.11238014  1  0.069858  0  0.098555  0.113601  0  0.997623  0
H  H82  1  0.91614530  0.04071268  0.65985784  1  0.074263  0  0.103746  0.106264  0  0.996265  0
H  H83  1  0.87485792  0.21831621  0.98898498  1  0.075655  0  0.09566  0.092091  0  1.018174  0
H  H84  1  0.61605487  0.34728115  0.58162628  1  0.006588  0  0.089086  0.087193  0  0.979332  0
H  H85  1  0.83243008  0.05200118  0.35790402  1  0.068455  0  0.09923  0.114431  0  1.002154  0
H  H86  1  0.08458025  0.63499345  0.15169935  1  0.070741  0  0.098384  0.118384  0  1.008641  0
H  H87  1  0.35184529  0.38557334  0.24477510  1  0.096922  0  0.114225  0.103255  0  1.029697  0
H  H88  1  0.29222755  0.07991765  0.93826401  1  0.092756  0  0.118113  0.10632  0  1.004543  0
H  H89  1  0.73586837  0.92826779  0.96913149  1  0.101484  0  0.116368  0.103966  0  1.010442  0
H  H90  1  0.74493554  0.59442717  0.83216859  1  0.099126  0  0.11645  0.101017  0  1.004642  0
H  H91  1  0.70420567  0.51053992  0.35303173  1  0.101714  0  0.113124  0.102108  0  1.008661  0
H  H92  1  0.62838662  0.34322895  0.97899838  1  0.111336  0  0.114747  0.107954  0  1.034596  0
H  H93  1  0.37133068  0.66324557  0.87255588  1  0.104617  0  0.117187  0.103072  0  1.014744  0
H  H94  1  0.36440377  0.31913026  0.66165699  1  0.082914  0  0.117233  0.106473  0  1.005711  0
H  H95  1  0.76587982  0.92002458  0.16173401  1  0.08114  0  0.115308  0.104417  0  1.007865  0
H  H96  1  0.95812908  0.73837886  0.06158629  1  0.092215  0  0.117635  0.109438  0  0.989061  0
H  H97  1  0.91150424  0.04515064  0.95100130  1  0.046699  0  0.09943  0.087503  0  1.017718  0
H  H98  1  0.07707242  0.17337848  0.86552530  1  0.147287  0  0.120174  0.113716  0  1.049985  0
H  H99  1  0.71378898  0.08472716  0.02550177  1  0.020179  0  0.086298  0.079026  0  1.000325  0
H  H100  1  0.72753371  0.50569425  0.66824927  1  0.02865  0  0.086639  0.082033  0  0.993494  0
H  H101  1  0.94744249  0.92306466  0.56074576  1  0.038847  0  0.091061  0.087607  0  1.013155  0
N  N102  1  0.18783928  0.25354816  0.04963025  1  -0.829494  0  -0.295861  -0.188459  0  3.649135  0
N  N103  1  0.39646448  0.26657797  0.98109380  1  -0.804465  0  -0.287687  -0.175847  0  3.626721  0
N  N104  1  0.46000691  0.43165730  0.18393136  1  -0.798746  0  -0.284297  -0.200141  0  3.574764  0
N  N105  1  0.62596086  0.74263191  0.93078035  1  -0.771294  0  -0.274947  -0.194092  0  3.517906  0
N  N106  1  0.61868515  0.52902129  0.87419139  1  -0.786656  0  -0.281226  -0.194416  0  3.559726  0
N  N107  1  0.57056703  0.46903960  0.21729756  1  -0.80669  0  -0.283135  -0.17246  0  3.595149  0
N  N108  1  0.50289163  0.35108081  0.99455881  1  -0.798378  0  -0.292082  -0.22508  0  3.575581  0
N  N109  1  0.27291292  0.39174276  0.85171951  1  -0.805889  0  -0.298078  -0.196211  0  3.671381  0
N  N110  1  0.51041660  0.65979047  0.90046888  1  -0.815837  0  -0.300889  -0.211405  0  3.686085  0
N  N111  1  0.49868146  0.44161596  0.82019430  1  -0.795845  0  -0.300115  -0.199841  0  3.627006  0
N  N112  1  0.67047285  0.73164104  0.11483686  1  -0.795212  0  -0.287876  -0.199852  0  3.643204  0
N  N113  1  0.82362974  0.67384523  0.09420367  1  -0.779449  0  -0.284939  -0.197976  0  3.563787  0
N  N114  1  0.08895178  0.13253280  0.99908630  1  -0.708113  0  -0.295195  -0.271058  0  3.248065  0
N  N115  1  0.23902511  0.33413048  0.90551602  1  -0.777395  0  -0.26393  -0.184954  0  3.507699  0
N  N116  1  0.62889035  0.66105704  0.15755590  1  -0.813831  0  -0.290689  -0.204182  0  3.624605  0
N  N117  1  0.77426233  0.58873658  0.12446939  1  -0.840329  0  -0.279464  -0.177687  0  3.563415  0
O  O118  1  0.78590540  0.88320204  0.47577866  1  -1.071092  0  -0.216358  -0.202355  0  2.487788  0
O  O119  1  0.82262415  0.35022973  0.00133668  1  -1.08366  0  -0.209999  -0.202897  0  2.537749  0
Zn  Zn120  1  0.42762258  0.49204877  0.87560525  1  1.163633  0  0.77923  0.696365  0  2.302338  0
Zn  Zn121  1  0.62384093  0.51765082  0.12452165  1  1.179929  0  0.725783  0.581699  0  2.551717  0
Zn  Zn122  1  0.32470618  0.32366745  0.03332587  1  1.197266  0  0.737684  0.626638  0  2.439242  0
Zn  Zn123  1  0.70456217  0.68382517  0.00746822  1  1.191406  0  0.749481  0.636458  0  2.387111  0
