# generated using pymatgen
data_MnH9C5N(ClO)2
_symmetry_space_group_name_H-M   'P 1'
_cell_length_a   6.89117074
_cell_length_b   9.83136925
_cell_length_c   12.83335952
_cell_angle_alpha   90.00067577
_cell_angle_beta   89.99998642
_cell_angle_gamma   89.99967616
_symmetry_Int_Tables_number   1
_chemical_formula_structural   MnH9C5N(ClO)2
_chemical_formula_sum   'Mn4 H36 C20 N4 Cl8 O8'
_cell_volume   869.45554044
_cell_formula_units_Z   4
loop_
 _symmetry_equiv_pos_site_id
 _symmetry_equiv_pos_as_xyz
  1  'x, y, z'
loop_
 _atom_site_type_symbol
 _atom_site_label
 _atom_site_symmetry_multiplicity
 _atom_site_fract_x
 _atom_site_fract_y
 _atom_site_fract_z
 _atom_site_occupancy
 _atom_site_hle17_ddec_charge
 _atom_site_hle17_ddec_spin_density
 _atom_site_hle17_ddec_sum_bond_order
 _atom_site_hle17_magmom
 _atom_site_hse06_10hf_ddec_charge
 _atom_site_hse06_10hf_ddec_spin_density
 _atom_site_hse06_10hf_ddec_sum_bond_order
 _atom_site_hse06_10hf_magmom
 _atom_site_hse06_ddec_charge
 _atom_site_hse06_ddec_spin_density
 _atom_site_hse06_ddec_sum_bond_order
 _atom_site_hse06_magmom
 _atom_site_pbe_cm5_charge
 _atom_site_pbe_ddec_charge
 _atom_site_pbe_ddec_spin_density
 _atom_site_pbe_ddec_sum_bond_order
 _atom_site_pbe_magmom
Mn  Mn0  1  0.34369925  0.73553978  0.00149307  1  1.021208  4.766246  2.013215  4.647  0.897439  4.689929  2.499054  4.512  0.954593  4.735813  2.43537  4.578  0.405167  0.851565  4.645613  2.545695  4.449
Mn  Mn1  1  0.15630629  0.26446220  0.50149025  1  1.021088  4.766252  2.013396  4.647  0.897357  4.689931  2.499154  4.512  0.954528  4.735814  2.435457  4.578  0.405119  0.851479  4.645616  2.545808  4.449
Mn  Mn2  1  0.84369993  0.76446015  0.99850095  1  1.021257  4.766176  2.013345  4.647  0.897358  4.689832  2.499359  4.512  0.954551  4.735721  2.435635  4.578  0.405099  0.851477  4.645507  2.545996  4.449
Mn  Mn3  1  0.65630707  0.23554148  0.49849784  1  1.021241  4.766211  2.01312  4.647  0.897405  4.68985  2.499117  4.512  0.954597  4.735732  2.435397  4.578  0.405162  0.851515  4.645532  2.54578  4.449
H  H4  1  0.61668609  0.05556022  0.71860154  1  0.096509  -0.000119  0.946565  0.0  0.10227  0.000575  1.012576  0.001  0.105269  0.000222  1.010856  0.0  0.110442  0.099648  0.000939  1.014588  0.001
H  H5  1  0.88331504  0.94442990  0.21860619  1  0.096454  -0.000118  0.946769  0.0  0.102243  0.000574  1.012697  0.001  0.10522  0.000221  1.011  0.0  0.11043  0.099626  0.000938  1.014706  0.001
H  H6  1  0.11667514  0.44444464  0.28139203  1  0.096409  -0.000126  0.946767  0.0  0.10225  0.000574  1.012715  0.001  0.105208  0.000221  1.011039  0.0  0.110421  0.099631  0.000938  1.014726  0.001
H  H7  1  0.38332612  0.55555970  0.78139094  1  0.096485  -0.000123  0.946757  0.0  0.102249  0.000574  1.012721  0.001  0.105235  0.000222  1.011014  0.0  0.110441  0.099635  0.000939  1.01472  0.001
H  H8  1  0.72458904  0.14904799  0.91272569  1  0.091504  -0.0002  0.948941  0.0  0.107365  -0.000119  1.011383  0.0  0.10871  -0.000166  1.011276  0.0  0.100427  0.106321  -7.3e-05  1.01156  0.0
H  H9  1  0.77540488  0.85094619  0.41272800  1  0.091583  -0.000198  0.949075  0.0  0.107484  -0.000119  1.011422  0.0  0.108828  -0.000166  1.011322  0.0  0.100487  0.106441  -7.3e-05  1.011605  0.0
H  H10  1  0.22457732  0.35095032  0.08727017  1  0.091468  -0.000208  0.949012  0.0  0.107375  -0.000119  1.011397  0.0  0.108717  -0.000166  1.011299  0.0  0.100432  0.106333  -7.2e-05  1.011574  0.0
H  H11  1  0.27541663  0.64905707  0.58727228  1  0.091521  -0.000199  0.94895  0.0  0.107373  -0.000119  1.011399  0.0  0.108718  -0.000166  1.011292  0.0  0.100435  0.106335  -7.2e-05  1.011571  0.0
H  H12  1  0.64958537  0.26053131  0.81139264  1  0.089508  -2.4e-05  0.943252  0.0  0.102492  0.000283  1.006404  0.0  0.104581  0.00011  1.005597  0.0  0.092413  0.101202  0.000341  1.00648  0.0
H  H13  1  0.85041869  0.73946128  0.31139705  1  0.089497  -1.2e-05  0.943232  0.0  0.102458  0.000283  1.00642  0.0  0.104547  0.00011  1.005616  0.0  0.092379  0.101166  0.000341  1.006497  0.0
H  H14  1  0.14957309  0.23947443  0.18860793  1  0.089511  -3.1e-05  0.943125  0.0  0.102452  0.000283  1.006336  0.0  0.104537  0.00011  1.005534  0.0  0.092431  0.101161  0.000341  1.006413  0.0
H  H15  1  0.35042233  0.76053150  0.68860866  1  0.089538  -1.8e-05  0.943288  0.0  0.102497  0.000283  1.006451  0.0  0.10458  0.00011  1.005653  0.0  0.092434  0.101211  0.00034  1.006522  0.0
H  H16  1  0.41849525  0.31857869  0.94914097  1  0.087101  5.6e-05  0.961305  0.0  0.101625  0.000502  1.026293  0.0  0.103083  0.000288  1.026109  0.0  0.089797  0.100238  0.000679  1.026893  0.0
H  H17  1  0.08149733  0.68142115  0.44914495  1  0.087093  5.2e-05  0.961257  0.0  0.101639  0.000501  1.026221  0.0  0.103095  0.000288  1.026039  0.0  0.089813  0.100241  0.000679  1.026829  0.0
H  H18  1  0.91848764  0.18141883  0.05086575  1  0.087108  5.8e-05  0.961283  0.0  0.101593  0.000501  1.026282  0.0  0.103048  0.000288  1.0261  0.0  0.089812  0.100209  0.000679  1.026874  0.0
H  H19  1  0.58150329  0.81858595  0.55086787  1  0.087098  4.8e-05  0.961259  0.0  0.101567  0.000502  1.026298  0.0  0.103023  0.000288  1.026116  0.0  0.089796  0.100186  0.000679  1.026891  0.0
H  H20  1  0.40055704  0.14504371  0.98980453  1  0.083591  -0.000136  0.941071  0.0  0.097197  0.000168  1.005315  0.0  0.098608  1.8e-05  1.005545  0.0  0.088701  0.095945  0.000299  1.005318  0.0
H  H21  1  0.09943411  0.85495474  0.48981317  1  0.08366  -0.000133  0.940927  0.0  0.097257  0.000168  1.00519  0.0  0.098667  1.8e-05  1.005421  0.0  0.088713  0.096005  0.000298  1.005196  0.0
H  H22  1  0.90053500  0.35494778  0.01019517  1  0.083549  -0.00013  0.941127  0.0  0.097137  0.000168  1.005366  0.0  0.098546  1.8e-05  1.005598  0.0  0.088678  0.095886  0.000298  1.00537  0.0
H  H23  1  0.59945156  0.64505738  0.51019263  1  0.083559  -0.00016  0.941168  0.0  0.097155  0.000168  1.005398  0.0  0.098566  1.8e-05  1.005629  0.0  0.088672  0.095903  0.000299  1.005404  0.0
H  H24  1  0.23061732  0.27365022  0.79124528  1  0.084929  -0.000311  0.940474  0.0  0.099129  -0.000162  1.0012  0.0  0.100404  -0.000249  1.000777  0.0  0.109968  0.098124  -5.1e-05  1.001676  0.0
H  H25  1  0.26937958  0.72634308  0.29125895  1  0.084954  -0.000301  0.94036  0.0  0.099148  -0.000162  1.001107  0.0  0.10042  -0.000249  1.000691  0.0  0.109938  0.098144  -5.1e-05  1.00158  0.0
H  H26  1  0.73060504  0.22635519  0.20875838  1  0.084874  -0.000317  0.940468  0.0  0.099108  -0.000162  1.001172  0.0  0.100384  -0.000249  1.000747  0.0  0.109954  0.098105  -5.1e-05  1.001641  0.0
H  H27  1  0.76939318  0.77365207  0.70875303  1  0.084924  -0.000308  0.940546  0.0  0.099114  -0.000162  1.001303  0.0  0.10039  -0.000249  1.000881  0.0  0.109937  0.098112  -5.1e-05  1.00177  0.0
H  H28  1  0.11688094  0.15770188  0.87916408  1  0.08453  -0.000135  0.924542  0.0  0.099296  4e-06  0.986202  0.0  0.10049  -6.7e-05  0.98558  0.0  0.110596  0.098226  8.7e-05  0.987005  0.0
H  H29  1  0.38311308  0.84229382  0.37917329  1  0.084597  -0.000132  0.924531  0.0  0.09934  4e-06  0.986211  0.0  0.100534  -6.7e-05  0.985588  0.0  0.110576  0.098266  8.7e-05  0.987014  0.0
H  H30  1  0.61686774  0.34230602  0.12083805  1  0.084469  -0.000133  0.924478  0.0  0.099297  4e-06  0.986068  0.0  0.100489  -6.7e-05  0.98545  0.0  0.110624  0.09823  8.7e-05  0.98687  0.0
H  H31  1  0.88312031  0.65769884  0.62083319  1  0.084523  -0.000127  0.924506  0.0  0.099351  4e-06  0.986112  0.0  0.100544  -6.7e-05  0.985493  0.0  0.110599  0.098277  8.7e-05  0.986917  0.0
H  H32  1  0.29700301  0.08095291  0.69963395  1  0.290875  -0.000314  0.893562  0.0  0.271112  0.000109  0.961613  0.0  0.278786  -0.000141  0.955815  0.0  0.293378  0.265502  0.000335  0.965991  0.0
H  H33  1  0.20299678  0.91902980  0.19964078  1  0.290915  -0.000316  0.893525  0.0  0.271155  0.000109  0.96156  0.0  0.278827  -0.000142  0.955761  0.0  0.293371  0.265546  0.000334  0.965935  0.0
H  H34  1  0.79699650  0.41905324  0.30036423  1  0.290912  -0.000321  0.89368  0.0  0.271148  0.000109  0.961685  0.0  0.278817  -0.000141  0.955895  0.0  0.293395  0.265538  0.000335  0.966064  0.0
H  H35  1  0.70300320  0.58095749  0.80036420  1  0.290913  -0.00032  0.893685  0.0  0.271125  0.000109  0.961687  0.0  0.278794  -0.000142  0.955898  0.0  0.293376  0.265519  0.000334  0.966056  0.0
H  H36  1  0.26991558  0.97854698  0.80522759  1  0.306747  -0.000404  0.850875  0.0  0.291385  -0.00025  0.904292  0.0  0.299756  -0.000379  0.898024  0.0  0.323716  0.285268  -0.000121  0.909001  0.0
H  H37  1  0.23008568  0.02144349  0.30522879  1  0.306881  -0.000407  0.850858  0.0  0.291502  -0.00025  0.9043  0.0  0.299879  -0.000378  0.898025  0.0  0.323755  0.285379  -0.00012  0.909018  0.0
H  H38  1  0.76989910  0.52145631  0.19477114  1  0.306771  -0.000406  0.850817  0.0  0.291371  -0.000249  0.904269  0.0  0.29975  -0.000378  0.897987  0.0  0.323646  0.285249  -0.00012  0.908982  0.0
H  H39  1  0.73010058  0.47855174  0.69477020  1  0.306852  -0.000403  0.850805  0.0  0.291437  -0.000249  0.904258  0.0  0.299817  -0.000378  0.897974  0.0  0.323716  0.285316  -0.00012  0.908969  0.0
C  C40  1  0.54372027  0.05509612  0.79470944  1  0.010545  0.002445  3.47643  0.002  -0.011583  0.003379  3.718562  0.003  -0.012671  0.002415  3.7277  0.002  0.007898  -0.010809  0.004456  3.712673  0.004
C  C41  1  0.95628523  0.94489621  0.29470863  1  0.010331  0.002465  3.476373  0.002  -0.011586  0.00338  3.718383  0.003  -0.012656  0.002418  3.727526  0.002  0.007825  -0.010814  0.004457  3.712494  0.004
C  C42  1  0.04370494  0.44490394  0.20529505  1  0.010611  0.002468  3.47609  0.002  -0.011567  0.003382  3.718484  0.003  -0.012625  0.002419  3.727625  0.002  0.007839  -0.010796  0.004459  3.712601  0.004
C  C43  1  0.45628904  0.55509818  0.70529082  1  0.010429  0.002467  3.476371  0.002  -0.011549  0.003382  3.718374  0.003  -0.012626  0.00242  3.727511  0.002  0.007855  -0.01078  0.004458  3.712486  0.004
C  C44  1  0.60307691  0.17689645  0.86213347  1  -0.130923  0.000613  3.619039  0.001  -0.174939  0.001291  3.875083  0.001  -0.175805  0.000863  3.886579  0.001  -0.159253  -0.174072  0.001762  3.866356  0.001
C  C45  1  0.89691700  0.82309999  0.36214095  1  -0.131022  0.000574  3.619154  0.001  -0.175043  0.001291  3.875133  0.001  -0.175904  0.000861  3.886604  0.001  -0.159272  -0.174169  0.001761  3.866405  0.001
C  C46  1  0.10306542  0.32310541  0.13786477  1  -0.131041  0.000649  3.618988  0.001  -0.17505  0.001289  3.875067  0.001  -0.175913  0.000865  3.886539  0.001  -0.159311  -0.174177  0.001761  3.86634  0.001
C  C47  1  0.39692564  0.67689973  0.63786553  1  -0.131007  0.000595  3.619102  0.001  -0.175017  0.001289  3.875095  0.001  -0.175881  0.000863  3.886583  0.001  -0.159271  -0.174145  0.001761  3.866365  0.001
C  C48  1  0.41789199  0.21273158  0.92221380  1  -0.141196  0.000556  3.648731  0.001  -0.180003  0.001279  3.90806  0.001  -0.182423  0.000949  3.921269  0.001  -0.167301  -0.177868  0.001537  3.898874  0.001
C  C49  1  0.08210349  0.78726479  0.42222340  1  -0.141136  0.000564  3.648364  0.001  -0.179984  0.001279  3.90777  0.001  -0.182398  0.000949  3.920973  0.001  -0.167277  -0.177835  0.001537  3.898586  0.001
C  C50  1  0.91787485  0.28726493  0.07778668  1  -0.141132  0.000547  3.648834  0.001  -0.179827  0.001279  3.908033  0.001  -0.182242  0.000948  3.921241  0.001  -0.167294  -0.177689  0.001537  3.898839  0.001
C  C51  1  0.58211318  0.71274028  0.57778396  1  -0.141119  0.000615  3.648695  0.001  -0.17984  0.001279  3.907964  0.001  -0.182259  0.000949  3.921173  0.001  -0.167266  -0.177704  0.001537  3.898776  0.001
C  C52  1  0.25499233  0.18767680  0.84383517  1  0.044526  0.000158  3.482429  0.0  -0.014643  0.000525  3.741082  0.0  -0.01027  0.000317  3.749867  0.0  -0.059155  -0.017631  0.000682  3.735287  0.0
C  C53  1  0.24500894  0.81231733  0.34384260  1  0.044232  0.000136  3.482364  0.0  -0.014923  0.000525  3.741063  0.0  -0.010551  0.000316  3.749847  0.0  -0.059276  -0.017905  0.000683  3.735259  0.0
C  C54  1  0.75499098  0.31232749  0.15616770  1  0.044658  0.000167  3.482481  0.0  -0.014608  0.000525  3.741122  0.0  -0.010236  0.000316  3.749908  0.0  -0.059184  -0.017603  0.000683  3.735326  0.0
C  C55  1  0.74501594  0.68767894  0.65616471  1  0.044495  0.000131  3.482461  0.0  -0.01482  0.000525  3.741148  0.0  -0.010448  0.000316  3.749932  0.0  -0.059214  -0.017803  0.000683  3.735344  0.0
C  C56  1  0.57917532  0.91858149  0.84854484  1  0.65603  0.011485  3.834182  0.011  0.604342  0.017595  4.136102  0.016  0.639853  0.013336  4.129163  0.013  0.225945  0.579212  0.022358  4.14034  0.019
C  C57  1  0.92078086  0.08141779  0.34855197  1  0.65634  0.011449  3.834342  0.011  0.604266  0.017583  4.136756  0.016  0.639775  0.013324  4.129825  0.012  0.226015  0.579144  0.022341  4.140979  0.019
C  C58  1  0.07920780  0.58142462  0.15144849  1  0.656403  0.011465  3.833823  0.011  0.604325  0.017586  4.136295  0.016  0.639835  0.013326  4.129351  0.012  0.226024  0.579195  0.022348  4.140534  0.019
C  C59  1  0.42080213  0.41858175  0.65144150  1  0.65631  0.011463  3.83427  0.011  0.604318  0.017587  4.13658  0.016  0.639831  0.013325  4.129643  0.012  0.226047  0.579193  0.022347  4.140813  0.019
N  N60  1  0.32755955  0.07022251  0.77865685  1  -0.287006  0.000463  3.258509  0.001  -0.22366  0.001441  3.467585  0.001  -0.237103  0.000938  3.474061  0.001  -0.467798  -0.214451  0.001935  3.463485  0.002
N  N61  1  0.17244315  0.92976652  0.27866223  1  -0.287012  0.000469  3.258554  0.001  -0.223663  0.001442  3.467605  0.001  -0.237105  0.000938  3.474066  0.001  -0.467723  -0.214455  0.001935  3.463506  0.002
N  N62  1  0.82754859  0.42977945  0.22134444  1  -0.287157  0.000462  3.258828  0.001  -0.223714  0.001442  3.467888  0.001  -0.237156  0.000938  3.474354  0.001  -0.467688  -0.214499  0.001936  3.463782  0.002
N  N63  1  0.67245109  0.57022801  0.72134199  1  -0.287171  0.000469  3.258698  0.001  -0.223629  0.001441  3.467586  0.001  -0.237071  0.000937  3.474056  0.001  -0.467743  -0.214423  0.001936  3.463488  0.002
Cl  Cl64  1  0.08125817  0.62703850  0.89052563  1  -0.571258  0.082178  0.958557  0.052  -0.517631  0.10735  1.230594  0.061  -0.540932  0.092174  1.205596  0.05  -0.266085  -0.498022  0.121234  1.248132  0.071
Cl  Cl65  1  0.41874747  0.37295127  0.39051196  1  -0.57126  0.082176  0.958587  0.052  -0.517604  0.107346  1.230539  0.061  -0.540903  0.09217  1.205535  0.05  -0.266077  -0.497986  0.121228  1.248088  0.071
Cl  Cl66  1  0.58125778  0.87296149  0.10947316  1  -0.571263  0.082177  0.958514  0.052  -0.517636  0.107345  1.230546  0.061  -0.540937  0.092169  1.205548  0.05  -0.266093  -0.498027  0.12123  1.248084  0.071
Cl  Cl67  1  0.91875348  0.12703302  0.60946748  1  -0.57125  0.082172  0.958479  0.052  -0.517626  0.107342  1.230495  0.061  -0.54093  0.092165  1.205499  0.05  -0.266075  -0.498011  0.121229  1.248036  0.071
Cl  Cl68  1  0.60727789  0.56427565  0.96595446  1  -0.558799  0.076865  1.055972  0.047  -0.510999  0.101322  1.352697  0.055  -0.533232  0.087991  1.326642  0.046  -0.223162  -0.492877  0.113911  1.370815  0.064
Cl  Cl69  1  0.89273055  0.43572852  0.46595460  1  -0.558781  0.076861  1.056029  0.047  -0.510974  0.101317  1.352712  0.055  -0.533209  0.087986  1.326652  0.046  -0.223158  -0.492841  0.113906  1.370826  0.064
Cl  Cl70  1  0.10727856  0.93572322  0.03404588  1  -0.558782  0.076866  1.055925  0.047  -0.510975  0.101319  1.352645  0.055  -0.533206  0.087987  1.326579  0.046  -0.223155  -0.492852  0.113907  1.370758  0.064
Cl  Cl71  1  0.39273134  0.06427622  0.53404277  1  -0.558823  0.076862  1.056018  0.047  -0.510978  0.101314  1.352671  0.055  -0.533213  0.087983  1.326607  0.046  -0.223141  -0.492846  0.113904  1.370794  0.064
O  O72  1  0.43040699  0.84434912  0.86388347  1  -0.64305  0.028895  2.143756  0.017  -0.579654  0.035855  2.403751  0.021  -0.610907  0.031675  2.393899  0.017  -0.308277  -0.556884  0.040095  2.410075  0.024
O  O73  1  0.06961170  0.15565448  0.36388046  1  -0.643378  0.028911  2.14297  0.017  -0.57982  0.035866  2.403129  0.021  -0.611104  0.031683  2.393298  0.017  -0.308355  -0.557036  0.040109  2.409437  0.024
O  O74  1  0.93036041  0.65566369  0.13611287  1  -0.643505  0.028901  2.14267  0.017  -0.579932  0.035864  2.402972  0.021  -0.611224  0.03168  2.393128  0.017  -0.308444  -0.557132  0.040106  2.409261  0.024
O  O75  1  0.56964940  0.34435159  0.63610221  1  -0.643439  0.028912  2.142817  0.017  -0.579964  0.03587  2.403088  0.021  -0.61126  0.031686  2.393245  0.017  -0.308435  -0.557172  0.040112  2.409403  0.024
O  O76  1  0.75255816  0.89068388  0.87255477  1  -0.615435  0.031721  2.088227  0.02  -0.560503  0.038987  2.354203  0.024  -0.590765  0.033952  2.342584  0.02  -0.30739  -0.538628  0.044049  2.361729  0.028
O  O77  1  0.74747638  0.10930967  0.37255051  1  -0.615098  0.031716  2.089436  0.02  -0.560229  0.038969  2.355807  0.024  -0.590469  0.033943  2.34418  0.02  -0.307323  -0.53836  0.044027  2.363341  0.028
O  O78  1  0.25250480  0.60932354  0.12745097  1  -0.615083  0.0317  2.089428  0.02  -0.560182  0.038969  2.355787  0.024  -0.59041  0.033939  2.344171  0.02  -0.307243  -0.538318  0.044028  2.363319  0.028
O  O79  1  0.24750222  0.39067838  0.62744457  1  -0.61499  0.031696  2.089518  0.02  -0.560151  0.038965  2.355812  0.024  -0.590384  0.033938  2.344193  0.02  -0.307256  -0.538281  0.044022  2.36334  0.028
