# generated using pymatgen
data_HgH28C28I2(NO)2
_symmetry_space_group_name_H-M   'P 1'
_cell_length_a   6.96987745
_cell_length_b   13.94565067
_cell_length_c   14.36300000
_cell_angle_alpha   90.00000000
_cell_angle_beta   90.00000000
_cell_angle_gamma   90.00000000
_symmetry_Int_Tables_number   1
_chemical_formula_structural   HgH28C28I2(NO)2
_chemical_formula_sum   'Hg2 H56 C56 I4 N4 O4'
_cell_volume   1396.07607636
_cell_formula_units_Z   2
loop_
 _symmetry_equiv_pos_site_id
 _symmetry_equiv_pos_as_xyz
  1  'x, y, z'
loop_
 _atom_site_type_symbol
 _atom_site_label
 _atom_site_symmetry_multiplicity
 _atom_site_fract_x
 _atom_site_fract_y
 _atom_site_fract_z
 _atom_site_occupancy
 _atom_site_hle17_bader_spin_density
 _atom_site_hle17_ddec_charge
 _atom_site_hle17_ddec_spin_density
 _atom_site_hle17_ddec_sum_bond_order
 _atom_site_hle17_magmom
 _atom_site_hse06_10hf_bader_spin_density
 _atom_site_hse06_10hf_ddec_charge
 _atom_site_hse06_10hf_ddec_spin_density
 _atom_site_hse06_10hf_ddec_sum_bond_order
 _atom_site_hse06_10hf_magmom
 _atom_site_hse06_bader_spin_density
 _atom_site_hse06_ddec_charge
 _atom_site_hse06_ddec_spin_density
 _atom_site_hse06_ddec_sum_bond_order
 _atom_site_hse06_magmom
 _atom_site_pbe_bader_charge
 _atom_site_pbe_bader_spin_density
 _atom_site_pbe_cm5_charge
 _atom_site_pbe_ddec_charge
 _atom_site_pbe_ddec_spin_density
 _atom_site_pbe_ddec_sum_bond_order
 _atom_site_pbe_magmom
Hg  Hg0  1  0.76040792  0.00000072  0.99999930  1  0  0.505264  0  2.236026  0  0  0.365695  0  2.735221  0  0  0.409321  0  2.709331  0  0.519099  0  0.393146  0.336779  0  2.752093  0
Hg  Hg1  1  0.23958958  0.50000033  0.50000070  1  0  0.505242  0  2.235994  0  0  0.365664  0  2.7352  0  0  0.409291  0  2.70931  0  0.519043  0  0.393151  0.336746  0  2.752072  0
H  H2  1  0.84576523  0.01764421  0.78008355  1  0  0.068387  0  0.95647  0  0  0.072981  0  1.028607  0  0  0.075428  0  1.026832  0  0.100992  0  0.102865  0.071229  0  1.029825  0
H  H3  1  0.84575662  0.98235359  0.21991227  1  0  0.068337  0  0.956629  0  0  0.072984  0  1.028695  0  0  0.075431  0  1.026919  0  0.101041  0  0.102866  0.071235  0  1.029908  0
H  H4  1  0.15423801  0.48235541  0.28008633  1  0  0.068343  0  0.95648  0  0  0.07301  0  1.028536  0  0  0.075459  0  1.02676  0  0.100957  0  0.102877  0.071258  0  1.029756  0
H  H5  1  0.15423801  0.51764598  0.71991227  1  0  0.068336  0  0.956513  0  0  0.073006  0  1.028571  0  0  0.075454  0  1.026796  0  0.100807  0  0.102874  0.071254  0  1.029789  0
H  H6  1  0.09821120  0.99794268  0.65940542  1  0  0.113022  0  0.979568  0  0  0.120961  0  1.041114  0  0  0.124754  0  1.039476  0  0.12645  0  0.109595  0.118177  0  1.042555  0
H  H7  1  0.09820689  0.00205082  0.34059249  1  0  0.112982  0  0.979725  0  0  0.120995  0  1.041154  0  0  0.124789  0  1.039515  0  0.126571  0  0.109581  0.118206  0  1.042602  0
H  H8  1  0.90178917  0.50205402  0.15940751  1  0  0.113004  0  0.97958  0  0  0.120956  0  1.041104  0  0  0.124749  0  1.039466  0  0.1266  0  0.109566  0.118177  0  1.042539  0
H  H9  1  0.90179347  0.49794808  0.84059249  1  0  0.112997  0  0.979732  0  0  0.120998  0  1.041168  0  0  0.124792  0  1.039529  0  0.12658  0  0.109586  0.118207  0  1.042616  0
H  H10  1  0.46586041  0.88312695  0.87508529  1  0  0.089527  0  0.995328  0  0  0.096981  0  1.066333  0  0  0.100192  0  1.064924  0  0.096877  0  0.090357  0.094651  0  1.067528  0
H  H11  1  0.46585468  0.11687443  0.12491680  1  0  0.089421  0  0.995478  0  0  0.096888  0  1.066491  0  0  0.100099  0  1.065084  0  0.096941  0  0.090337  0.094558  0  1.067684  0
H  H12  1  0.53414712  0.61687763  0.37508250  1  0  0.089437  0  0.995475  0  0  0.096932  0  1.066466  0  0  0.100147  0  1.065049  0  0.096907  0  0.090349  0.094601  0  1.067661  0
H  H13  1  0.53414282  0.38312734  0.62491680  1  0  0.089441  0  0.995484  0  0  0.096951  0  1.06645  0  0  0.100164  0  1.065039  0  0.096937  0  0.090343  0.09462  0  1.067645  0
H  H14  1  0.19830334  0.90147246  0.98395321  1  0  0.068197  0  0.966187  0  0  0.073687  0  1.040003  0  0  0.076349  0  1.037514  0  0.065941  0  0.102023  0.071711  0  1.041868  0
H  H15  1  0.19830334  0.09853108  0.01604957  1  0  0.068167  0  0.966273  0  0  0.073635  0  1.040106  0  0  0.076306  0  1.037609  0  0.06599  0  0.101966  0.071658  0  1.041971  0
H  H16  1  0.80169702  0.59853428  0.48395182  1  0  0.068226  0  0.966244  0  0  0.073725  0  1.040037  0  0  0.076371  0  1.037578  0  0.065936  0  0.102017  0.071749  0  1.041901  0
H  H17  1  0.80168985  0.40146926  0.51604748  1  0  0.06825  0  0.966185  0  0  0.073744  0  1.039992  0  0  0.076407  0  1.037495  0  0.065955  0  0.102028  0.071766  0  1.041857  0
H  H18  1  0.59084109  0.80946241  0.76189654  1  0  0.087407  0  0.978549  0  0  0.103587  0  1.037617  0  0  0.105378  0  1.037238  0  0.051999  0  0.096859  0.102329  0  1.037871  0
H  H19  1  0.59083679  0.19053898  0.23810555  1  0  0.087389  0  0.978532  0  0  0.103575  0  1.037593  0  0  0.105364  0  1.037218  0  0.052033  0  0.096861  0.102314  0  1.03785  0
H  H20  1  0.40916358  0.69054146  0.26189515  1  0  0.087423  0  0.978531  0  0  0.103604  0  1.037591  0  0  0.105395  0  1.03721  0  0.051961  0  0.096868  0.102343  0  1.037849  0
H  H21  1  0.40916071  0.30945921  0.73810485  1  0  0.08745  0  0.978488  0  0  0.103633  0  1.037545  0  0  0.105424  0  1.037166  0  0.051987  0  0.096889  0.102374  0  1.037799  0
H  H22  1  0.85856890  0.72073439  0.72076029  1  0  0.103459  0  0.955756  0  0  0.12672  0  1.014002  0  0  0.127738  0  1.014346  0  0.036834  0  0.086383  0.125942  0  1.013782  0
H  H23  1  0.85856603  0.27926556  0.27923762  1  0  0.103532  0  0.955818  0  0  0.126795  0  1.014056  0  0  0.127814  0  1.014401  0  0.036797  0  0.086417  0.126016  0  1.013836  0
H  H24  1  0.14143577  0.77926948  0.22076168  1  0  0.103484  0  0.955738  0  0  0.126747  0  1.013992  0  0  0.127767  0  1.014336  0  0.036797  0  0.086387  0.125969  0  1.013771  0
H  H25  1  0.14143721  0.22073119  0.77923971  1  0  0.103443  0  0.955647  0  0  0.126709  0  1.013909  0  0  0.127729  0  1.014252  0  0.036819  0  0.086371  0.125931  0  1.013689  0
H  H26  1  0.04024174  0.78683170  0.66197870  1  0  0.102713  0  0.970878  0  0  0.121388  0  1.037217  0  0  0.122411  0  1.037829  0  0.048877  0  0.080425  0.120627  0  1.036795  0
H  H27  1  0.04024318  0.21317040  0.33801991  1  0  0.10273  0  0.97088  0  0  0.121403  0  1.03722  0  0  0.122427  0  1.037831  0  0.04888  0  0.080421  0.120641  0  1.0368  0
H  H28  1  0.95975432  0.71317074  0.16197800  1  0  0.102715  0  0.970861  0  0  0.121387  0  1.03721  0  0  0.122412  0  1.037822  0  0.048887  0  0.080424  0.120625  0  1.036789  0
H  H29  1  0.95975719  0.28682921  0.83802270  1  0  0.102685  0  0.970854  0  0  0.121358  0  1.03721  0  0  0.122382  0  1.037823  0  0.048902  0  0.08041  0.120596  0  1.036789  0
H  H30  1  0.89482778  0.70685192  0.59931700  1  0  0.097586  0  0.970055  0  0  0.115  0  1.04131  0  0  0.115828  0  1.041406  0  0.044814  0  0.080255  0.114326  0  1.041323  0
H  H31  1  0.89482635  0.29314946  0.40068300  1  0  0.097584  0  0.970077  0  0  0.115002  0  1.041324  0  0  0.115828  0  1.041424  0  0.044807  0  0.080235  0.11433  0  1.041332  0
H  H32  1  0.10517689  0.79315123  0.09931491  1  0  0.097595  0  0.969992  0  0  0.115033  0  1.041228  0  0  0.115859  0  1.041326  0  0.044749  0  0.080268  0.114361  0  1.041236  0
H  H33  1  0.10517689  0.20684944  0.90068440  1  0  0.097611  0  0.969969  0  0  0.115044  0  1.041207  0  0  0.11587  0  1.041307  0  0.044754  0  0.08029  0.114373  0  1.041214  0
H  H34  1  0.90430284  0.91812281  0.42460489  1  0  0.104056  0  0.972356  0  0  0.124518  0  1.033582  0  0  0.125789  0  1.033879  0  0.027834  0  0.088765  0.123559  0  1.033426  0
H  H35  1  0.90430571  0.08187499  0.57539511  1  0  0.104027  0  0.972352  0  0  0.124486  0  1.033583  0  0  0.125759  0  1.033878  0  0.027872  0  0.088742  0.123528  0  1.033427  0
H  H36  1  0.09569896  0.58187532  0.92460628  1  0  0.104057  0  0.972398  0  0  0.12452  0  1.03361  0  0  0.125793  0  1.033906  0  0.027559  0  0.08878  0.123562  0  1.033453  0
H  H37  1  0.09569752  0.41812391  0.07539511  1  0  0.104022  0  0.972376  0  0  0.124519  0  1.033557  0  0  0.125791  0  1.033853  0  0.027861  0  0.088771  0.123557  0  1.033405  0
H  H38  1  0.90952388  0.79715320  0.46347420  1  0  0.104172  0  0.946137  0  0  0.12708  0  1.007201  0  0  0.128079  0  1.007214  0  0.067214  0  0.090046  0.126366  0  1.00716  0
H  H39  1  0.90952388  0.20284389  0.53652301  1  0  0.104236  0  0.946117  0  0  0.127096  0  1.007217  0  0  0.128096  0  1.00723  0  0.067481  0  0.090064  0.126381  0  1.007177  0
H  H40  1  0.09047361  0.70284494  0.96347560  1  0  0.10425  0  0.946107  0  0  0.127084  0  1.007237  0  0  0.128084  0  1.00725  0  0.067273  0  0.090034  0.12637  0  1.007197  0
H  H41  1  0.09047361  0.29715573  0.03652719  1  0  0.104206  0  0.946103  0  0  0.127097  0  1.00718  0  0  0.128096  0  1.007194  0  0.067259  0  0.090056  0.126383  0  1.00714  0
H  H42  1  0.06312163  0.88245936  0.51474344  1  0  0.125939  0  0.934061  0  0  0.145855  0  0.995781  0  0  0.14777  0  0.994996  0  0.084542  0  0.097032  0.144452  0  0.996408  0
H  H43  1  0.06311876  0.11753844  0.48525378  1  0  0.125933  0  0.93405  0  0  0.145847  0  0.995766  0  0  0.147761  0  0.994983  0  0.084555  0  0.09704  0.144445  0  0.99639  0
H  H44  1  0.93688304  0.61754021  0.01474692  1  0  0.125952  0  0.934093  0  0  0.145872  0  0.995792  0  0  0.147785  0  0.995011  0  0.084548  0  0.097051  0.14447  0  0.996416  0
H  H45  1  0.93688448  0.38246046  0.98525447  1  0  0.125962  0  0.934061  0  0  0.145875  0  0.995784  0  0  0.147789  0  0.995001  0  0.08455  0  0.097035  0.144474  0  0.996408  0
H  H46  1  0.30233243  0.20083251  0.61499269  1  0  0.087115  0  0.942896  0  0  0.105089  0  1.00755  0  0  0.106103  0  1.006311  0  0.061678  0  0.096501  0.10429  0  1.008473  0
H  H47  1  0.30233100  0.79916601  0.38500801  1  0  0.087139  0  0.942881  0  0  0.105121  0  1.007516  0  0  0.106135  0  1.006279  0  0.061648  0  0.096509  0.104321  0  1.00844  0
H  H48  1  0.69766937  0.29916711  0.11498990  1  0  0.087078  0  0.942928  0  0  0.10505  0  1.007596  0  0  0.106065  0  1.006352  0  0.061535  0  0.096477  0.10425  0  1.008523  0
H  H49  1  0.69766937  0.70083213  0.88500940  1  0  0.087113  0  0.942915  0  0  0.105086  0  1.00758  0  0  0.1061  0  1.00634  0  0.061532  0  0.096486  0.104287  0  1.008505  0
H  H50  1  0.55220770  0.17473118  0.60273132  1  0  0.079  0  0.950378  0  0  0.094981  0  1.018994  0  0  0.095754  0  1.01899  0  0.042812  0  0.089895  0.094371  0  1.01902  0
H  H51  1  0.55220627  0.82527021  0.39726937  1  0  0.078997  0  0.950379  0  0  0.094978  0  1.018988  0  0  0.095751  0  1.018984  0  0.042824  0  0.089891  0.094368  0  1.019014  0
H  H52  1  0.44779410  0.32527202  0.10272784  1  0  0.079  0  0.950346  0  0  0.094978  0  1.018968  0  0  0.095751  0  1.018963  0  0.042938  0  0.089903  0.094368  0  1.018994  0
H  H53  1  0.44779553  0.67473080  0.89727077  1  0  0.079027  0  0.950402  0  0  0.095006  0  1.019022  0  0  0.095779  0  1.019018  0  0.042824  0  0.089907  0.094396  0  1.019047  0
H  H54  1  0.42986122  0.14152943  0.70833809  1  0  0.069106  0  0.975933  0  0  0.07973  0  1.055934  0  0  0.081006  0  1.054958  0  0.06176  0  0.081572  0.078757  0  1.056688  0
H  H55  1  0.42986409  0.85846694  0.29166121  1  0  0.069123  0  0.975893  0  0  0.079745  0  1.055899  0  0  0.081021  0  1.054924  0  0.061731  0  0.081577  0.078771  0  1.056655  0
H  H56  1  0.57013628  0.35846804  0.20833739  1  0  0.069057  0  0.975872  0  0  0.079698  0  1.055861  0  0  0.080973  0  1.054884  0  0.061513  0  0.081564  0.078724  0  1.056616  0
H  H57  1  0.57013771  0.64153335  0.79166261  1  0  0.069094  0  0.975843  0  0  0.079736  0  1.055826  0  0  0.081011  0  1.054852  0  0.06153  0  0.081558  0.078762  0  1.056583  0
C  C58  1  0.98519953  0.98692562  0.79768294  1  0  0.12318  0  3.728795  0  0  0.09769  0  3.974435  0  0  0.105158  0  3.992903  0  0.452027  0  0.038234  0.092907  0  3.961821  0
C  C59  1  0.98519523  0.01306716  0.20231706  1  0  0.123212  0  3.728768  0  0  0.097689  0  3.974406  0  0  0.105158  0  3.992873  0  0.452476  0  0.038255  0.092909  0  3.961794  0
C  C60  1  0.01480083  0.51307179  0.29768502  1  0  0.123127  0  3.728732  0  0  0.097578  0  3.974374  0  0  0.105045  0  3.992843  0  0.452502  0  0.038191  0.092794  0  3.961762  0
C  C61  1  0.01480083  0.48692959  0.70231637  1  0  0.123128  0  3.728735  0  0  0.097564  0  3.974392  0  0  0.105031  0  3.992861  0  0.452344  0  0.038164  0.092781  0  3.961777  0
C  C62  1  0.12742692  0.97689095  0.73074706  1  0  -0.153698  0  3.683539  0  0  -0.170671  0  3.925406  0  0  -0.177759  0  3.943934  0  -0.028132  0  -0.083392  -0.166257  0  3.913236  0
C  C63  1  0.12742118  0.02310900  0.26925433  1  0  -0.153664  0  3.68356  0  0  -0.170715  0  3.925414  0  0  -0.177806  0  3.943942  0  -0.028679  0  -0.083407  -0.166298  0  3.913248  0
C  C64  1  0.87257632  0.52310933  0.23074636  1  0  -0.153534  0  3.683509  0  0  -0.170553  0  3.925373  0  0  -0.177644  0  3.943903  0  -0.028661  0  -0.083317  -0.166145  0  3.913201  0
C  C65  1  0.87257488  0.47689277  0.76925364  1  0  -0.153645  0  3.683685  0  0  -0.170679  0  3.925512  0  0  -0.177771  0  3.944041  0  -0.028249  0  -0.083371  -0.166262  0  3.913346  0
C  C66  1  0.30832967  0.93988874  0.75549815  1  0  0.131099  0  3.739202  0  0  0.142796  0  3.967447  0  0  0.149731  0  3.987409  0  -0.018772  0  0.015839  0.138327  0  3.9539  0
C  C67  1  0.30832823  0.06010548  0.24449836  1  0  0.130898  0  3.739309  0  0  0.142652  0  3.967499  0  0  0.149588  0  3.987459  0  -0.018629  0  0.015804  0.138181  0  3.953956  0
C  C68  1  0.69167070  0.56010868  0.25550094  1  0  0.130873  0  3.739494  0  0  0.142663  0  3.967644  0  0  0.149598  0  3.987606  0  -0.018459  0  0.015826  0.138193  0  3.954098  0
C  C69  1  0.69166926  0.43989199  0.74450045  1  0  0.130912  0  3.739464  0  0  0.142697  0  3.967591  0  0  0.149634  0  3.987553  0  -0.018723  0  0.015819  0.138228  0  3.954046  0
C  C70  1  0.33067152  0.91167779  0.84895078  1  0  -0.174368  0  3.737483  0  0  -0.19005  0  3.980391  0  0  -0.198685  0  4.002163  0  0.005669  0  -0.092465  -0.184497  0  3.965842  0
C  C71  1  0.33066148  0.08832575  0.15105062  1  0  -0.174097  0  3.737665  0  0  -0.189823  0  3.980517  0  0  -0.198461  0  4.0023  0  0.005708  0  -0.092386  -0.184269  0  3.965964  0
C  C72  1  0.66933315  0.58832465  0.34895147  1  0  -0.174213  0  3.737652  0  0  -0.189983  0  3.98051  0  0  -0.198616  0  4.00228  0  0.005707  0  -0.092478  -0.18443  0  3.965961  0
C  C73  1  0.66933315  0.41167674  0.65105131  1  0  -0.174175  0  3.737666  0  0  -0.189942  0  3.980504  0  0  -0.19858  0  4.002281  0  0.005678  0  -0.09243  -0.184389  0  3.965951  0
C  C74  1  0.18011508  0.92238220  0.91125113  1  0  0.111877  0  3.750611  0  0  0.082065  0  4.002656  0  0  0.089448  0  4.021414  0  0.435864  0  0.033277  0.077314  0  3.989927  0
C  C75  1  0.18011077  0.07761488  0.08874956  1  0  0.111823  0  3.750651  0  0  0.082028  0  4.002672  0  0  0.089405  0  4.021424  0  0.436106  0  0.033258  0.077282  0  3.989944  0
C  C76  1  0.81988959  0.57761808  0.41125183  1  0  0.1118  0  3.750667  0  0  0.081981  0  4.002698  0  0  0.089369  0  4.021453  0  0.436102  0  0.033276  0.07723  0  3.989969  0
C  C77  1  0.81988386  0.42238402  0.58874817  1  0  0.1118  0  3.750525  0  0  0.081966  0  4.002581  0  0  0.089352  0  4.021337  0  0.435824  0  0.03326  0.077217  0  3.989852  0
C  C78  1  0.46595941  0.92827006  0.68793706  1  0  -0.058548  0  3.793057  0  0  -0.052993  0  4.0402  0  0  -0.057666  0  4.063719  0  0.005345  0  -0.024146  -0.049922  0  4.024259  0
C  C79  1  0.46595654  0.07172917  0.31206155  1  0  -0.058392  0  3.793159  0  0  -0.052883  0  4.040276  0  0  -0.057557  0  4.063793  0  0.005067  0  -0.024098  -0.049813  0  4.024337  0
C  C80  1  0.53404239  0.57173023  0.18793915  1  0  -0.058307  0  3.793118  0  0  -0.052805  0  4.040258  0  0  -0.057478  0  4.063776  0  0.004953  0  -0.024078  -0.049736  0  4.024319  0
C  C81  1  0.53404095  0.42826973  0.81206364  1  0  -0.058479  0  3.793034  0  0  -0.052965  0  4.0402  0  0  -0.057639  0  4.063718  0  0.005261  0  -0.024138  -0.049895  0  4.024259  0
C  C82  1  0.48599420  0.98572453  0.60789807  1  0  0.194496  0  3.733175  0  0  0.172802  0  4.003074  0  0  0.181403  0  4.018661  0  0.493751  0  0.084708  0.167018  0  3.992478  0
C  C83  1  0.48599420  0.01427542  0.39210054  1  0  0.194396  0  3.733403  0  0  0.172819  0  4.003213  0  0  0.181422  0  4.018798  0  0.493785  0  0.084687  0.167034  0  3.992615  0
C  C84  1  0.51400473  0.51427719  0.10789946  1  0  0.194325  0  3.733411  0  0  0.172651  0  4.003304  0  0  0.181253  0  4.018889  0  0.493808  0  0.084626  0.166865  0  3.992707  0
C  C85  1  0.51400186  0.48572635  0.89210054  1  0  0.194574  0  3.733069  0  0  0.17285  0  4.003  0  0  0.181451  0  4.018585  0  0.493809  0  0.084713  0.167067  0  3.992403  0
C  C86  1  0.63277870  0.96922763  0.54259417  1  0  -0.074784  0  3.765522  0  0  -0.072075  0  4.006889  0  0  -0.074916  0  4.030063  0  0.009025  0  -0.014606  -0.07031  0  3.991341  0
C  C87  1  0.63278014  0.03076730  0.45740444  1  0  -0.074839  0  3.765689  0  0  -0.072139  0  4.006986  0  0  -0.07498  0  4.030151  0  -0.017523  0  -0.014632  -0.070373  0  3.991438  0
C  C88  1  0.36722023  0.53076763  0.04259486  1  0  -0.074853  0  3.765629  0  0  -0.07214  0  4.006984  0  0  -0.074982  0  4.030156  0  0.008978  0  -0.01466  -0.070372  0  3.991436  0
C  C89  1  0.36722166  0.46923017  0.95740723  1  0  -0.074855  0  3.765589  0  0  -0.072144  0  4.006985  0  0  -0.074985  0  4.030158  0  -0.017548  0  -0.014659  -0.07038  0  3.991438  0
C  C90  1  0.76542092  0.89451258  0.55676391  1  0  0.068517  0  3.6824  0  0  0.081795  0  3.923236  0  0  0.082318  0  3.947067  0  -0.030017  0  -0.004258  0.081631  0  3.906931  0
C  C91  1  0.76541948  0.10548378  0.44323400  1  0  0.068523  0  3.682527  0  0  0.081824  0  3.923234  0  0  0.08235  0  3.947064  0  -0.029993  0  -0.004231  0.08166  0  3.906929  0
C  C92  1  0.23457945  0.60548484  0.05676530  1  0  0.068541  0  3.682424  0  0  0.081826  0  3.923165  0  0  0.082351  0  3.946996  0  -0.02999  0  -0.004215  0.081661  0  3.90686  0
C  C93  1  0.23457801  0.39451512  0.94323609  1  0  0.068603  0  3.682364  0  0  0.081847  0  3.923215  0  0  0.082372  0  3.947044  0  -0.030021  0  -0.004226  0.081683  0  3.906909  0
C  C94  1  0.75171480  0.83824916  0.63842930  1  0  0.08295  0  3.757981  0  0  0.10341  0  3.997455  0  0  0.101724  0  4.023179  0  0.040909  0  -0.02022  0.104419  0  3.980003  0
C  C95  1  0.75171336  0.16174792  0.36156861  1  0  0.082951  0  3.757923  0  0  0.103506  0  3.997218  0  0  0.101819  0  4.022942  0  0.040924  0  -0.020126  0.104514  0  3.979765  0
C  C96  1  0.24828987  0.66175041  0.13842860  1  0  0.083017  0  3.757913  0  0  0.10355  0  3.997259  0  0  0.101863  0  4.022984  0  0.040951  0  -0.020139  0.104558  0  3.979804  0
C  C97  1  0.24828844  0.33825026  0.86157209  1  0  0.08292  0  3.757952  0  0  0.103424  0  3.997379  0  0  0.101737  0  4.023105  0  0.040951  0  -0.020156  0.104434  0  3.979923  0
C  C98  1  0.60350272  0.85576502  0.70113973  1  0  -0.143846  0  3.745466  0  0  -0.172112  0  3.99329  0  0  -0.173629  0  4.014641  0  -0.043697  0  -0.096688  -0.170941  0  3.978764  0
C  C99  1  0.60349985  0.14423278  0.29885887  1  0  -0.143825  0  3.74549  0  0  -0.172137  0  3.993307  0  0  -0.173654  0  4.014656  0  -0.043492  0  -0.096743  -0.170966  0  3.978783  0
C  C100  1  0.39649908  0.64423599  0.20114113  1  0  -0.143907  0  3.745455  0  0  -0.172201  0  3.993274  0  0  -0.173718  0  4.014625  0  -0.043491  0  -0.096726  -0.17103  0  3.978748  0
C  C101  1  0.39649478  0.35576612  0.79885957  1  0  -0.143881  0  3.745442  0  0  -0.172165  0  3.993268  0  0  -0.173682  0  4.01462  0  -0.0437  0  -0.096735  -0.170994  0  3.978742  0
C  C102  1  0.89285788  0.75929910  0.65643111  1  0  -0.330762  0  3.761736  0  0  -0.409602  0  3.995476  0  0  -0.411555  0  4.006527  0  -0.083067  0  -0.249355  -0.407939  0  3.987807  0
C  C103  1  0.89285644  0.24070157  0.34356750  1  0  -0.330909  0  3.761753  0  0  -0.409783  0  3.995448  0  0  -0.411741  0  4.006501  0  -0.082998  0  -0.249426  -0.40812  0  3.987779  0
C  C104  1  0.10714392  0.74070334  0.15643111  1  0  -0.330864  0  3.761572  0  0  -0.409752  0  3.995302  0  0  -0.41171  0  4.006356  0  -0.082976  0  -0.249432  -0.408088  0  3.98763  0
C  C105  1  0.10714392  0.25929733  0.84356959  1  0  -0.330773  0  3.761443  0  0  -0.409639  0  3.995188  0  0  -0.411596  0  4.006241  0  -0.083027  0  -0.249413  -0.407977  0  3.987517  0
C  C106  1  0.91806349  0.87244477  0.48617559  1  0  -0.324471  0  3.719016  0  0  -0.404182  0  3.956663  0  0  -0.406168  0  3.965678  0  -0.118543  0  -0.240482  -0.402517  0  3.950272  0
C  C107  1  0.91806062  0.12755303  0.51382302  1  0  -0.324453  0  3.719003  0  0  -0.404121  0  3.956594  0  0  -0.406108  0  3.965608  0  -0.118773  0  -0.240475  -0.402456  0  3.950201  0
C  C108  1  0.08193831  0.62755408  0.98617629  1  0  -0.324532  0  3.719109  0  0  -0.404184  0  3.956718  0  0  -0.40617  0  3.965732  0  -0.118261  0  -0.240495  -0.40252  0  3.950329  0
C  C109  1  0.08193831  0.37244587  0.01382511  1  0  -0.324496  0  3.718945  0  0  -0.404212  0  3.956591  0  0  -0.406197  0  3.965604  0  -0.118585  0  -0.240504  -0.402544  0  3.950203  0
C  C110  1  0.41550085  0.14918845  0.63223004  1  0  -0.078543  0  3.641692  0  0  -0.173772  0  3.907569  0  0  -0.167508  0  3.909775  0  0.359178  0  -0.147423  -0.177789  0  3.905928  0
C  C111  1  0.41549941  0.85081007  0.36776927  1  0  -0.078619  0  3.641706  0  0  -0.173792  0  3.907589  0  0  -0.167529  0  3.909795  0  0.359199  0  -0.147453  -0.177809  0  3.905945  0
C  C112  1  0.58449952  0.35081188  0.13222934  1  0  -0.078452  0  3.64164  0  0  -0.173674  0  3.907499  0  0  -0.167406  0  3.909704  0  0.359475  0  -0.147408  -0.177691  0  3.905854  0
C  C113  1  0.58450095  0.64918878  0.86777066  1  0  -0.078576  0  3.641698  0  0  -0.173825  0  3.907531  0  0  -0.167559  0  3.909736  0  0.359552  0  -0.147444  -0.177839  0  3.90589  0
I  I114  1  0.60663047  0.15822854  0.91888394  1  0  -0.355313  0  1.118244  0  0  -0.309076  0  1.448123  0  0  -0.326295  0  1.432212  0  -0.343136  0  -0.164005  -0.297548  0  1.458866  0
I  I115  1  0.60663477  0.84176997  0.08111606  1  0  -0.355345  0  1.1182  0  0  -0.309127  0  1.4481  0  0  -0.326347  0  1.432188  0  -0.343116  0  -0.164036  -0.297596  0  1.458835  0
I  I116  1  0.39336129  0.34176892  0.41888533  1  0  -0.355316  0  1.118175  0  0  -0.309111  0  1.448104  0  0  -0.326334  0  1.432201  0  -0.343126  0  -0.164023  -0.297573  0  1.458828  0
I  I117  1  0.39336990  0.65822673  0.58111676  1  0  -0.355311  0  1.118191  0  0  -0.309099  0  1.448111  0  0  -0.326316  0  1.432199  0  -0.343132  0  -0.164024  -0.297564  0  1.45884  0
N  N118  1  0.01007478  0.96059627  0.88692474  1  0  -0.292588  0  3.263327  0  0  -0.214284  0  3.523242  0  0  -0.234019  0  3.543765  0  -1.216762  0  -0.321169  -0.200986  0  3.508967  0
N  N119  1  0.01006617  0.03940512  0.11307874  1  0  -0.292555  0  3.263289  0  0  -0.214255  0  3.523203  0  0  -0.23399  0  3.543726  0  -1.217075  0  -0.321135  -0.200969  0  3.508938  0
N  N120  1  0.98992989  0.53940617  0.38692404  1  0  -0.292523  0  3.263382  0  0  -0.214201  0  3.52329  0  0  -0.233934  0  3.543808  0  -1.216952  0  -0.321162  -0.200906  0  3.50902  0
N  N121  1  0.98992558  0.46059665  0.61307735  1  0  -0.292459  0  3.263265  0  0  -0.214137  0  3.52318  0  0  -0.23387  0  3.5437  0  -1.216908  0  -0.321085  -0.200842  0  3.508908  0
O  O122  1  0.35898910  0.05986956  0.59043306  1  0  -0.277491  0  2.348808  0  0  -0.203123  0  2.589511  0  0  -0.218794  0  2.592899  0  -1.084748  0  -0.202982  -0.192064  0  2.586851  0
O  O123  1  0.35899053  0.94013039  0.40956207  1  0  -0.277374  0  2.348853  0  0  -0.203172  0  2.589638  0  0  -0.218844  0  2.593027  0  -1.084774  0  -0.202946  -0.192104  0  2.586966  0
O  O124  1  0.64100697  0.44013221  0.09043793  1  0  -0.277449  0  2.348863  0  0  -0.203104  0  2.589566  0  0  -0.218777  0  2.592955  0  -1.08483  0  -0.202936  -0.192035  0  2.586894  0
O  O125  1  0.64101271  0.55986846  0.90956555  1  0  -0.277501  0  2.348777  0  0  -0.203099  0  2.58947  0  0  -0.218771  0  2.592858  0  -1.084762  0  -0.202948  -0.19204  0  2.586808  0
