# generated using pymatgen
data_MgH14(C3O)4
_symmetry_space_group_name_H-M   'P 1'
_cell_length_a   6.91978880
_cell_length_b   11.26363159
_cell_length_c   15.31960000
_cell_angle_alpha   70.55045573
_cell_angle_beta   83.14735067
_cell_angle_gamma   89.14290197
_symmetry_Int_Tables_number   1
_chemical_formula_structural   MgH14(C3O)4
_chemical_formula_sum   'Mg4 H56 C48 O16'
_cell_volume   1117.46727218
_cell_formula_units_Z   4
loop_
 _symmetry_equiv_pos_site_id
 _symmetry_equiv_pos_as_xyz
  1  'x, y, z'
loop_
 _atom_site_type_symbol
 _atom_site_label
 _atom_site_symmetry_multiplicity
 _atom_site_fract_x
 _atom_site_fract_y
 _atom_site_fract_z
 _atom_site_occupancy
 _atom_site_hle17_bader_spin_density
 _atom_site_hle17_ddec_charge
 _atom_site_hle17_ddec_spin_density
 _atom_site_hle17_ddec_sum_bond_order
 _atom_site_hle17_magmom
 _atom_site_hse06_10hf_bader_spin_density
 _atom_site_hse06_10hf_ddec_charge
 _atom_site_hse06_10hf_ddec_spin_density
 _atom_site_hse06_10hf_ddec_sum_bond_order
 _atom_site_hse06_10hf_magmom
 _atom_site_hse06_bader_spin_density
 _atom_site_hse06_ddec_charge
 _atom_site_hse06_ddec_spin_density
 _atom_site_hse06_ddec_sum_bond_order
 _atom_site_hse06_magmom
 _atom_site_pbe_bader_charge
 _atom_site_pbe_bader_spin_density
 _atom_site_pbe_cm5_charge
 _atom_site_pbe_ddec_charge
 _atom_site_pbe_ddec_spin_density
 _atom_site_pbe_ddec_sum_bond_order
 _atom_site_pbe_magmom
Mg  Mg0  1  0.75054338  0.98047076  0.75656527  1  0  1.5552  0  1.081732  0  0  1.435231  0  1.353553  0  0  1.463485  0  1.30926  0  1.681183  0  0.90327  1.415403  0  1.384363  0
Mg  Mg1  1  0.24945694  0.01952877  0.24343483  1  0  1.555177  0  1.081743  0  0  1.435232  0  1.353521  0  0  1.463483  0  1.309232  0  1.681188  0  0.903256  1.415407  0  1.384327  0
Mg  Mg2  1  0.24784667  0.90486953  0.77443277  1  0  1.45734  0  1.190827  0  0  1.347723  0  1.449933  0  0  1.374934  0  1.409712  0  1.679839  0  0.852236  1.328756  0  1.477506  0
Mg  Mg3  1  0.75215523  0.09513283  0.22556655  1  0  1.457348  0  1.190834  0  0  1.34774  0  1.449927  0  0  1.374947  0  1.409711  0  1.679841  0  0.852217  1.328775  0  1.477496  0
H  H4  1  0.89155169  0.17353801  0.44717596  1  0  0.083166  0  0.926635  0  0  0.098768  0  0.989904  0  0  0.099985  0  0.990054  0  0.037519  0  0.092626  0.097833  0  0.989897  0
H  H5  1  0.10844718  0.82646152  0.55282487  1  0  0.083184  0  0.926657  0  0  0.098793  0  0.989914  0  0  0.10001  0  0.990064  0  0.03749  0  0.092652  0.097859  0  0.989906  0
H  H6  1  0.85880558  0.28496335  0.50581411  1  0  0.075023  0  0.933605  0  0  0.090618  0  0.997293  0  0  0.09231  0  0.996115  0  0.021593  0  0.090011  0.08933  0  0.99827  0
H  H7  1  0.14119184  0.71503619  0.49418549  1  0  0.075036  0  0.933599  0  0  0.090633  0  0.997284  0  0  0.092324  0  0.996105  0  0.0216  0  0.090012  0.089345  0  0.99826  0
H  H8  1  0.13469825  0.34024463  0.58285992  1  0  0.070968  0  0.951559  0  0  0.087653  0  1.013479  0  0  0.088708  0  1.013739  0  0.02099  0  0.089906  0.086837  0  1.013361  0
H  H9  1  0.86529924  0.65975678  0.41713921  1  0  0.070978  0  0.95157  0  0  0.08766  0  1.013483  0  0  0.088716  0  1.013741  0  0.021051  0  0.089914  0.086845  0  1.013365  0
H  H10  1  0.36408262  0.27011473  0.57409691  1  0  0.079978  0  0.925296  0  0  0.096274  0  0.985871  0  0  0.098168  0  0.984974  0  0.025932  0  0.093576  0.094844  0  0.986631  0
H  H11  1  0.63591479  0.72988480  0.42590400  1  0  0.079967  0  0.925338  0  0  0.096259  0  0.985914  0  0  0.098152  0  0.985019  0  0.025871  0  0.093572  0.094829  0  0.986673  0
H  H12  1  0.22576541  0.06892336  0.43869679  1  0  0.082309  0  0.945599  0  0  0.094553  0  1.014173  0  0  0.096122  0  1.013974  0  0.040894  0  0.094583  0.093399  0  1.014395  0
H  H13  1  0.77423491  0.93107617  0.56130396  1  0  0.082304  0  0.945586  0  0  0.094542  0  1.014164  0  0  0.096113  0  1.013964  0  0.040911  0  0.094574  0.093388  0  1.014385  0
H  H14  1  0.41556723  0.11082818  0.49208435  1  0  0.092811  0  0.92448  0  0  0.108728  0  0.983777  0  0  0.110657  0  0.98292  0  0.033508  0  0.098086  0.107247  0  0.984574  0
H  H15  1  0.58443164  0.88917135  0.50791517  1  0  0.092801  0  0.924454  0  0  0.108719  0  0.98375  0  0  0.110643  0  0.982899  0  0.033485  0  0.098076  0.107238  0  0.984548  0
H  H16  1  0.37144903  0.49038467  0.46083938  1  0  0.040919  0  0.922912  0  0  0.057724  0  0.975322  0  0  0.057907  0  0.976323  0  0.012853  0  0.091033  0.057545  0  0.974684  0
H  H17  1  0.62854842  0.50961581  0.53915999  1  0  0.040991  0  0.922882  0  0  0.057756  0  0.975328  0  0  0.057939  0  0.97633  0  0.012732  0  0.091062  0.057578  0  0.974689  0
H  H18  1  0.02224713  0.50226544  0.43205842  1  0  0.062695  0  0.978625  0  0  0.080369  0  1.042633  0  0  0.081149  0  1.043119  0  0.0148  0  0.086268  0.079762  0  1.042334  0
H  H19  1  0.97775028  0.49773409  0.56794118  1  0  0.062711  0  0.978561  0  0  0.080371  0  1.042572  0  0  0.08115  0  1.043057  0  0.014796  0  0.086258  0.079764  0  1.042273  0
H  H20  1  0.17776790  0.53971144  0.32567660  1  0  0.067384  0  0.92964  0  0  0.08582  0  0.989898  0  0  0.087216  0  0.98936  0  0.023233  0  0.087214  0.08474  0  0.990377  0
H  H21  1  0.82223093  0.46028715  0.67432316  1  0  0.067414  0  0.929619  0  0  0.085834  0  0.989873  0  0  0.087231  0  0.989332  0  0.023152  0  0.087213  0.084756  0  0.99035  0
H  H22  1  0.90635573  0.38807571  0.33296070  1  0  0.051289  0  0.942636  0  0  0.064195  0  1.002975  0  0  0.065251  0  1.002882  0  0.013827  0  0.093105  0.063366  0  1.003213  0
H  H23  1  0.09364173  0.61192476  0.66703932  1  0  0.051309  0  0.942651  0  0  0.06424  0  1.003003  0  0  0.065297  0  1.00291  0  0.013843  0  0.093123  0.063411  0  1.003241  0
H  H24  1  0.22542685  0.37656886  0.24222671  1  0  0.069819  0  0.940197  0  0  0.089392  0  0.999498  0  0  0.090427  0  0.999662  0  0.001664  0  0.090644  0.088588  0  0.999476  0
H  H25  1  0.77457202  0.62343067  0.75777346  1  0  0.069874  0  0.940171  0  0  0.089465  0  0.999436  0  0  0.090503  0  0.999593  0  0.001648  0  0.090672  0.088658  0  0.999416  0
H  H26  1  0.11051722  0.22622256  0.29465381  1  0  0.069761  0  0.958764  0  0  0.082305  0  1.032018  0  0  0.08449  0  1.030642  0  0.025347  0  0.097652  0.08067  0  1.033149  0
H  H27  1  0.88948306  0.77377603  0.70534717  1  0  0.069785  0  0.958752  0  0  0.082324  0  1.031996  0  0  0.08451  0  1.030618  0  0.02535  0  0.09767  0.080689  0  1.033125  0
H  H28  1  0.57874780  0.32525757  0.42292380  1  0  0.081321  0  0.944846  0  0  0.097065  0  1.010278  0  0  0.098068  0  1.010509  0  0.055217  0  0.094721  0.096261  0  1.010262  0
H  H29  1  0.42124973  0.67474479  0.57707576  1  0  0.081316  0  0.944832  0  0  0.097062  0  1.01027  0  0  0.098065  0  1.0105  0  0.055191  0  0.094722  0.096259  0  1.010254  0
H  H30  1  0.50915248  0.43715572  0.32097558  1  0  0.07267  0  0.964958  0  0  0.087622  0  1.033156  0  0  0.088416  0  1.033547  0  0.008009  0  0.090637  0.086995  0  1.032963  0
H  H31  1  0.49084639  0.56284381  0.67902460  1  0  0.072653  0  0.964962  0  0  0.0876  0  1.033167  0  0  0.088394  0  1.033557  0  0.007989  0  0.09063  0.086975  0  1.032971  0
H  H32  1  0.59864520  0.76669598  0.90707192  1  0  0.069099  0  0.959142  0  0  0.081804  0  1.031987  0  0  0.083991  0  1.030562  0  0.017889  0  0.096694  0.08016  0  1.033163  0
H  H33  1  0.40135662  0.23330450  0.09292787  1  0  0.069121  0  0.959086  0  0  0.081821  0  1.031922  0  0  0.084007  0  1.030498  0  0.017888  0  0.0967  0.080177  0  1.033096  0
H  H34  1  0.70598844  0.61733299  0.93108054  1  0  0.072501  0  0.93568  0  0  0.091126  0  0.997695  0  0  0.09179  0  0.998423  0  0.011209  0  0.091843  0.090564  0  0.997302  0
H  H35  1  0.29401047  0.38266749  0.06891875  1  0  0.072499  0  0.935645  0  0  0.091124  0  0.997654  0  0  0.091788  0  0.998381  0  0.01121  0  0.091844  0.09056  0  0.997263  0
H  H36  1  0.72134095  0.92730303  0.97432277  1  0  0.080756  0  0.944909  0  0  0.093287  0  1.01335  0  0  0.094862  0  1.013081  0  0.042575  0  0.094736  0.092131  0  1.013584  0
H  H37  1  0.27866228  0.07269650  0.02567783  1  0  0.080756  0  0.9449  0  0  0.093273  0  1.013331  0  0  0.094846  0  1.013063  0  0.042542  0  0.094722  0.092115  0  1.013567  0
H  H38  1  0.90678668  0.88665843  0.04884472  1  0  0.092894  0  0.923835  0  0  0.10845  0  0.983525  0  0  0.110372  0  0.982716  0  0.036515  0  0.098231  0.106978  0  0.984272  0
H  H39  1  0.09321652  0.11334016  0.95115611  1  0  0.092914  0  0.923816  0  0  0.108447  0  0.983512  0  0  0.110369  0  0.982702  0  0.036535  0  0.098234  0.106975  0  0.984259  0
H  H40  1  0.97753443  0.56006812  0.03902351  1  0  0.071562  0  0.949452  0  0  0.086837  0  1.015747  0  0  0.088163  0  1.01514  0  0.022383  0  0.089052  0.08582  0  1.016299  0
H  H41  1  0.02246590  0.43993141  0.96097594  1  0  0.071548  0  0.949443  0  0  0.086812  0  1.015739  0  0  0.088136  0  1.015133  0  0.022593  0  0.089048  0.085792  0  1.016293  0
H  H42  1  0.05680353  0.67241366  0.08556200  1  0  0.080197  0  0.947001  0  0  0.096133  0  1.011922  0  0  0.096958  0  1.01244  0  0.019734  0  0.093829  0.095457  0  1.011697  0
H  H43  1  0.94319683  0.32758682  0.91443852  1  0  0.080208  0  0.947035  0  0  0.09611  0  1.011978  0  0  0.096934  0  1.012495  0  0.019748  0  0.093814  0.095433  0  1.011752  0
H  H44  1  0.83645020  0.50747776  0.20511837  1  0  0.048047  0  0.931993  0  0  0.06526  0  0.985152  0  0  0.065694  0  0.985976  0  0.026499  0  0.093652  0.064917  0  0.984617  0
H  H45  1  0.16355009  0.49252083  0.79488131  1  0  0.048033  0  0.932  0  0  0.065255  0  0.98519  0  0  0.065687  0  0.986016  0  0.026512  0  0.093669  0.064914  0  0.984655  0
H  H46  1  0.60549657  0.65510676  0.25225139  1  0  0.070878  0  0.933214  0  0  0.088767  0  0.993203  0  0  0.089797  0  0.993409  0  0.019187  0  0.090008  0.087975  0  0.993122  0
H  H47  1  0.39450521  0.34489277  0.74774863  1  0  0.070877  0  0.933247  0  0  0.088764  0  0.99322  0  0  0.089793  0  0.993423  0  0.019182  0  0.089991  0.087971  0  0.99314  0
H  H48  1  0.83991478  0.72768741  0.21072736  1  0  0.079812  0  0.925645  0  0  0.096312  0  0.985108  0  0  0.098042  0  0.984532  0  0.023404  0  0.093299  0.094999  0  0.985651  0
H  H49  1  0.16008555  0.27231212  0.78927274  1  0  0.07982  0  0.925611  0  0  0.096309  0  0.985075  0  0  0.098039  0  0.984497  0  0.023404  0  0.093295  0.094996  0  0.985617  0
H  H50  1  0.64214183  0.45499854  0.09627311  1  0  0.080786  0  0.94307  0  0  0.097209  0  1.007131  0  0  0.098408  0  1.007465  0  0.031275  0  0.091534  0.096297  0  1.007007  0
H  H51  1  0.35785991  0.54500005  0.90372714  1  0  0.080748  0  0.943114  0  0  0.097201  0  1.007175  0  0  0.098399  0  1.007508  0  0.031286  0  0.09154  0.096289  0  1.007051  0
H  H52  1  0.48661322  0.49411730  0.18234098  1  0  0.058172  0  0.972627  0  0  0.07341  0  1.042386  0  0  0.074137  0  1.042705  0  0.000872  0  0.083061  0.072782  0  1.042318  0
H  H53  1  0.51338711  0.50588223  0.81765846  1  0  0.058131  0  0.972679  0  0  0.073416  0  1.042416  0  0  0.074141  0  1.042737  0  0.000867  0  0.08306  0.072788  0  1.042349  0
H  H54  1  0.38218137  0.60509242  0.02562530  1  0  0.048941  0  0.941672  0  0  0.061488  0  1.005181  0  0  0.062363  0  1.005188  0  0.054544  0  0.092199  0.060813  0  1.005296  0
H  H55  1  0.61781904  0.39490899  0.97437433  1  0  0.04891  0  0.941693  0  0  0.061454  0  1.005203  0  0  0.062328  0  1.005212  0  0.054541  0  0.092195  0.06078  0  1.005318  0
H  H56  1  0.38053636  0.82062379  0.03273203  1  0  0.083594  0  0.927516  0  0  0.098712  0  0.990125  0  0  0.09996  0  0.990326  0  0.042048  0  0.092157  0.097802  0  0.990079  0
H  H57  1  0.61946400  0.17937668  0.96726784  1  0  0.083584  0  0.927528  0  0  0.098701  0  0.990145  0  0  0.099945  0  0.990345  0  0.042042  0  0.09215  0.097777  0  0.990114  0
H  H58  1  0.33734701  0.70954130  0.14654419  1  0  0.071293  0  0.940442  0  0  0.0852  0  1.007469  0  0  0.087115  0  1.00579  0  0.007555  0  0.087754  0.083797  0  1.008744  0
H  H59  1  0.66265335  0.29045917  0.85345633  1  0  0.071304  0  0.94042  0  0  0.085216  0  1.007449  0  0  0.087127  0  1.005767  0  0.007551  0  0.087758  0.083813  0  1.008721  0
C  C60  1  0.07996314  0.09552842  0.60845695  1  0  0.722008  0  3.789635  0  0  0.670431  0  4.089544  0  0  0.704226  0  4.07896  0  1.589058  0  0.242664  0.647451  0  4.096157  0
C  C61  1  0.92003722  0.90447206  0.39154291  1  0  0.721986  0  3.789688  0  0  0.670441  0  4.089572  0  0  0.704238  0  4.078988  0  1.589051  0  0.242669  0.647463  0  4.096185  0
C  C62  1  0.14026619  0.19806059  0.51492328  1  0  0.005153  0  3.5569  0  0  0.031039  0  3.785156  0  0  0.025749  0  3.803133  0  0.025857  0  -0.014453  0.034614  0  3.7728  0
C  C63  1  0.85973126  0.80193988  0.48507609  1  0  0.005255  0  3.556726  0  0  0.031063  0  3.78507  0  0  0.025773  0  3.803048  0  0.025857  0  -0.014435  0.034637  0  3.772715  0
C  C64  1  0.96545758  0.24943970  0.46186099  1  0  -0.172649  0  3.638028  0  0  -0.222371  0  3.890909  0  0  -0.223505  0  3.904522  0  -0.027953  0  -0.164749  -0.221406  0  3.881512  0
C  C65  1  0.03454129  0.75055983  0.53813918  1  0  -0.172758  0  3.637852  0  0  -0.222448  0  3.890794  0  0  -0.223581  0  3.904406  0  -0.027894  0  -0.164805  -0.221482  0  3.881397  0
C  C66  1  0.23809308  0.30661415  0.53645105  1  0  -0.172191  0  3.616939  0  0  -0.221072  0  3.868068  0  0  -0.222752  0  3.881847  0  -0.041363  0  -0.157927  -0.219701  0  3.858494  0
C  C67  1  0.76190583  0.69338632  0.46354889  1  0  -0.17221  0  3.616985  0  0  -0.221053  0  3.86807  0  0  -0.222729  0  3.881847  0  -0.041368  0  -0.157929  -0.219682  0  3.858497  0
C  C68  1  0.29063438  0.14739824  0.45393016  1  0  -0.176069  0  3.581899  0  0  -0.225834  0  3.825964  0  0  -0.227263  0  3.839296  0  -0.01471  0  -0.153413  -0.224614  0  3.816715  0
C  C69  1  0.70936599  0.85260223  0.54606970  1  0  -0.176078  0  3.581729  0  0  -0.225823  0  3.825787  0  0  -0.227253  0  3.839126  0  -0.014706  0  -0.153398  -0.224604  0  3.816541  0
C  C70  1  0.30346302  0.41324347  0.44496444  1  0  0.040389  0  3.634248  0  0  0.041975  0  3.876348  0  0  0.04173  0  3.893823  0  0.032946  0  -0.091259  0.04221  0  3.864252  0
C  C71  1  0.69653439  0.58675606  0.55503582  1  0  0.040369  0  3.634391  0  0  0.041968  0  3.876431  0  0  0.041723  0  3.893906  0  0.03301  0  -0.091251  0.042205  0  3.864334  0
C  C72  1  0.12917927  0.46277275  0.39100451  1  0  -0.168731  0  3.651872  0  0  -0.217353  0  3.907172  0  0  -0.219074  0  3.921187  0  -0.048311  0  -0.166101  -0.215969  0  3.897432  0
C  C73  1  0.87081673  0.53722772  0.60899494  1  0  -0.1689  0  3.651951  0  0  -0.217426  0  3.907186  0  0  -0.219151  0  3.921213  0  -0.048232  0  -0.16614  -0.216043  0  3.897446  0
C  C74  1  0.03346915  0.35490581  0.37022657  1  0  0.035497  0  3.62484  0  0  0.036525  0  3.86505  0  0  0.036148  0  3.882198  0  0.029232  0  -0.09331  0.036875  0  3.853161  0
C  C75  1  0.96652972  0.64509372  0.62977361  1  0  0.035605  0  3.624665  0  0  0.036479  0  3.865053  0  0  0.036099  0  3.8822  0  0.029228  0  -0.093312  0.036828  0  3.853163  0
C  C76  1  0.18004551  0.30317161  0.30974069  1  0  -0.162583  0  3.615553  0  0  -0.215057  0  3.868454  0  0  -0.216546  0  3.881828  0  -0.019998  0  -0.156715  -0.21383  0  3.859179  0
C  C77  1  0.81995332  0.69682698  0.69025972  1  0  -0.162676  0  3.61551  0  0  -0.215111  0  3.868406  0  0  -0.2166  0  3.881782  0  -0.019984  0  -0.156729  -0.213882  0  3.859132  0
C  C78  1  0.45303486  0.36182951  0.38541891  1  0  -0.179087  0  3.63975  0  0  -0.231165  0  3.890503  0  0  -0.232218  0  3.904159  0  -0.045081  0  -0.163747  -0.230227  0  3.881023  0
C  C79  1  0.54696256  0.63817002  0.61458135  1  0  -0.179089  0  3.639772  0  0  -0.231171  0  3.890506  0  0  -0.232227  0  3.904169  0  -0.045073  0  -0.163742  -0.230237  0  3.88103  0
C  C80  1  0.35917875  0.25498639  0.36161278  1  0  -0.000768  0  3.578854  0  0  0.029369  0  3.803348  0  0  0.024201  0  3.821002  0  0.033187  0  -0.01301  0.032858  0  3.791202  0
C  C81  1  0.64081863  0.74501220  0.63838836  1  0  -0.000693  0  3.578694  0  0  0.029456  0  3.803143  0  0  0.024288  0  3.820799  0  0.0332  0  -0.013022  0.032945  0  3.790996  0
C  C82  1  0.50649386  0.20291594  0.30349780  1  0  0.698924  0  3.751395  0  0  0.645231  0  4.045954  0  0  0.678123  0  4.037133  0  1.508527  0  0.236102  0.622833  0  4.051473  0
C  C83  1  0.49350642  0.79708265  0.69650318  1  0  0.698953  0  3.751325  0  0  0.645255  0  4.045873  0  0  0.678147  0  4.037052  0  1.508521  0  0.236124  0.622857  0  4.051393  0
C  C84  1  0.99390114  0.79530251  0.90563910  1  0  0.698441  0  3.752759  0  0  0.647659  0  4.043236  0  0  0.68057  0  4.034323  0  1.509591  0  0.235669  0.625249  0  4.048824  0
C  C85  1  0.00609923  0.20469796  0.09436011  1  0  0.69859  0  3.752651  0  0  0.647725  0  4.043246  0  0  0.680637  0  4.034333  0  1.509827  0  0.235695  0.625314  0  4.048835  0
C  C86  1  0.84282285  0.74199068  0.98946794  1  0  0.001935  0  3.582771  0  0  0.029348  0  3.810815  0  0  0.024119  0  3.828548  0  0.039286  0  -0.012106  0.032867  0  3.798586  0
C  C87  1  0.15717606  0.25800980  0.01053200  1  0  0.001871  0  3.58284  0  0  0.029275  0  3.810906  0  0  0.024045  0  3.828637  0  0.039021  0  -0.012117  0.032795  0  3.798676  0
C  C88  1  0.66245789  0.69134811  0.96112539  1  0  -0.163792  0  3.613664  0  0  -0.214798  0  3.865928  0  0  -0.216379  0  3.879792  0  -0.029261  0  -0.156563  -0.213504  0  3.856327  0
C  C89  1  0.33754098  0.30865142  0.03887478  1  0  -0.163792  0  3.613557  0  0  -0.214774  0  3.865794  0  0  -0.216355  0  3.879657  0  -0.029253  0  -0.156561  -0.213479  0  3.856193  0
C  C90  1  0.78012670  0.84915498  0.02845996  1  0  -0.175733  0  3.584733  0  0  -0.225444  0  3.830638  0  0  -0.226763  0  3.843839  0  -0.03413  0  -0.154086  -0.224263  0  3.821373  0
C  C91  1  0.21987363  0.15084455  0.97154079  1  0  -0.175711  0  3.584795  0  0  -0.225384  0  3.830584  0  0  -0.226702  0  3.843785  0  -0.034127  0  -0.154075  -0.224202  0  3.821314  0
C  C92  1  0.92815073  0.63570891  0.06618940  1  0  -0.173361  0  3.634563  0  0  -0.223608  0  3.885908  0  0  -0.224534  0  3.899333  0  -0.026878  0  -0.162748  -0.222781  0  3.876614  0
C  C93  1  0.07184960  0.36429062  0.93381004  1  0  -0.173339  0  3.634566  0  0  -0.223509  0  3.885904  0  0  -0.224433  0  3.899331  0  -0.027047  0  -0.16273  -0.22268  0  3.87661  0
C  C94  1  0.77423219  0.58409244  0.15119167  1  0  0.041506  0  3.621015  0  0  0.042098  0  3.860865  0  0  0.041792  0  3.878155  0  0.023865  0  -0.090786  0.042427  0  3.848816  0
C  C95  1  0.22576960  0.41590709  0.84880835  1  0  0.04155  0  3.62096  0  0  0.042042  0  3.860992  0  0  0.041731  0  3.878284  0  0.024092  0  -0.090806  0.042367  0  3.848945  0
C  C96  1  0.71350696  0.69022822  0.18987496  1  0  -0.169474  0  3.614956  0  0  -0.216962  0  3.865481  0  0  -0.218598  0  3.879561  0  -0.033932  0  -0.156966  -0.215638  0  3.855711  0
C  C97  1  0.28649482  0.30977131  0.81012572  1  0  -0.169535  0  3.615024  0  0  -0.216982  0  3.865452  0  0  -0.218609  0  3.879522  0  -0.034005  0  -0.156985  -0.215657  0  3.855683  0
C  C98  1  0.59754387  0.53288004  0.12184072  1  0  -0.174476  0  3.641405  0  0  -0.222741  0  3.897441  0  0  -0.22466  0  3.911687  0  -0.024724  0  -0.169247  -0.221227  0  3.887569  0
C  C99  1  0.40245795  0.46712043  0.87815907  1  0  -0.174408  0  3.641366  0  0  -0.222783  0  3.897565  0  0  -0.224698  0  3.911807  0  -0.02474  0  -0.169287  -0.221269  0  3.887694  0
C  C100  1  0.62458199  0.79806408  0.11403154  1  0  0.003404  0  3.555192  0  0  0.03066  0  3.781497  0  0  0.025409  0  3.799498  0  0.035281  0  -0.014675  0.03422  0  3.769133  0
C  C101  1  0.37541979  0.20193545  0.88596979  1  0  0.0033  0  3.555392  0  0  0.030714  0  3.781372  0  0  0.025456  0  3.799368  0  0.035243  0  -0.014608  0.034274  0  3.769005  0
C  C102  1  0.51061199  0.63944626  0.04683454  1  0  0.034924  0  3.626574  0  0  0.035125  0  3.865138  0  0  0.0348  0  3.882443  0  -0.000188  0  -0.093231  0.035443  0  3.85321  0
C  C103  1  0.48938838  0.36055422  0.95316532  1  0  0.034983  0  3.626541  0  0  0.035231  0  3.865098  0  0  0.034904  0  3.882391  0  -0.000195  0  -0.093206  0.035551  0  3.853164  0
C  C104  1  0.44793039  0.74532961  0.08548728  1  0  -0.175717  0  3.643766  0  0  -0.223094  0  3.892778  0  0  -0.22448  0  3.906826  0  -0.018138  0  -0.165295  -0.222053  0  3.883208  0
C  C105  1  0.55206997  0.25467086  0.91451259  1  0  -0.175695  0  3.643824  0  0  -0.223157  0  3.892864  0  0  -0.224521  0  3.906882  0  -0.018116  0  -0.1653  -0.222106  0  3.883296  0
C  C106  1  0.56993208  0.90167187  0.15547437  1  0  0.72367  0  3.785821  0  0  0.67018  0  4.088533  0  0  0.703978  0  4.077949  0  1.567236  0  0.24189  0.647188  0  4.095153  0
C  C107  1  0.43007123  0.09832954  0.84452576  1  0  0.723721  0  3.785718  0  0  0.670228  0  4.088347  0  0  0.704023  0  4.077767  0  1.567223  0  0.241965  0.647237  0  4.094968  0
O  O108  1  0.89904942  0.08234127  0.64057757  1  0  -0.768101  0  1.952845  0  0  -0.705974  0  2.19387  0  0  -0.729225  0  2.176385  0  -1.273775  0  -0.384113  -0.689958  0  2.205527  0
O  O109  1  0.10094937  0.91765638  0.35942372  1  0  -0.768112  0  1.952931  0  0  -0.705992  0  2.193928  0  0  -0.729243  0  2.176443  0  -1.273766  0  -0.384101  -0.689977  0  2.205584  0
O  O110  1  0.21333720  0.03143027  0.65047909  1  0  -0.72495  0  2.02673  0  0  -0.673355  0  2.270812  0  0  -0.696648  0  2.25742  0  -1.260161  0  -0.359725  -0.657257  0  2.279555  0
O  O111  1  0.78666470  0.96857209  0.34952089  1  0  -0.724952  0  2.02673  0  0  -0.673368  0  2.2708  0  0  -0.696654  0  2.257396  0  -1.260161  0  -0.35973  -0.65727  0  2.279543  0
O  O112  1  0.68458315  0.23243986  0.29084090  1  0  -0.626061  0  1.936495  0  0  -0.572681  0  2.162516  0  0  -0.594999  0  2.153945  0  -1.191886  0  -0.313665  -0.55748  0  2.168173  0
O  O113  1  0.31541717  0.76755967  0.70915985  1  0  -0.626059  0  1.936518  0  0  -0.572679  0  2.162542  0  0  -0.594994  0  2.153971  0  -1.191883  0  -0.313639  -0.557478  0  2.1682  0
O  O114  1  0.45008076  0.12203834  0.26638003  1  0  -0.858499  0  2.034842  0  0  -0.783685  0  2.286308  0  0  -0.80729  0  2.266715  0  -1.3123  0  -0.41217  -0.767417  0  2.299518  0
O  O115  1  0.54991814  0.87796213  0.73362056  1  0  -0.858587  0  2.034853  0  0  -0.78376  0  2.286323  0  0  -0.807367  0  2.266727  0  -1.312312  0  -0.412216  -0.767489  0  2.299532  0
O  O116  1  0.94391151  0.87836996  0.82953574  1  0  -0.858242  0  2.038959  0  0  -0.78377  0  2.289163  0  0  -0.807433  0  2.269558  0  -1.316239  0  -0.411663  -0.767469  0  2.302386  0
O  O117  1  0.05609180  0.12163145  0.17046243  1  0  -0.85831  0  2.03894  0  0  -0.783821  0  2.289173  0  0  -0.80748  0  2.26957  0  -1.316212  0  -0.411704  -0.76752  0  2.302396  0
O  O118  1  0.16937522  0.76481882  0.90649256  1  0  -0.631184  0  1.939719  0  0  -0.578523  0  2.165358  0  0  -0.6007  0  2.156271  0  -1.205328  0  -0.314775  -0.56339  0  2.171334  0
O  O119  1  0.83062519  0.23518259  0.09350642  1  0  -0.631252  0  1.939708  0  0  -0.578548  0  2.165353  0  0  -0.600727  0  2.15627  0  -1.205335  0  -0.314748  -0.563414  0  2.171328  0
O  O120  1  0.38949376  0.91453407  0.18029537  1  0  -0.767878  0  1.946559  0  0  -0.7051  0  2.187842  0  0  -0.728326  0  2.170293  0  -1.265709  0  -0.383879  -0.689102  0  2.199545  0
O  O121  1  0.61050948  0.08546546  0.81970391  1  0  -0.767869  0  1.946517  0  0  -0.705097  0  2.187802  0  0  -0.728324  0  2.170254  0  -1.265726  0  -0.383881  -0.689099  0  2.199503  0
O  O122  1  0.70702997  0.96761515  0.16509434  1  0  -0.727454  0  2.025794  0  0  -0.675079  0  2.270548  0  0  -0.698389  0  2.257072  0  -1.256149  0  -0.359552  -0.659011  0  2.279434  0
O  O123  1  0.29297181  0.03238438  0.83490699  1  0  -0.727485  0  2.025718  0  0  -0.675127  0  2.270483  0  0  -0.698434  0  2.257007  0  -1.256123  0  -0.359653  -0.659059  0  2.279372  0
