# generated using pymatgen
data_MgH7C11SN2O3
_symmetry_space_group_name_H-M   'P 1'
_cell_length_a   6.90415363
_cell_length_b   31.38833428
_cell_length_c   31.38225461
_cell_angle_alpha   119.46427186
_cell_angle_beta   94.18689390
_cell_angle_gamma   94.21853640
_symmetry_Int_Tables_number   1
_chemical_formula_structural   MgH7C11SN2O3
_chemical_formula_sum   'Mg6 H42 C66 S6 N12 O18'
_cell_volume   5858.31965014
_cell_formula_units_Z   6
loop_
 _symmetry_equiv_pos_site_id
 _symmetry_equiv_pos_as_xyz
  1  'x, y, z'
loop_
 _atom_site_type_symbol
 _atom_site_label
 _atom_site_symmetry_multiplicity
 _atom_site_fract_x
 _atom_site_fract_y
 _atom_site_fract_z
 _atom_site_occupancy
 _atom_site_pbe_bader_charge
 _atom_site_pbe_bader_spin_density
 _atom_site_pbe_cm5_charge
 _atom_site_pbe_ddec_charge
 _atom_site_pbe_ddec_spin_density
 _atom_site_pbe_ddec_sum_bond_order
 _atom_site_pbe_magmom
Mg  Mg0  1  0.57359678  0.29661741  0.65810070  1  1.683539  0  0.907359  1.408264  0  1.330172  0
Mg  Mg1  1  0.91560739  0.34188015  0.63836439  1  1.683862  0  0.907435  1.408127  0  1.330449  0
Mg  Mg2  1  0.27707042  0.36162300  0.70338613  1  1.682016  0  0.907639  1.40818  0  1.330871  0
Mg  Mg3  1  0.20530725  0.62792041  0.31691051  1  1.685117  0  0.907672  1.413135  0  1.317869  0
Mg  Mg4  1  0.88827275  0.68298475  0.31107361  1  1.684408  0  0.907401  1.412763  0  1.318285  0
Mg  Mg5  1  0.57723091  0.68878748  0.37196050  1  1.685976  0  0.907405  1.412936  0  1.317901  0
H  H6  1  0.38779356  0.42020827  0.88405301  1  0.434656  0  0.314943  0.267337  0  0.947809  0
H  H7  1  0.50407344  0.11591939  0.53619026  1  0.445527  0  0.314839  0.266904  0  0.948056  0
H  H8  1  0.96769407  0.46385455  0.57981597  1  0.445258  0  0.314835  0.267053  0  0.947599  0
H  H9  1  0.31827174  0.45660504  0.00543292  1  0.107667  0  0.101454  0.115387  0  1.019105  0
H  H10  1  0.31367875  0.99455767  0.45130575  1  0.10212  0  0.100857  0.114346  0  1.018697  0
H  H11  1  0.86156559  0.54882334  0.54346476  1  0.116679  0  0.101016  0.114491  0  1.019008  0
H  H12  1  0.08218118  0.50855903  0.05472607  1  0.083027  0  0.112303  0.129981  0  0.985358  0
H  H13  1  0.02780061  0.94528191  0.45378666  1  0.092457  0  0.112201  0.130239  0  0.986936  0
H  H14  1  0.57314315  0.54625158  0.49169805  1  0.093903  0  0.112352  0.129925  0  0.986559  0
H  H15  1  0.63278479  0.51948158  0.00380234  1  0.475908  0  0.311271  0.278197  0  0.938616  0
H  H16  1  0.62872902  0.99607566  0.51543621  1  0.468639  0  0.310941  0.277816  0  0.938456  0
H  H17  1  0.11296322  0.48436842  0.48068109  1  0.456025  0  0.311029  0.277384  0  0.939214  0
H  H18  1  0.03344621  0.59502166  0.06585082  1  0.440221  0  0.32358  0.270805  0  0.92495  0
H  H19  1  0.96734472  0.93410455  0.52902988  1  0.438126  0  0.323604  0.271478  0  0.92436  0
H  H20  1  0.43850986  0.47086549  0.40520741  1  0.449297  0  0.323548  0.270958  0  0.924539  0
H  H21  1  0.85013183  0.60454192  0.17943926  1  0.123929  0  0.096846  0.132164  0  1.055957  0
H  H22  1  0.67113957  0.82049856  0.42499168  1  0.116321  0  0.096852  0.132249  0  1.055959  0
H  H23  1  0.24641986  0.57493656  0.39570417  1  0.13702  0  0.096594  0.132138  0  1.056764  0
H  H24  1  0.54443080  0.66199803  0.18297423  1  0.125028  0  0.105912  0.112221  0  0.999435  0
H  H25  1  0.36191521  0.81702490  0.47885259  1  0.111633  0  0.10593  0.1122  0  0.999568  0
H  H26  1  0.88301067  0.52098645  0.33814060  1  0.084599  0  0.105816  0.112194  0  0.999399  0
H  H27  1  0.31449499  0.63057594  0.10648055  1  0.057237  0  0.096621  0.104592  0  1.012907  0
H  H28  1  0.20855163  0.89355371  0.52383588  1  0.072464  0  0.096621  0.10417  0  1.012529  0
H  H29  1  0.68450682  0.47593351  0.36961138  1  0.022953  0  0.096748  0.104482  0  1.01286  0
H  H30  1  0.80789836  0.50765737  0.92610014  1  0.060559  0  0.100657  0.109824  0  0.994597  0
H  H31  1  0.88104877  0.07384472  0.58138550  1  0.075562  0  0.100769  0.110471  0  0.994884  0
H  H32  1  0.30009606  0.41839456  0.49242797  1  0.046542  0  0.100626  0.109908  0  0.995398  0
H  H33  1  0.04137906  0.45263620  0.87568429  1  0.032515  0  0.101499  0.112075  0  1.005987  0
H  H34  1  0.16516017  0.12427817  0.57688306  1  0.079298  0  0.101463  0.111587  0  1.006669  0
H  H35  1  0.58871808  0.42300096  0.54740394  1  0.065865  0  0.101129  0.111513  0  1.006338  0
H  H36  1  0.53071116  0.32391694  0.89804631  1  0.472002  0  0.327887  0.297631  0  0.903221  0
H  H37  1  0.63276413  0.10193917  0.42583305  1  0.48557  0  0.327608  0.297414  0  0.903754  0
H  H38  1  0.20721633  0.57419275  0.67602189  1  0.4802  0  0.327679  0.297509  0  0.904136  0
H  H39  1  0.32658237  0.33953588  0.80196484  1  0.061355  0  0.108366  0.137082  0  1.018638  0
H  H40  1  0.52492599  0.19801734  0.53748856  1  0.087925  0  0.108487  0.137351  0  1.018798  0
H  H41  1  0.98755268  0.46246748  0.66042401  1  0.087412  0  0.1084  0.137324  0  1.018657  0
H  H42  1  0.05161899  0.36065063  0.82447015  1  0.0624  0  0.100693  0.094771  0  1.041643  0
H  H43  1  0.22745430  0.17554505  0.53606566  1  0.072852  0  0.10085  0.094263  0  1.04171  0
H  H44  1  0.69186157  0.46415620  0.63967676  1  0.06233  0  0.10069  0.094578  0  1.041739  0
H  H45  1  0.87493943  0.35661767  0.88859271  1  0.112574  0  0.097664  0.12019  0  1.034887  0
H  H46  1  0.98673833  0.11137490  0.46796716  1  0.116899  0  0.097771  0.120571  0  1.034408  0
H  H47  1  0.51915379  0.53223763  0.64365102  1  0.114197  0  0.09761  0.120065  0  1.034904  0
C  C48  1  0.34258421  0.37320581  0.91133460  1  0.721217  0  0.226843  0.381233  0  4.160548  0
C  C49  1  0.43165793  0.08862848  0.46190020  1  0.733858  0  0.227242  0.381895  0  4.160512  0
C  C50  1  0.96975177  0.53813884  0.62680364  1  0.751806  0  0.226719  0.381035  0  4.1612  0
C  C51  1  0.19097849  0.44940508  0.93681034  1  0.304433  0  0.073653  0.199076  0  4.05586  0
C  C52  1  0.25434233  0.06319170  0.51265164  1  0.296375  0  0.073635  0.197442  0  4.056616  0
C  C53  1  0.74149850  0.48738246  0.55066582  1  0.283315  0  0.073244  0.197605  0  4.055605  0
C  C54  1  0.20580847  0.46729299  0.98770473  1  0.019597  0  -0.092669  -0.150023  0  4.027543  0
C  C55  1  0.21850634  0.01229112  0.47965251  1  0.027736  0  -0.09184  -0.147057  0  4.023337  0
C  C56  1  0.73831025  0.52042289  0.53282170  1  0.001204  0  -0.092228  -0.148069  0  4.024251  0
C  C57  1  0.07249191  0.49702703  0.01566644  1  -0.010603  0  -0.096358  -0.168548  0  3.971432  0
C  C58  1  0.05698705  0.98431406  0.48131518  1  -0.056946  0  -0.096887  -0.171404  0  3.972254  0
C  C59  1  0.57511939  0.51870482  0.50317695  1  -0.011186  0  -0.096741  -0.169747  0  3.972824  0
C  C60  1  0.92268639  0.51017341  0.99327360  1  0.303157  0  0.0821  0.220686  0  4.050899  0
C  C61  1  0.92922940  0.00669563  0.51678789  1  0.377516  0  0.082545  0.222795  0  4.049741  0
C  C62  1  0.41219720  0.48313776  0.49001453  1  0.304788  0  0.082126  0.220825  0  4.050973  0
C  C63  1  0.78603909  0.56136272  0.07109045  1  0.671264  0  0.217929  0.358599  0  4.165986  0
C  C64  1  0.71511377  0.92881080  0.49000095  1  0.705617  0  0.217649  0.357684  0  4.167481  0
C  C65  1  0.22479161  0.50978718  0.43882226  1  0.669406  0  0.217963  0.357861  0  4.166127  0
C  C66  1  0.06786385  0.61458643  0.13786603  1  0.305952  0  0.097788  0.269195  0  4.050298  0
C  C67  1  0.93038480  0.86210930  0.47655489  1  0.30463  0  0.097355  0.268721  0  4.051197  0
C  C68  1  0.45378624  0.52327657  0.38558349  1  0.277456  0  0.097198  0.268661  0  4.049287  0
C  C69  1  0.00163187  0.61719016  0.17994622  1  0.010422  0  -0.118916  -0.318385  0  3.899811  0
C  C70  1  0.82212251  0.81999987  0.43714048  1  -0.006109  0  -0.118296  -0.317226  0  3.898503  0
C  C71  1  0.38506290  0.56274036  0.38296115  1  0.009068  0  -0.118593  -0.318305  0  3.900184  0
C  C72  1  0.13113176  0.63542421  0.22382945  1  0.599172  0  0.098326  0.388987  0  4.07581  0
C  C73  1  0.90764563  0.77609057  0.41156344  1  0.609626  0  0.097804  0.387656  0  4.075751  0
C  C74  1  0.49607617  0.58830502  0.36459908  1  0.617286  0  0.098365  0.38884  0  4.075901  0
C  C75  1  0.33249474  0.65093323  0.22428005  1  0.008664  0  -0.046109  -0.222585  0  3.959072  0
C  C76  1  0.10856769  0.77565767  0.42660505  1  -0.003577  0  -0.045789  -0.221022  0  3.958781  0
C  C77  1  0.68193999  0.57325071  0.34908769  1  -0.017541  0  -0.046126  -0.223004  0  3.960471  0
C  C78  1  0.39121555  0.65005086  0.18188081  1  -0.101212  0  -0.085319  -0.038753  0  4.04426  0
C  C79  1  0.20976186  0.81811080  0.46802381  1  -0.002626  0  -0.08594  -0.040603  0  4.045099  0
C  C80  1  0.74166075  0.53180088  0.35005740  1  0.017851  0  -0.085857  -0.039382  0  4.044289  0
C  C81  1  0.26297342  0.63280168  0.13947230  1  0.012415  0  -0.119368  -0.232145  0  4.046578  0
C  C82  1  0.12395086  0.86053877  0.49312684  1  -0.06975  0  -0.119056  -0.230605  0  4.044516  0
C  C83  1  0.63066173  0.50666482  0.36735372  1  -0.006949  0  -0.118937  -0.231192  0  4.044604  0
C  C84  1  0.48494628  0.66602783  0.26598361  1  1.498775  0  0.236045  0.679398  0  4.125707  0
C  C85  1  0.21911511  0.73389318  0.40009200  1  1.512166  0  0.236119  0.679227  0  4.126982  0
C  C86  1  0.81905727  0.59980793  0.33387297  1  1.492077  0  0.236137  0.680176  0  4.127222  0
C  C87  1  0.91860452  0.49575140  0.94317938  1  -0.051143  0  -0.108107  -0.181604  0  4.012174  0
C  C88  1  0.97497004  0.05679630  0.55245752  1  -0.118002  0  -0.108663  -0.184017  0  4.012532  0
C  C89  1  0.42265509  0.44741839  0.50437697  1  -0.034872  0  -0.108158  -0.182473  0  4.011495  0
C  C90  1  0.05094294  0.46522976  0.91501146  1  0.01366  0  -0.10038  -0.166329  0  4.027232  0
C  C91  1  0.13563569  0.08497417  0.55017802  1  -0.005975  0  -0.100231  -0.164033  0  4.026658  0
C  C92  1  0.58562553  0.44975576  0.53485500  1  -6.9e-05  0  -0.099823  -0.164569  0  4.025698  0
C  C93  1  0.58897712  0.35010963  0.85030109  1  0.284784  0  0.09662  0.265924  0  4.057904  0
C  C94  1  0.73905247  0.14967430  0.49974272  1  0.317146  0  0.097009  0.266742  0  4.055578  0
C  C95  1  0.23949313  0.50031737  0.64993652  1  0.354931  0  0.09718  0.267016  0  4.0588  0
C  C96  1  0.48603348  0.34566152  0.80787618  1  0.011985  0  -0.116824  -0.331766  0  3.920277  0
C  C97  1  0.67846749  0.19211336  0.53768280  1  -0.041411  0  -0.116929  -0.332336  0  3.920134  0
C  C98  1  0.14096289  0.46231491  0.65434931  1  -0.056524  0  -0.117143  -0.332796  0  3.920675  0
C  C99  1  0.58420939  0.34332819  0.76914397  1  0.589377  0  0.09498  0.387747  0  4.095489  0
C  C100  1  0.81529406  0.23086724  0.57405223  1  0.601224  0  0.094379  0.386997  0  4.096249  0
C  C101  1  0.24147175  0.42593548  0.65669927  1  0.591485  0  0.094908  0.387524  0  4.095254  0
C  C102  1  0.79419891  0.35140604  0.77678436  1  -0.050632  0  -0.049224  -0.231922  0  3.980845  0
C  C103  1  0.01766615  0.22323306  0.57450856  1  0.004291  0  -0.049357  -0.233076  0  3.981726  0
C  C104  1  0.44349767  0.42554897  0.64867802  1  -0.002281  0  -0.049428  -0.23308  0  3.981415  0
C  C105  1  0.89233519  0.35527611  0.81969014  1  -0.003205  0  -0.08285  -0.044514  0  4.031234  0
C  C106  1  0.07294050  0.18032400  0.53548013  1  -0.067631  0  -0.0832  -0.043248  0  4.030936  0
C  C107  1  0.53783733  0.46466496  0.64493816  1  -0.057827  0  -0.082663  -0.043375  0  4.030272  0
C  C108  1  0.79443789  0.35353798  0.85574190  1  0.038904  0  -0.10635  -0.20264  0  3.977079  0
C  C109  1  0.93907186  0.14424629  0.49770838  1  0.02399  0  -0.106121  -0.202748  0  3.976343  0
C  C110  1  0.44166491  0.50243359  0.64667093  1  0.014801  0  -0.106515  -0.202884  0  3.977228  0
C  C111  1  0.91183098  0.35674369  0.74217218  1  1.488521  0  0.232546  0.675566  0  4.133967  0
C  C112  1  0.16975968  0.25782977  0.61447201  1  1.494857  0  0.233214  0.675712  0  4.134023  0
C  C113  1  0.55554480  0.38557216  0.64326563  1  1.494419  0  0.232299  0.674358  0  4.135446  0
S  S114  1  0.21965805  0.35382205  0.94364780  1  -0.072305  0  -0.235436  -0.438493  0  1.965771  0
S  S115  1  0.27645872  0.05629530  0.41022089  1  -0.069654  0  -0.235965  -0.439144  0  1.96651  0
S  S116  1  0.86630649  0.58983479  0.64621184  1  -0.078842  0  -0.235155  -0.438252  0  1.966565  0
S  S117  1  0.60963987  0.55273266  0.09995819  1  -0.020857  0  -0.173476  -0.363972  0  2.07773  0
S  S118  1  0.51035543  0.89994699  0.45232974  1  0.017925  0  -0.1733  -0.362961  0  2.077209  0
S  S119  1  0.05722470  0.54729426  0.44745193  1  -0.024332  0  -0.173389  -0.363513  0  2.078922  0
N  N120  1  0.31371425  0.41422478  0.90788481  1  -1.220123  0  -0.404653  -0.357362  0  3.589143  0
N  N121  1  0.40616524  0.09209214  0.50639339  1  -1.240521  0  -0.404604  -0.357014  0  3.589569  0
N  N122  1  0.89959485  0.49365772  0.58580758  1  -1.243011  0  -0.404336  -0.356521  0  3.588687  0
N  N123  1  0.77159719  0.53584355  0.01959372  1  -1.19212  0  -0.422873  -0.406177  0  3.558089  0
N  N124  1  0.75181201  0.98032584  0.51607328  1  -1.256934  0  -0.422435  -0.405827  0  3.55768  0
N  N125  1  0.23550355  0.48378837  0.46433282  1  -1.174149  0  -0.422556  -0.405184  0  3.557995  0
N  N126  1  0.95586302  0.59324432  0.09143755  1  -1.244272  0  -0.388092  -0.318431  0  3.591529  0
N  N127  1  0.86452203  0.90849605  0.50160475  1  -1.241867  0  -0.387843  -0.319393  0  3.59226  0
N  N128  1  0.36291029  0.49823852  0.40696152  1  -1.242961  0  -0.38783  -0.317724  0  3.589837  0
N  N129  1  0.48911644  0.34745747  0.88665804  1  -1.21638  0  -0.404922  -0.369061  0  3.58414  0
N  N130  1  0.60282699  0.11328772  0.46077984  1  -1.250301  0  -0.404988  -0.369609  0  3.583805  0
N  N131  1  0.14220034  0.53925489  0.65250261  1  -1.253248  0  -0.404389  -0.368834  0  3.586792  0
O  O132  1  0.09330563  0.37362831  0.75430880  1  -1.243442  0  -0.362481  -0.654746  0  2.145218  0
O  O133  1  0.33903019  0.24567945  0.61924229  1  -1.250256  0  -0.362596  -0.654598  0  2.145283  0
O  O134  1  0.72008539  0.38082084  0.62635701  1  -1.243044  0  -0.362864  -0.65432  0  2.144852  0
O  O135  1  0.82576057  0.34380249  0.69874150  1  -1.302151  0  -0.404224  -0.765492  0  2.420746  0
O  O136  1  0.12696372  0.30124091  0.64495056  1  -1.303803  0  -0.404933  -0.765662  0  2.420172  0
O  O137  1  0.48219193  0.35505231  0.65614859  1  -1.299947  0  -0.404076  -0.764922  0  2.420921  0
O  O138  1  0.47908482  0.33202707  0.72648826  1  -1.314071  0  -0.445892  -0.775029  0  2.309193  0
O  O139  1  0.75269756  0.27352090  0.60537228  1  -1.31697  0  -0.445165  -0.773988  0  2.309382  0
O  O140  1  0.14741022  0.39456332  0.66796748  1  -1.3132  0  -0.446109  -0.774551  0  2.309804  0
O  O141  1  0.66172163  0.67959305  0.26446424  1  -1.245643  0  -0.35767  -0.645586  0  2.135667  0
O  O142  1  0.39737746  0.73540104  0.41517300  1  -1.245152  0  -0.357868  -0.645741  0  2.135445  0
O  O143  1  0.98228224  0.58474157  0.32030391  1  -1.241576  0  -0.358108  -0.646105  0  2.136689  0
O  O144  1  0.43567986  0.66388934  0.30400426  1  -1.302162  0  -0.406807  -0.773343  0  2.420302  0
O  O145  1  0.13167097  0.69583808  0.36000795  1  -1.30602  0  -0.406438  -0.773223  0  2.420548  0
O  O146  1  0.77170730  0.63990681  0.33593340  1  -1.297002  0  -0.406601  -0.773313  0  2.420629  0
O  O147  1  0.05907028  0.63683644  0.26300941  1  -1.308826  0  -0.44232  -0.772746  0  2.294607  0
O  O148  1  0.79626894  0.73688918  0.37388047  1  -1.310197  0  -0.442036  -0.772619  0  2.295668  0
O  O149  1  0.42241668  0.62599310  0.36309250  1  -1.309405  0  -0.441963  -0.772504  0  2.293696  0
