# generated using pymatgen
data_CuH2C4(NO)2
_symmetry_space_group_name_H-M   'P 1'
_cell_length_a   4.82968946
_cell_length_b   8.18986938
_cell_length_c   12.98425182
_cell_angle_alpha   101.89410937
_cell_angle_beta   90.07060932
_cell_angle_gamma   107.15986951
_symmetry_Int_Tables_number   1
_chemical_formula_structural   CuH2C4(NO)2
_chemical_formula_sum   'Cu4 H8 C16 N8 O8'
_cell_volume   479.12969247
_cell_formula_units_Z   4
loop_
 _symmetry_equiv_pos_site_id
 _symmetry_equiv_pos_as_xyz
  1  'x, y, z'
loop_
 _atom_site_type_symbol
 _atom_site_label
 _atom_site_symmetry_multiplicity
 _atom_site_fract_x
 _atom_site_fract_y
 _atom_site_fract_z
 _atom_site_occupancy
 _atom_site_hle17_ddec_charge
 _atom_site_hle17_ddec_spin_density
 _atom_site_hle17_ddec_sum_bond_order
 _atom_site_hle17_magmom
 _atom_site_hse06_10hf_ddec_charge
 _atom_site_hse06_10hf_ddec_spin_density
 _atom_site_hse06_10hf_ddec_sum_bond_order
 _atom_site_hse06_10hf_magmom
 _atom_site_hse06_ddec_charge
 _atom_site_hse06_ddec_spin_density
 _atom_site_hse06_ddec_sum_bond_order
 _atom_site_hse06_magmom
 _atom_site_pbe_cm5_charge
 _atom_site_pbe_ddec_charge
 _atom_site_pbe_ddec_spin_density
 _atom_site_pbe_ddec_sum_bond_order
 _atom_site_pbe_magmom
Cu  Cu0  1  0.57289107  0.47838880  0.85351198  1  0.856379  -0.601738  1.812406  -0.456  0.825151  -0.736752  2.207738  -0.601  0.918026  -0.836116  2.139875  -0.699  0.769151  0.762733  -0.597774  2.257252  -0.481
Cu  Cu1  1  0.09337095  0.52035202  0.64649009  1  0.8572  0.601603  1.812618  0.456  0.826081  0.736786  2.208128  0.601  0.91901  0.83615  2.140059  0.699  0.769144  0.763699  0.597858  2.257679  0.481
Cu  Cu2  1  0.42712240  0.52160765  0.14648591  1  0.856244  0.601763  1.813001  0.456  0.824969  0.736766  2.208378  0.601  0.917841  0.836117  2.140498  0.699  0.76921  0.762605  0.597767  2.257854  0.481
Cu  Cu3  1  0.90663283  0.47964574  0.35350796  1  0.857238  -0.601578  1.812207  -0.456  0.826173  -0.73678  2.207637  -0.601  0.919147  -0.836147  2.139624  -0.699  0.769053  0.763756  -0.597857  2.25721  -0.481
H  H4  1  0.39754182  0.94024520  0.07694650  1  0.14705  0.000117  0.965409  0.0  0.158028  0.000172  1.019002  0.0  0.161391  0.000117  1.018098  0.0  0.112465  0.155395  0.000216  1.019856  0.0
H  H5  1  0.45973963  0.06124543  0.42267105  1  0.146449  -0.000109  0.963173  0.0  0.157241  -0.000167  1.017141  0.0  0.160584  -0.000114  1.016257  0.0  0.112119  0.154608  -0.000209  1.017995  0.0
H  H6  1  0.60242622  0.05977218  0.92305408  1  0.147092  -0.000117  0.965263  0.0  0.157994  -0.000172  1.018963  0.0  0.161358  -0.000117  1.01806  0.0  0.1124  0.155363  -0.000216  1.019817  0.0
H  H7  1  0.54028973  0.93874969  0.57731820  1  0.146525  0.000109  0.963252  0.0  0.157364  0.000166  1.017131  0.0  0.160708  0.000113  1.016245  0.0  0.112159  0.154732  0.000209  1.01799  0.0
H  H8  1  0.01000661  0.82603236  0.21930562  1  0.119351  -0.000881  0.948948  -0.001  0.131139  -0.000468  1.002559  -0.001  0.132784  -0.000385  1.001504  0.0  0.123891  0.129618  -0.000432  1.003703  0.0
H  H9  1  0.18464917  0.17525712  0.28036649  1  0.1181  0.000889  0.949921  0.001  0.13007  0.000468  1.003743  0.001  0.13167  0.000384  1.002736  0.0  0.123412  0.128631  0.000433  1.004792  0.0
H  H10  1  0.98995722  0.17396012  0.78067711  1  0.119371  0.000891  0.9486  0.001  0.131208  0.000468  1.002175  0.001  0.132853  0.000385  1.001122  0.0  0.123924  0.129682  0.000433  1.003332  0.0
H  H11  1  0.81536382  0.82473013  0.71961789  1  0.117971  -0.000887  0.950044  -0.001  0.130059  -0.000468  1.003737  -0.001  0.131673  -0.000384  1.002691  0.0  0.123438  0.128621  -0.000433  1.004803  0.0
C  C12  1  0.14577912  0.70830996  0.85576408  1  0.60085  0.001307  3.917981  0.001  0.556531  0.000622  4.221572  0.0  0.594286  0.000362  4.212941  0.0  0.204286  0.530275  0.000716  4.226228  0.001
C  C13  1  0.43806713  0.29142411  0.64401983  1  0.599256  -0.001307  3.919236  -0.001  0.555001  -0.000641  4.22203  0.0  0.592729  -0.000375  4.213478  0.0  0.202536  0.528793  -0.000736  4.226634  -0.001
C  C14  1  0.85421791  0.29170743  0.14423651  1  0.601182  -0.001307  3.917721  -0.001  0.556816  -0.000621  4.221353  0.0  0.594575  -0.00036  4.21271  0.0  0.204254  0.530551  -0.000715  4.226013  -0.001
C  C15  1  0.56194373  0.70856711  0.35598046  1  0.599103  0.001315  3.919157  0.001  0.554924  0.000642  4.221813  0.0  0.592647  0.000378  4.213277  0.0  0.202523  0.528719  0.000737  4.226408  0.001
C  C16  1  0.05790607  0.73189935  0.96420482  1  0.02739  0.004484  3.810497  0.005  0.02864  0.002772  4.064989  0.004  0.027907  0.002163  4.085688  0.003  0.069911  0.02928  0.002902  4.051238  0.004
C  C17  1  0.32565789  0.26775550  0.53561485  1  0.026811  -0.004728  3.810237  -0.006  0.028876  -0.002843  4.063551  -0.004  0.028206  -0.002229  4.08416  -0.003  0.068914  0.029407  -0.002972  4.04993  -0.004
C  C18  1  0.94210417  0.26811545  0.03580467  1  0.027071  -0.00448  3.811051  -0.005  0.028372  -0.002772  4.065486  -0.004  0.027642  -0.002163  4.086177  -0.003  0.069784  0.029015  -0.002902  4.051736  -0.004
C  C19  1  0.67435004  0.73224228  0.46438937  1  0.026945  0.004713  3.810094  0.006  0.029057  0.002843  4.063265  0.004  0.028394  0.002229  4.083879  0.003  0.069041  0.029582  0.002973  4.049645  0.004
C  C20  1  0.19148999  0.83755816  0.06094989  1  -0.17763  0.004922  3.695057  0.006  -0.204843  0.002525  3.952619  0.003  -0.211081  0.002235  3.971123  0.003  -0.103057  -0.200767  0.002496  3.940629  0.003
C  C21  1  0.35475906  0.16310442  0.43876050  1  -0.177192  -0.004861  3.692762  -0.006  -0.204853  -0.002513  3.951058  -0.003  -0.211047  -0.002218  3.969489  -0.003  -0.102787  -0.200795  -0.002485  3.939127  -0.003
C  C22  1  0.80848366  0.16245797  0.93906748  1  -0.177656  -0.004919  3.69482  -0.006  -0.204863  -0.002528  3.952499  -0.003  -0.211098  -0.002236  3.971  -0.003  -0.102978  -0.200786  -0.002498  3.940507  -0.003
C  C23  1  0.64526675  0.83689598  0.56124637  1  -0.177276  0.004872  3.693057  0.006  -0.205005  0.002512  3.951338  0.003  -0.211201  0.002217  3.969769  0.003  -0.102831  -0.200945  0.002484  3.939423  0.003
C  C24  1  0.99398358  0.78346903  0.13435043  1  0.045173  0.000441  3.67917  0.0  0.006303  0.000703  3.958537  0.001  0.013049  0.000177  3.976447  0.0  0.011161  0.001959  0.000948  3.947276  0.001
C  C25  1  0.21077639  0.21721112  0.36536931  1  0.047678  -0.00045  3.676806  0.0  0.008763  -0.00072  3.956015  -0.001  0.015498  -0.000207  3.973949  0.0  0.012384  0.004383  -0.000955  3.944699  -0.001
C  C26  1  0.00597736  0.21653003  0.86564855  1  0.045235  -0.000478  3.6782  -0.001  0.006353  -0.000705  3.957601  -0.001  0.013093  -0.000176  3.975524  0.0  0.01117  0.002016  -0.000949  3.946344  -0.001
C  C27  1  0.78923750  0.78276962  0.63462578  1  0.047769  0.000426  3.677118  0.0  0.008736  0.000719  3.956327  0.001  0.015478  0.000202  3.974253  0.0  0.012328  0.004345  0.000954  3.945037  0.001
N  N28  1  0.75839236  0.65344223  0.08367162  1  -0.214866  0.071306  3.356559  0.095  -0.185771  0.054515  3.696822  0.076  -0.215021  0.048497  3.725808  0.071  -0.277938  -0.167707  0.04983  3.679588  0.068
N  N29  1  0.10335514  0.34615147  0.41618644  1  -0.21632  -0.071182  3.356972  -0.095  -0.187951  -0.054364  3.69822  -0.076  -0.217205  -0.04833  3.727223  -0.07  -0.278548  -0.169892  -0.049716  3.680988  -0.068
N  N30  1  0.24158865  0.34655555  0.91633337  1  -0.214891  -0.07132  3.356154  -0.095  -0.185878  -0.054525  3.69653  -0.076  -0.21513  -0.048503  3.725522  -0.071  -0.277903  -0.167803  -0.049837  3.679288  -0.068
N  N31  1  0.89665180  0.65383191  0.58381746  1  -0.216149  0.071157  3.357048  0.095  -0.187757  0.05435  3.698275  0.076  -0.216991  0.048321  3.72725  0.07  -0.278498  -0.169704  0.049707  3.681053  0.068
N  N32  1  0.79761466  0.62288277  0.98075485  1  -0.249772  -0.073291  3.373133  -0.097  -0.22461  -0.055335  3.70117  -0.077  -0.25158  -0.049407  3.730743  -0.072  -0.28607  -0.207458  -0.050935  3.683177  -0.069
N  N33  1  0.17282719  0.37607936  0.51914837  1  -0.249078  0.073536  3.370318  0.097  -0.223795  0.055419  3.697874  0.077  -0.250861  0.049452  3.727471  0.072  -0.285112  -0.206599  0.051048  3.679882  0.069
N  N34  1  0.20239710  0.37712679  0.01925243  1  -0.249623  0.073294  3.373098  0.097  -0.224444  0.055331  3.701119  0.077  -0.251409  0.049404  3.730683  0.072  -0.286004  -0.207299  0.050933  3.683125  0.069
N  N35  1  0.82716853  0.62391057  0.48085714  1  -0.24936  -0.073523  3.370386  -0.097  -0.224081  -0.055421  3.697901  -0.077  -0.25117  -0.049451  3.727527  -0.072  -0.285294  -0.206874  -0.051044  3.679907  -0.069
O  O36  1  0.38457734  0.78585759  0.82770767  1  -0.540766  -0.00914  1.932083  -0.012  -0.509698  -0.004927  2.161494  -0.007  -0.534728  -0.002949  2.152104  -0.004  -0.285393  -0.49135  -0.006886  2.167064  -0.009
O  O37  1  0.60162559  0.21498976  0.67183963  1  -0.54023  0.009058  1.934914  0.012  -0.509421  0.004899  2.164453  0.007  -0.534494  0.00293  2.155029  0.004  -0.284873  -0.491077  0.006858  2.170071  0.009
O  O38  1  0.61541819  0.21416505  0.17229899  1  -0.54084  0.00915  1.931802  0.012  -0.509781  0.004926  2.161251  0.007  -0.534811  0.002949  2.151862  0.004  -0.285329  -0.491447  0.006887  2.166849  0.009
O  O39  1  0.39835238  0.78499363  0.32816735  1  -0.540083  -0.009064  1.934706  -0.012  -0.509379  -0.004899  2.164281  -0.007  -0.53445  -0.002932  2.154865  -0.004  -0.284852  -0.49104  -0.00686  2.169892  -0.009
O  O40  1  0.94284858  0.58704604  0.78762342  1  -0.613421  -0.004107  2.204924  -0.007  -0.580965  -0.001546  2.529797  -0.003  -0.63528  -0.0006  2.522094  -0.001  -0.338501  -0.54208  -0.002736  2.534372  -0.005
O  O41  1  0.35460232  0.41140736  0.71236692  1  -0.612388  0.003873  2.202206  0.006  -0.579855  0.00142  2.527187  0.003  -0.633815  0.000482  2.518692  0.001  -0.337062  -0.541  0.002625  2.531806  0.005
O  O42  1  0.05719930  0.41295301  0.21236556  1  -0.613464  0.004105  2.204717  0.007  -0.580978  0.001553  2.529602  0.003  -0.635305  0.000607  2.521918  0.001  -0.338487  -0.542094  0.002747  2.534169  0.005
O  O43  1  0.64538877  0.58859820  0.28761674  1  -0.612426  -0.003863  2.202466  -0.006  -0.57992  -0.001412  2.527436  -0.003  -0.633875  -0.000472  2.51894  -0.001  -0.337142  -0.541052  -0.002614  2.532015  -0.005
