# generated using pymatgen
data_NiH16C20S3(N2O)4
_symmetry_space_group_name_H-M   'P 1'
_cell_length_a   10.99322045
_cell_length_b   10.99322650
_cell_length_c   12.62363236
_cell_angle_alpha   89.18819685
_cell_angle_beta   89.18792269
_cell_angle_gamma   72.96709846
_symmetry_Int_Tables_number   1
_chemical_formula_structural   NiH16C20S3(N2O)4
_chemical_formula_sum   'Ni2 H32 C40 S6 N16 O8'
_cell_volume   1458.43467508
_cell_formula_units_Z   2
loop_
 _symmetry_equiv_pos_site_id
 _symmetry_equiv_pos_as_xyz
  1  'x, y, z'
loop_
 _atom_site_type_symbol
 _atom_site_label
 _atom_site_symmetry_multiplicity
 _atom_site_fract_x
 _atom_site_fract_y
 _atom_site_fract_z
 _atom_site_occupancy
 _atom_site_pbe_bader_charge
 _atom_site_pbe_bader_spin_density
 _atom_site_pbe_cm5_charge
 _atom_site_pbe_ddec_charge
 _atom_site_pbe_ddec_spin_density
 _atom_site_pbe_ddec_sum_bond_order
 _atom_site_pbe_magmom
Ni  Ni0  1  0.49999984  0.50000089  0.49999992  1  1.19695  1.5912  0.693189  0.777211  1.781887  2.580359  1.58
Ni  Ni1  1  0.49999886  0.50000026  0.99999882  1  1.197019  1.591211  0.693219  0.777264  1.781896  2.580313  1.58
H  H2  1  0.52933253  0.34238816  0.72376438  1  0.169393  0.000494  0.138815  0.116689  -2.9e-05  1.031216  0.0
H  H3  1  0.65761060  0.47066356  0.77623171  1  0.16905  0.000493  0.138817  0.116667  -2.9e-05  1.031177  0.0
H  H4  1  0.47066429  0.65761256  0.27623317  1  0.169818  0.000494  0.13882  0.11675  -2.9e-05  1.03115  0.0
H  H5  1  0.34238721  0.52933694  0.22376899  1  0.169047  0.000493  0.138807  0.116659  -2.9e-05  1.031194  0.0
H  H6  1  0.65778855  0.21094657  0.41713979  1  0.174212  0.000884  0.119323  0.130459  0.000275  1.036533  0.001
H  H7  1  0.78904999  0.34220906  0.08285883  1  0.174227  0.000884  0.119303  0.130399  0.000275  1.036541  0.001
H  H8  1  0.34221976  0.78904826  0.58286000  1  0.17419  0.000884  0.119319  0.130471  0.000275  1.03656  0.001
H  H9  1  0.21095358  0.65778712  0.91714263  1  0.174238  0.000884  0.119289  0.130414  0.000275  1.036546  0.001
H  H10  1  0.72140535  0.00498553  0.55842068  1  0.118269  0.001116  0.119766  0.121121  0.000493  1.016226  0.0
H  H11  1  0.99501477  0.27859373  0.94157419  1  0.118298  0.001117  0.119764  0.121076  0.000494  1.016211  0.0
H  H12  1  0.27860577  0.99501311  0.44158133  1  0.118359  0.001116  0.119739  0.121063  0.000493  1.016251  0.0
H  H13  1  0.00498491  0.72140434  0.05842097  1  0.118294  0.001116  0.119756  0.121129  0.000493  1.016175  0.0
H  H14  1  0.70565191  0.20379853  0.87278356  1  0.133328  -1.1e-05  0.109514  0.12903  -4.4e-05  1.050569  0.0
H  H15  1  0.79620015  0.29434694  0.62721339  1  0.133314  -1.1e-05  0.109511  0.129027  -4.4e-05  1.050499  0.0
H  H16  1  0.29435173  0.79619492  0.12721954  1  0.133271  -1.1e-05  0.109492  0.128977  -4.4e-05  1.050541  0.0
H  H17  1  0.20380340  0.70564921  0.37278649  1  0.133306  -1.1e-05  0.109524  0.129041  -4.4e-05  1.050462  0.0
H  H18  1  0.69653168  0.04256884  0.02597319  1  0.105623  2.4e-05  0.11772  0.144635  5e-06  0.977874  0.0
H  H19  1  0.95743609  0.30346741  0.47402634  1  0.105623  2.4e-05  0.117735  0.144667  5e-06  0.977811  0.0
H  H20  1  0.30346525  0.95742735  0.97402762  1  0.10567  2.4e-05  0.117716  0.14464  5e-06  0.977828  0.0
H  H21  1  0.04256933  0.69653096  0.52597344  1  0.105648  2.4e-05  0.117719  0.144644  5e-06  0.977874  0.0
H  H22  1  0.74432639  0.82752610  0.10113660  1  0.097995  0.001068  0.120118  0.117752  0.000469  1.021555  0.0
H  H23  1  0.17247681  0.25567781  0.39886202  1  0.098062  0.001068  0.120119  0.117714  0.000469  1.021696  0.0
H  H24  1  0.25566857  0.17247240  0.89886025  1  0.098173  0.001068  0.120136  0.117844  0.000469  1.02136  0.0
H  H25  1  0.82752866  0.74431876  0.60114017  1  0.098043  0.001068  0.120125  0.117743  0.000469  1.021596  0.0
H  H26  1  0.66997281  0.61331220  0.15892286  1  0.154912  0.000841  0.116513  0.115648  0.000227  1.03947  0.001
H  H27  1  0.38668779  0.33003242  0.34107948  1  0.15491  0.000841  0.116499  0.115634  0.000227  1.03947  0.001
H  H28  1  0.33002126  0.38668386  0.84107644  1  0.154933  0.000842  0.116517  0.115642  0.000227  1.039437  0.001
H  H29  1  0.61331566  0.66997291  0.65892335  1  0.154921  0.000841  0.116498  0.115637  0.000227  1.039479  0.001
H  H30  1  0.49056165  0.76054125  0.87137156  1  0.261127  0.000505  0.129015  0.115588  0.0  1.086173  0.0
H  H31  1  0.23945605  0.50943960  0.62863094  1  0.261046  0.000505  0.129058  0.115639  -0.0  1.086064  0.0
H  H32  1  0.50943143  0.23945781  0.12862770  1  0.260897  0.000505  0.128991  0.115497  -0.0  1.086126  0.0
H  H33  1  0.76053976  0.49056874  0.37137041  1  0.260777  0.000504  0.128977  0.115505  -0.0  1.086281  0.0
C  C34  1  0.57388491  0.28054872  0.65911966  1  0.945875  -0.004043  0.140551  0.091596  -0.004985  3.861914  -0.002
C  C35  1  0.71944744  0.42611417  0.84087699  1  0.945855  -0.004043  0.140528  0.091583  -0.004985  3.861895  -0.002
C  C36  1  0.42612050  0.71945057  0.34088089  1  0.945623  -0.004043  0.140514  0.091474  -0.004984  3.862092  -0.002
C  C37  1  0.28054943  0.57388566  0.15912295  1  0.945885  -0.004043  0.140535  0.091642  -0.004985  3.861917  -0.002
C  C38  1  0.64280504  0.20775628  0.50237041  1  0.415831  -0.000301  0.004125  -0.016205  -0.000792  3.951794  0.0
C  C39  1  0.79223980  0.35719141  0.99762680  1  0.415935  -0.000303  0.004116  -0.01624  -0.000792  3.951875  0.0
C  C40  1  0.35720420  0.79224290  0.49763322  1  0.415364  -0.000302  0.004078  -0.016278  -0.000792  3.951856  0.0
C  C41  1  0.20775996  0.64280489  0.00237316  1  0.415288  -0.000303  0.00412  -0.016255  -0.000792  3.951915  0.0
C  C42  1  0.67294265  0.10495526  0.57036002  1  0.240133  0.003533  -0.009494  -0.122334  0.00195  3.929122  0.002
C  C43  1  0.89504036  0.32705490  0.92963848  1  0.240231  0.003533  -0.009546  -0.122346  0.00195  3.929215  0.002
C  C44  1  0.32707029  0.89504740  0.42964106  1  0.240442  0.003534  -0.009469  -0.122247  0.00195  3.929011  0.002
C  C45  1  0.10495749  0.67294286  0.07036228  1  0.240725  0.003534  -0.009495  -0.122331  0.00195  3.929071  0.002
C  C46  1  0.64235829  0.08258482  0.76569767  1  0.160632  0.001071  0.078105  0.056767  0.000628  4.052724  0.001
C  C47  1  0.91741328  0.35764046  0.73430076  1  0.160591  0.00107  0.078134  0.056893  0.000627  4.052697  0.001
C  C48  1  0.35764809  0.91741237  0.23430211  1  0.160985  0.001068  0.078194  0.056921  0.000626  4.052639  0.001
C  C49  1  0.08258645  0.64235953  0.26570149  1  0.160688  0.001067  0.078169  0.05695  0.000626  4.052679  0.001
C  C50  1  0.67874851  0.11751627  0.86136097  1  0.071818  -6.7e-05  -0.103844  -0.159957  -0.000165  4.029576  0.0
C  C51  1  0.88248458  0.32125210  0.63863972  1  0.07159  -6.6e-05  -0.103855  -0.15997  -0.000163  4.029683  0.0
C  C52  1  0.32125608  0.88247785  0.13864368  1  0.071335  -6.5e-05  -0.103764  -0.159697  -0.000162  4.029347  0.0
C  C53  1  0.11751704  0.67874548  0.36135858  1  0.07179  -6.4e-05  -0.103913  -0.160016  -0.000162  4.029707  0.0
C  C54  1  0.67334089  0.03046945  0.94401649  1  0.05231  0.000223  -0.108967  -0.186118  3.4e-05  4.026897  0.0
C  C55  1  0.96953182  0.32665759  0.55598566  1  0.052562  0.000223  -0.108985  -0.186185  3.3e-05  4.026932  0.0
C  C56  1  0.32665698  0.96952832  0.05598585  1  0.052328  0.000222  -0.109041  -0.186337  3.3e-05  4.026902  0.0
C  C57  1  0.03046980  0.67334277  0.44401654  1  0.052637  0.000222  -0.108937  -0.18616  3.3e-05  4.026828  0.0
C  C58  1  0.63329255  0.93079900  0.90884607  1  0.175199  0.000934  0.088194  0.078373  0.000539  4.040963  0.001
C  C59  1  0.06919753  0.36671455  0.59115320  1  0.175167  0.000934  0.088277  0.078491  0.000538  4.040988  0.001
C  C60  1  0.36670813  0.06919700  0.09115071  1  0.175215  0.000935  0.08822  0.078462  0.000539  4.040908  0.001
C  C61  1  0.93079928  0.63328895  0.40884666  1  0.174886  0.000935  0.088224  0.078448  0.000539  4.041005  0.001
C  C62  1  0.68124511  0.78208812  0.06378644  1  0.212501  0.00342  -0.011361  -0.127383  0.001863  3.939169  0.002
C  C63  1  0.21791243  0.31875818  0.43621468  1  0.212523  0.003421  -0.011337  -0.127278  0.001863  3.939331  0.002
C  C64  1  0.31874982  0.21791314  0.93621193  1  0.212196  0.003419  -0.011362  -0.127491  0.001862  3.939024  0.002
C  C65  1  0.78208920  0.68124127  0.56378675  1  0.212501  0.00342  -0.01135  -0.12737  0.001863  3.939431  0.002
C  C66  1  0.64255257  0.67822884  0.09208758  1  0.467643  -2.2e-05  -0.001167  -0.026057  -0.000465  3.995257  0.0
C  C67  1  0.32177078  0.35745055  0.40791343  1  0.467662  -2.3e-05  -0.0012  -0.026104  -0.000466  3.995357  0.0
C  C68  1  0.35744340  0.32176853  0.90791323  1  0.46761  -2e-05  -0.001211  -0.026091  -0.000464  3.995297  0.0
C  C69  1  0.67823078  0.64255347  0.59208789  1  0.467446  -2.1e-05  -0.001187  -0.026098  -0.000465  3.995375  0.0
C  C70  1  0.54924290  0.74862955  0.94246835  1  0.902383  -0.003822  0.135636  0.088787  -0.004841  3.850941  -0.002
C  C71  1  0.25136926  0.45075949  0.55753473  1  0.902647  -0.003822  0.135536  0.08856  -0.004842  3.850856  -0.002
C  C72  1  0.45075208  0.25136712  0.05752854  1  0.900562  -0.003818  0.135711  0.088981  -0.00484  3.85058  -0.002
C  C73  1  0.74862931  0.54924983  0.44246178  1  0.900467  -0.003821  0.135562  0.088749  -0.004844  3.85068  -0.002
S  S74  1  0.60003036  0.94231206  0.77442992  1  0.258296  0.000347  0.107603  0.091386  4.3e-05  2.756232  0.0
S  S75  1  0.05768395  0.39997295  0.72557192  1  0.258318  0.000347  0.107534  0.091243  4.3e-05  2.756188  0.0
S  S76  1  0.39997313  0.05768682  0.22556831  1  0.258595  0.000347  0.107574  0.091323  4.3e-05  2.756082  0.0
S  S77  1  0.94231288  0.60003056  0.27442952  1  0.258348  0.000347  0.107549  0.091261  4.2e-05  2.756185  0.0
S  S78  1  0.61939033  0.38060802  0.25000068  1  3.796898  0.00875  0.54531  1.407757  0.009675  6.43574  0.015
S  S79  1  0.38060267  0.61939652  0.74999845  1  3.796992  0.008752  0.545269  1.407792  0.009675  6.435504  0.015
N  N80  1  0.58245098  0.31596468  0.55901093  1  -1.17998  0.067108  -0.338714  -0.262622  0.038473  3.573074  0.06
N  N81  1  0.68403127  0.41754734  0.94098579  1  -1.18015  0.06711  -0.338642  -0.262448  0.038473  3.572995  0.06
N  N82  1  0.41755439  0.68403643  0.44098878  1  -1.179858  0.067115  -0.33866  -0.262491  0.038477  3.573204  0.06
N  N83  1  0.31596847  0.58244987  0.05901335  1  -1.180026  0.067114  -0.338669  -0.262539  0.038476  3.573093  0.06
N  N84  1  0.62922237  0.15180246  0.67003294  1  -1.261948  0.001852  -0.231862  0.017271  0.000635  3.860983  0.001
N  N85  1  0.84819381  0.37077480  0.82996574  1  -1.261994  0.001852  -0.231806  0.0173  0.000635  3.860964  0.001
N  N86  1  0.37078872  0.84819706  0.32996747  1  -1.262389  0.001853  -0.231881  0.017142  0.000635  3.86112  0.001
N  N87  1  0.15180500  0.62922269  0.17003500  1  -1.262134  0.001852  -0.231837  0.017203  0.000635  3.860984  0.001
N  N88  1  0.62208878  0.82595621  0.96800201  1  -1.273784  0.002252  -0.230605  0.021691  0.000938  3.853041  0.002
N  N89  1  0.17404339  0.37791302  0.53200108  1  -1.274117  0.002251  -0.230654  0.021662  0.000938  3.853244  0.002
N  N90  1  0.37790906  0.17404061  0.03199640  1  -1.271867  0.002248  -0.230681  0.021509  0.000937  3.853229  0.002
N  N91  1  0.82595814  0.62209282  0.46800020  1  -1.271948  0.002248  -0.230593  0.021701  0.000938  3.853319  0.002
N  N92  1  0.56058394  0.65924353  0.01618846  1  -1.194235  0.066722  -0.34479  -0.260424  0.038263  3.590905  0.06
N  N93  1  0.34075781  0.43941688  0.48381269  1  -1.19419  0.06672  -0.344694  -0.260206  0.038262  3.590777  0.06
N  N94  1  0.43941003  0.34075799  0.98380913  1  -1.193931  0.066716  -0.344741  -0.260343  0.03826  3.590536  0.06
N  N95  1  0.65923989  0.56059001  0.51618706  1  -1.193699  0.066719  -0.344664  -0.260234  0.038262  3.590471  0.06
O  O96  1  0.54464100  0.44720642  0.34363386  1  -1.349912  0.052127  -0.373419  -0.687598  0.02891  2.423599  0.045
O  O97  1  0.55279754  0.45535875  0.15636764  1  -1.349848  0.052124  -0.373402  -0.687564  0.028909  2.42358  0.045
O  O98  1  0.45535401  0.55279214  0.65636774  1  -1.34985  0.052124  -0.373461  -0.687645  0.02891  2.423523  0.045
O  O99  1  0.44719164  0.54464963  0.84363387  1  -1.349756  0.052122  -0.373352  -0.687512  0.028908  2.423537  0.045
O  O100  1  0.61387694  0.24759604  0.24672837  1  -1.354332  0.003773  -0.390041  -0.680629  0.001797  2.13875  0.003
O  O101  1  0.75240560  0.38611226  0.25327683  1  -1.354444  0.003771  -0.390053  -0.680663  0.001795  2.138729  0.003
O  O102  1  0.38611789  0.75240975  0.75326673  1  -1.354382  0.003769  -0.390063  -0.680691  0.001794  2.138652  0.003
O  O103  1  0.24758540  0.61389736  0.74671985  1  -1.354674  0.003771  -0.390025  -0.680639  0.001795  2.138535  0.003
