# generated using pymatgen
data_CdH16C16(BrN4)2
_symmetry_space_group_name_H-M   'P 1'
_cell_length_a   7.76756102
_cell_length_b   8.37014748
_cell_length_c   16.80574452
_cell_angle_alpha   89.99995146
_cell_angle_beta   89.99990859
_cell_angle_gamma   114.29377566
_symmetry_Int_Tables_number   1
_chemical_formula_structural   CdH16C16(BrN4)2
_chemical_formula_sum   'Cd2 H32 C32 Br4 N16'
_cell_volume   995.88095377
_cell_formula_units_Z   2
loop_
 _symmetry_equiv_pos_site_id
 _symmetry_equiv_pos_as_xyz
  1  'x, y, z'
loop_
 _atom_site_type_symbol
 _atom_site_label
 _atom_site_symmetry_multiplicity
 _atom_site_fract_x
 _atom_site_fract_y
 _atom_site_fract_z
 _atom_site_occupancy
 _atom_site_hle17_bader_spin_density
 _atom_site_hle17_ddec_charge
 _atom_site_hle17_ddec_spin_density
 _atom_site_hle17_ddec_sum_bond_order
 _atom_site_hle17_magmom
 _atom_site_hse06_10hf_bader_spin_density
 _atom_site_hse06_10hf_ddec_charge
 _atom_site_hse06_10hf_ddec_spin_density
 _atom_site_hse06_10hf_ddec_sum_bond_order
 _atom_site_hse06_10hf_magmom
 _atom_site_hse06_bader_spin_density
 _atom_site_hse06_ddec_charge
 _atom_site_hse06_ddec_spin_density
 _atom_site_hse06_ddec_sum_bond_order
 _atom_site_hse06_magmom
 _atom_site_pbe_bader_spin_density
 _atom_site_pbe_cm5_charge
 _atom_site_pbe_ddec_charge
 _atom_site_pbe_ddec_spin_density
 _atom_site_pbe_ddec_sum_bond_order
 _atom_site_pbe_magmom
Cd  Cd0  1  0.00000005  0.49999871  0.49999999  1  0  0.895321  0  1.976351  0  0  0.706796  0  2.429311  0  0  0.756076  0  2.391097  0  0  0.646826  0.672464  0  2.454951  0
Cd  Cd1  1  0.99999329  0.00001374  0.00000201  1  0  0.895385  0  1.976276  0  0  0.706854  0  2.42924  0  0  0.756132  0  2.391025  0  0  0.646841  0.672523  0  2.454884  0
H  H2  1  0.85958725  0.06608060  0.42754098  1  0  0.086347  0  0.962972  0  0  0.092333  0  1.03386  0  0  0.094983  0  1.030387  0  0  0.118691  0.09029  0  1.036513  0
H  H3  1  0.14041565  0.43391918  0.92754043  1  0  0.086406  0  0.962909  0  0  0.09238  0  1.033816  0  0  0.095029  0  1.030345  0  0  0.11871  0.090339  0  1.036467  0
H  H4  1  0.14041208  0.93391230  0.57245698  1  0  0.086411  0  0.96297  0  0  0.09239  0  1.033845  0  0  0.095041  0  1.030373  0  0  0.118691  0.090341  0  1.036516  0
H  H5  1  0.85958533  0.56608028  0.07245515  1  0  0.086346  0  0.962986  0  0  0.092347  0  1.03386  0  0  0.094999  0  1.030387  0  0  0.118688  0.09031  0  1.036496  0
H  H6  1  0.50993768  0.33619614  0.44995957  1  0  0.10285  0  0.97584  0  0  0.106209  0  1.052544  0  0  0.1098  0  1.047202  0  0  0.120747  0.103614  0  1.056001  0
H  H7  1  0.49007120  0.16381141  0.94996008  1  0  0.102836  0  0.975751  0  0  0.106198  0  1.052461  0  0  0.109788  0  1.04712  0  0  0.120779  0.103601  0  1.055927  0
H  H8  1  0.49006716  0.66380331  0.55004315  1  0  0.102835  0  0.975729  0  0  0.106211  0  1.052412  0  0  0.1098  0  1.047068  0  0  0.120797  0.103613  0  1.05588  0
H  H9  1  0.50993902  0.83619720  0.05003907  1  0  0.10282  0  0.975769  0  0  0.106186  0  1.05246  0  0  0.109777  0  1.04712  0  0  0.120759  0.10359  0  1.055924  0
H  H10  1  0.20260520  0.08113310  0.41705135  1  0  0.095691  0  0.949085  0  0  0.107932  0  1.020029  0  0  0.11  0  1.017281  0  0  0.106981  0.106567  0  1.02136  0
H  H11  1  0.79740010  0.41887195  0.91705033  1  0  0.095672  0  0.949053  0  0  0.107931  0  1.019987  0  0  0.109993  0  1.017243  0  0  0.106993  0.106565  0  1.021322  0
H  H12  1  0.79739648  0.91886504  0.58295137  1  0  0.095714  0  0.949014  0  0  0.10791  0  1.020043  0  0  0.109979  0  1.017294  0  0  0.106988  0.106543  0  1.021375  0
H  H13  1  0.20260568  0.58113536  0.08295001  1  0  0.095717  0  0.949035  0  0  0.107951  0  1.020001  0  0  0.110016  0  1.017255  0  0  0.107002  0.106585  0  1.021335  0
H  H14  1  0.20434174  0.87358626  0.40000522  1  0  0.106265  0  0.93861  0  0  0.115412  0  1.012113  0  0  0.116856  0  1.010806  0  0  0.114999  0.114582  0  1.012372  0
H  H15  1  0.79566430  0.62641954  0.90000433  1  0  0.106219  0  0.938595  0  0  0.115384  0  1.012079  0  0  0.116825  0  1.010774  0  0  0.114978  0.114542  0  1.01235  0
H  H16  1  0.79565538  0.12641321  0.59999571  1  0  0.106213  0  0.938684  0  0  0.115416  0  1.012118  0  0  0.11686  0  1.010811  0  0  0.115008  0.114584  0  1.012378  0
H  H17  1  0.20434405  0.37358777  0.09999423  1  0  0.106233  0  0.938622  0  0  0.115416  0  1.012092  0  0  0.116857  0  1.010786  0  0  0.115003  0.114584  0  1.012352  0
H  H18  1  0.50436684  0.08592407  0.24565092  1  0  0.113656  0  0.946365  0  0  0.122104  0  1.006525  0  0  0.125834  0  1.005015  0  0  0.107569  0.119509  0  1.007572  0
H  H19  1  0.49563617  0.41408030  0.74565012  1  0  0.113676  0  0.946454  0  0  0.122146  0  1.006585  0  0  0.125861  0  1.005092  0  0  0.107579  0.119559  0  1.007623  0
H  H20  1  0.49563028  0.91407540  0.75435121  1  0  0.113709  0  0.946373  0  0  0.122145  0  1.00654  0  0  0.125882  0  1.005023  0  0  0.10758  0.119551  0  1.007587  0
H  H21  1  0.50436785  0.58592308  0.25435081  1  0  0.113685  0  0.946417  0  0  0.122138  0  1.006564  0  0  0.125867  0  1.005055  0  0  0.107578  0.119549  0  1.007603  0
H  H22  1  0.40345622  0.09188723  0.10588387  1  0  0.074551  0  0.959249  0  0  0.076617  0  1.037262  0  0  0.079312  0  1.03416  0  0  0.102029  0.074577  0  1.039646  0
H  H23  1  0.59654656  0.40810978  0.60588419  1  0  0.074574  0  0.959237  0  0  0.076665  0  1.037229  0  0  0.079362  0  1.034124  0  0  0.102044  0.074624  0  1.039613  0
H  H24  1  0.59654744  0.90810959  0.89411707  1  0  0.074549  0  0.959223  0  0  0.076649  0  1.037193  0  0  0.079344  0  1.034089  0  0  0.102038  0.074608  0  1.039577  0
H  H25  1  0.40345243  0.59189100  0.39411615  1  0  0.074614  0  0.959219  0  0  0.076669  0  1.037228  0  0  0.079366  0  1.034122  0  0  0.102045  0.074626  0  1.039612  0
H  H26  1  0.85350496  0.98101059  0.17462489  1  0  0.069988  0  0.956518  0  0  0.077587  0  1.022045  0  0  0.080269  0  1.019608  0  0  0.104307  0.075613  0  1.02384  0
H  H27  1  0.14649216  0.51897637  0.67462511  1  0  0.06998  0  0.956539  0  0  0.077573  0  1.022062  0  0  0.080255  0  1.019627  0  0  0.104285  0.075599  0  1.023858  0
H  H28  1  0.14649239  0.01898363  0.82537545  1  0  0.06995  0  0.956597  0  0  0.077554  0  1.022115  0  0  0.080233  0  1.019681  0  0  0.104291  0.07558  0  1.023911  0
H  H29  1  0.85350531  0.48101522  0.32537464  1  0  0.070005  0  0.956528  0  0  0.077592  0  1.022062  0  0  0.080274  0  1.019626  0  0  0.104299  0.075618  0  1.023856  0
H  H30  1  0.92781594  0.95624556  0.31744746  1  0  0.108167  0  0.971084  0  0  0.118002  0  1.032653  0  0  0.121159  0  1.031739  0  0  0.101325  0.115712  0  1.033557  0
H  H31  1  0.07217930  0.54375270  0.81744534  1  0  0.108032  0  0.971151  0  0  0.117877  0  1.032746  0  0  0.121033  0  1.031832  0  0  0.101228  0.115586  0  1.033651  0
H  H32  1  0.07218107  0.04375654  0.68255348  1  0  0.108129  0  0.971022  0  0  0.117956  0  1.032625  0  0  0.121114  0  1.03171  0  0  0.101297  0.115667  0  1.033529  0
H  H33  1  0.92781864  0.45624282  0.18255262  1  0  0.108153  0  0.97107  0  0  0.117973  0  1.032665  0  0  0.12113  0  1.031751  0  0  0.101292  0.115683  0  1.033571  0
C  C34  1  0.73948441  0.09992539  0.42228032  1  0  0.191497  0  3.726683  0  0  0.137276  0  4.020474  0  0  0.150096  0  4.02975  0  0  0.134731  0.129802  0  4.01172  0
C  C35  1  0.26051910  0.40007571  0.92227970  1  0  0.191453  0  3.726589  0  0  0.137236  0  4.020394  0  0  0.150053  0  4.029681  0  0  0.134727  0.129763  0  4.011647  0
C  C36  1  0.26051282  0.90007145  0.57771884  1  0  0.191417  0  3.726622  0  0  0.137209  0  4.020413  0  0  0.150028  0  4.029694  0  0  0.13474  0.129736  0  4.01166  0
C  C37  1  0.73948819  0.59992635  0.07771707  1  0  0.191535  0  3.726597  0  0  0.137289  0  4.020387  0  0  0.150104  0  4.029664  0  0  0.134732  0.129821  0  4.011643  0
C  C38  1  0.56678022  0.24116368  0.43497006  1  0  0.174136  0  3.639203  0  0  0.0965  0  3.900226  0  0  0.119767  0  3.916685  0  0  0.156825  0.087037  0  3.892609  0
C  C39  1  0.43322312  0.25884000  0.93497056  1  0  0.174188  0  3.639156  0  0  0.096578  0  3.900185  0  0  0.119834  0  3.916644  0  0  0.156852  0.08711  0  3.892574  0
C  C40  1  0.43321877  0.75883709  0.56503267  1  0  0.174176  0  3.639266  0  0  0.096548  0  3.900291  0  0  0.119818  0  3.916745  0  0  0.156737  0.087084  0  3.892676  0
C  C41  1  0.56678160  0.74116207  0.06502740  1  0  0.174202  0  3.639198  0  0  0.096566  0  3.900219  0  0  0.119828  0  3.916683  0  0  0.156827  0.087103  0  3.892604  0
C  C42  1  0.26707680  0.01107109  0.38042815  1  0  -0.072104  0  3.646557  0  0  -0.148664  0  3.885249  0  0  -0.137803  0  3.899443  0  0  -0.044482  -0.150384  0  3.878948  0
C  C43  1  0.73292296  0.48893280  0.88042893  1  0  -0.071948  0  3.646436  0  0  -0.1485  0  3.885093  0  0  -0.137635  0  3.899273  0  0  -0.044462  -0.150219  0  3.878806  0
C  C44  1  0.73292348  0.98892968  0.61957457  1  0  -0.072019  0  3.646513  0  0  -0.148587  0  3.885203  0  0  -0.137727  0  3.899396  0  0  -0.044479  -0.150306  0  3.8789  0
C  C45  1  0.26708036  0.51107190  0.11957200  1  0  -0.072073  0  3.646566  0  0  -0.14865  0  3.885233  0  0  -0.137781  0  3.899422  0  0  -0.044517  -0.150371  0  3.878935  0
C  C46  1  0.22407877  0.02181966  0.29373876  1  0  0.14466  0  3.709156  0  0  0.159074  0  3.950143  0  0  0.164158  0  3.970867  0  0  0.012976  0.156234  0  3.934786  0
C  C47  1  0.77591721  0.47817800  0.79373833  1  0  0.144491  0  3.709208  0  0  0.158921  0  3.950188  0  0  0.164001  0  3.970912  0  0  0.012971  0.156081  0  3.934836  0
C  C48  1  0.77591648  0.97817850  0.70626277  1  0  0.144623  0  3.709173  0  0  0.159005  0  3.950205  0  0  0.164088  0  3.970931  0  0  0.012964  0.156165  0  3.934854  0
C  C49  1  0.22408376  0.52182146  0.20626083  1  0  0.144594  0  3.70917  0  0  0.159038  0  3.950123  0  0  0.164119  0  3.970847  0  0  0.012996  0.156196  0  3.934771  0
C  C50  1  0.35773105  0.05988744  0.23297853  1  0  -0.173144  0  3.703769  0  0  -0.193417  0  3.952996  0  0  -0.201258  0  3.973044  0  0  -0.089249  -0.188201  0  3.939176  0
C  C51  1  0.64226711  0.44011175  0.73297821  1  0  -0.173185  0  3.703882  0  0  -0.193483  0  3.953134  0  0  -0.201312  0  3.973189  0  0  -0.089294  -0.188279  0  3.939318  0
C  C52  1  0.64226736  0.94011203  0.76702182  1  0  -0.173255  0  3.703828  0  0  -0.193513  0  3.953093  0  0  -0.201361  0  3.973136  0  0  -0.089286  -0.188301  0  3.93928  0
C  C53  1  0.35773269  0.55988509  0.26702154  1  0  -0.173215  0  3.703935  0  0  -0.193511  0  3.953176  0  0  -0.201352  0  3.973222  0  0  -0.089312  -0.188303  0  3.939355  0
C  C54  1  0.30168961  0.06345272  0.15439589  1  0  0.140574  0  3.718225  0  0  0.109137  0  3.976957  0  0  0.11734  0  3.994337  0  0  0.044186  0.10385  0  3.965291  0
C  C55  1  0.69831409  0.43654673  0.65439434  1  0  0.1405  0  3.718287  0  0  0.109033  0  3.977073  0  0  0.117237  0  3.99444  0  0  0.044142  0.103749  0  3.965409  0
C  C56  1  0.69831335  0.93654542  0.84560623  1  0  0.140563  0  3.718307  0  0  0.1091  0  3.977057  0  0  0.117304  0  3.994437  0  0  0.044179  0.103816  0  3.965392  0
C  C57  1  0.30168864  0.56345666  0.34560421  1  0  0.140531  0  3.718296  0  0  0.109111  0  3.977042  0  0  0.117316  0  3.994417  0  0  0.044199  0.103827  0  3.965372  0
C  C58  1  0.99528509  0.99984331  0.19313755  1  0  0.129532  0  3.739837  0  0  0.100194  0  3.988174  0  0  0.107111  0  4.007659  0  0  0.037425  0.095785  0  3.975012  0
C  C59  1  0.00471428  0.50014882  0.69313729  1  0  0.129512  0  3.739765  0  0  0.100198  0  3.988091  0  0  0.107111  0  4.007576  0  0  0.037505  0.095791  0  3.974932  0
C  C60  1  0.00471530  0.00015483  0.80686458  1  0  0.129563  0  3.739812  0  0  0.100233  0  3.988123  0  0  0.107148  0  4.007616  0  0  0.037454  0.095825  0  3.974966  0
C  C61  1  0.99528495  0.49984670  0.30686246  1  0  0.129452  0  3.739827  0  0  0.100122  0  3.988155  0  0  0.107039  0  4.007641  0  0  0.037382  0.095716  0  3.97499  0
C  C62  1  0.03835451  0.99005616  0.27256669  1  0  -0.17149  0  3.709521  0  0  -0.186409  0  3.94864  0  0  -0.195023  0  3.971097  0  0  -0.089833  -0.180889  0  3.933765  0
C  C63  1  0.96164224  0.50994226  0.77256573  1  0  -0.171284  0  3.709465  0  0  -0.18621  0  3.948559  0  0  -0.194823  0  3.971023  0  0  -0.08978  -0.180688  0  3.933683  0
C  C64  1  0.96164202  0.00994200  0.72743543  1  0  -0.171425  0  3.709253  0  0  -0.186327  0  3.948387  0  0  -0.194941  0  3.970845  0  0  -0.089804  -0.180807  0  3.933513  0
C  C65  1  0.03835863  0.49005982  0.22743342  1  0  -0.171394  0  3.709401  0  0  -0.186294  0  3.948485  0  0  -0.194906  0  3.970944  0  0  -0.08975  -0.180776  0  3.933613  0
Br  Br66  1  0.80382507  0.70011632  0.46099014  1  0  -0.603308  0  0.827081  0  0  -0.550498  0  1.103665  0  0  -0.567445  0  1.082191  0  0  -0.315048  -0.537934  0  1.11826  0
Br  Br67  1  0.19613237  0.79986185  0.96098604  1  0  -0.603299  0  0.826991  0  0  -0.550548  0  1.103654  0  0  -0.567461  0  1.082119  0  0  -0.315069  -0.537986  0  1.118246  0
Br  Br68  1  0.19618514  0.29989229  0.53900663  1  0  -0.603286  0  0.827071  0  0  -0.550489  0  1.103668  0  0  -0.567429  0  1.082181  0  0  -0.315026  -0.537925  0  1.118263  0
Br  Br69  1  0.80381296  0.20011679  0.03900954  1  0  -0.603275  0  0.827093  0  0  -0.550483  0  1.103703  0  0  -0.567434  0  1.082231  0  0  -0.315023  -0.537922  0  1.118298  0
N  N70  1  0.46617483  0.08487314  0.40081038  1  0  0.044886  0  3.566731  0  0  0.169405  0  3.747334  0  0  0.129439  0  3.813472  0  0  -0.136383  0.176549  0  3.73064  0
N  N71  1  0.53382798  0.41513198  0.90081193  1  0  0.044872  0  3.566704  0  0  0.169332  0  3.747402  0  0  0.129399  0  3.813484  0  0  -0.136462  0.176502  0  3.730662  0
N  N72  1  0.53382369  0.91512370  0.59919115  1  0  0.044842  0  3.566734  0  0  0.169344  0  3.747368  0  0  0.129383  0  3.813492  0  0  -0.136345  0.176507  0  3.730643  0
N  N73  1  0.46617534  0.58487272  0.09918841  1  0  0.04488  0  3.566692  0  0  0.169385  0  3.747322  0  0  0.129418  0  3.813463  0  0  -0.136379  0.176535  0  3.730619  0
N  N74  1  0.57441768  0.99218187  0.39198995  1  0  -0.272178  0  2.830683  0  0  -0.273107  0  3.098411  0  0  -0.272438  0  3.119119  0  0  -0.226328  -0.267955  0  3.089253  0
N  N75  1  0.42558466  0.50782134  0.89198938  1  0  -0.272231  0  2.830596  0  0  -0.273139  0  3.098337  0  0  -0.272479  0  3.119037  0  0  -0.226338  -0.267993  0  3.089182  0
N  N76  1  0.42558014  0.00781628  0.60801039  1  0  -0.272194  0  2.830657  0  0  -0.273106  0  3.098375  0  0  -0.272438  0  3.119082  0  0  -0.226342  -0.267956  0  3.089216  0
N  N77  1  0.57442065  0.49218203  0.10800978  1  0  -0.272184  0  2.830598  0  0  -0.273115  0  3.098335  0  0  -0.272442  0  3.119045  0  0  -0.226315  -0.267965  0  3.089179  0
N  N78  1  0.74107208  0.25430667  0.44945908  1  0  -0.402846  0  3.223654  0  0  -0.328983  0  3.510513  0  0  -0.350234  0  3.522577  0  0  -0.351782  -0.313949  0  3.499317  0
N  N79  1  0.25893375  0.24569695  0.94945913  1  0  -0.402856  0  3.223797  0  0  -0.328995  0  3.510648  0  0  -0.35024  0  3.522693  0  0  -0.351773  -0.313963  0  3.49946  0
N  N80  1  0.25893672  0.74569013  0.55054126  1  0  -0.402823  0  3.22368  0  0  -0.328966  0  3.510537  0  0  -0.350209  0  3.522576  0  0  -0.351786  -0.313935  0  3.499348  0
N  N81  1  0.74106957  0.75430775  0.05053943  1  0  -0.402943  0  3.223721  0  0  -0.329045  0  3.510524  0  0  -0.350302  0  3.522607  0  0  -0.351819  -0.314015  0  3.499335  0
N  N82  1  0.12369503  0.03430801  0.13450217  1  0  -0.335427  0  3.262477  0  0  -0.26013  0  3.521266  0  0  -0.279996  0  3.54171  0  0  -0.333109  -0.246672  0  3.507151  0
N  N83  1  0.87630398  0.46568365  0.63450167  1  0  -0.335274  0  3.262442  0  0  -0.260013  0  3.521286  0  0  -0.279891  0  3.541766  0  0  -0.333056  -0.246556  0  3.507168  0
N  N84  1  0.87630467  0.96569145  0.86549817  1  0  -0.335356  0  3.26258  0  0  -0.260076  0  3.521403  0  0  -0.27994  0  3.541845  0  0  -0.333096  -0.246617  0  3.507285  0
N  N85  1  0.12369454  0.53431319  0.36549808  1  0  -0.335361  0  3.262438  0  0  -0.260078  0  3.521237  0  0  -0.279945  0  3.541683  0  0  -0.333092  -0.246618  0  3.507112  0
