# generated using pymatgen
data_Cd3H46C60(NO2)8
_symmetry_space_group_name_H-M   'P 1'
_cell_length_a   11.61735221
_cell_length_b   16.49943363
_cell_length_c   17.16134281
_cell_angle_alpha   107.10099582
_cell_angle_beta   90.00001674
_cell_angle_gamma   89.99965116
_symmetry_Int_Tables_number   1
_chemical_formula_structural   Cd3H46C60(NO2)8
_chemical_formula_sum   'Cd6 H92 C120 N16 O32'
_cell_volume   3144.04671112
_cell_formula_units_Z   2
loop_
 _symmetry_equiv_pos_site_id
 _symmetry_equiv_pos_as_xyz
  1  'x, y, z'
loop_
 _atom_site_type_symbol
 _atom_site_label
 _atom_site_symmetry_multiplicity
 _atom_site_fract_x
 _atom_site_fract_y
 _atom_site_fract_z
 _atom_site_occupancy
 _atom_site_pbe_bader_charge
 _atom_site_pbe_bader_spin_density
 _atom_site_pbe_cm5_charge
 _atom_site_pbe_ddec_charge
 _atom_site_pbe_ddec_spin_density
 _atom_site_pbe_ddec_sum_bond_order
 _atom_site_pbe_magmom
Cd  Cd0  1  0.83321923  0.77709291  0.03263143  1  1.265112  0  0.749489  0.898094  0  2.103443  0
Cd  Cd1  1  0.83322042  0.72290640  0.46736894  1  1.265082  0  0.749496  0.898063  0  2.103519  0
Cd  Cd2  1  0.16677995  0.22290508  0.96736667  1  1.265056  0  0.749492  0.898063  0  2.10348  0
Cd  Cd3  1  0.16677876  0.27709536  0.53263376  1  1.265041  0  0.749447  0.897983  0  2.103583  0
Cd  Cd4  1  0.90721474  0.75000260  0.25000601  1  1.278569  0  0.830468  0.964496  0  2.102367  0
Cd  Cd5  1  0.09278444  0.24999908  0.75000366  1  1.278638  0  0.830452  0.96446  0  2.102367  0
H  H6  1  0.83272550  0.09897642  0.15943486  1  0.046551  0  0.116039  0.096164  0  0.961117  0
H  H7  1  0.83272339  0.40102811  0.34056565  1  0.046576  0  0.116037  0.096101  0  0.961145  0
H  H8  1  0.16727626  0.90102475  0.84056359  1  0.046569  0  0.116052  0.096142  0  0.961112  0
H  H9  1  0.16727838  0.59897239  0.65943551  1  0.046598  0  0.116046  0.096129  0  0.961133  0
H  H10  1  0.89548289  0.00638599  0.17117307  1  0.090669  0  0.114057  0.099526  0  1.007167  0
H  H11  1  0.89548169  0.49361700  0.32882526  1  0.090622  0  0.114009  0.099472  0  1.007164  0
H  H12  1  0.10451629  0.99361392  0.82882385  1  0.090657  0  0.114048  0.099541  0  1.007124  0
H  H13  1  0.10451749  0.50638416  0.67117435  1  0.090647  0  0.114024  0.099509  0  1.007167  0
H  H14  1  0.09933521  0.96348530  0.10555318  1  0.117619  0  0.121835  0.123025  0  1.017555  0
H  H15  1  0.09933453  0.53651620  0.39444474  1  0.117636  0  0.121813  0.123008  0  1.017602  0
H  H16  1  0.90066397  0.03651269  0.89444550  1  0.117746  0  0.121834  0.123026  0  1.01755  0
H  H17  1  0.90066981  0.46348565  0.60555040  1  0.117674  0  0.121803  0.122994  0  1.01763  0
H  H18  1  0.22768256  0.02971557  0.00091219  1  0.128923  0  0.123517  0.124023  0  0.987195  0
H  H19  1  0.22768250  0.47028358  0.49908252  1  0.128974  0  0.123484  0.12395  0  0.987181  0
H  H20  1  0.77231576  0.97028052  0.99908477  1  0.128985  0  0.123503  0.123995  0  0.987221  0
H  H21  1  0.77231840  0.52972142  0.50091471  1  0.129043  0  0.123484  0.123945  0  0.98713  0
H  H22  1  0.95089572  0.19422484  0.09318335  1  0.141091  0  0.133466  0.106226  0  1.011267  0
H  H23  1  0.95089273  0.30577789  0.40681491  1  0.141125  0  0.133473  0.106279  0  1.011154  0
H  H24  1  0.04910690  0.80577381  0.90681261  1  0.141041  0  0.133488  0.106253  0  1.011238  0
H  H25  1  0.04910645  0.69422765  0.59319063  1  0.141086  0  0.133493  0.106307  0  1.011177  0
H  H26  1  0.63691797  0.63281001  0.77869380  1  0.073203  0  0.106551  0.114216  0  0.989268  0
H  H27  1  0.63691954  0.86719259  0.72130408  1  0.073076  0  0.106547  0.114225  0  0.989295  0
H  H28  1  0.36308120  0.36719054  0.22130387  1  0.073007  0  0.106559  0.114216  0  0.989289  0
H  H29  1  0.36308223  0.13280857  0.27869552  1  0.073254  0  0.10656  0.114207  0  0.989314  0
H  H30  1  0.74100521  0.47947466  0.92945511  1  0.078964  0  0.10304  0.107659  0  1.01368  0
H  H31  1  0.74101313  0.02052374  0.57054426  1  0.078864  0  0.103051  0.107704  0  1.013731  0
H  H32  1  0.25899569  0.52052209  0.07054029  1  0.078881  0  0.10303  0.107654  0  1.0137  0
H  H33  1  0.25898691  0.97947677  0.42945632  1  0.07885  0  0.103055  0.107672  0  1.013747  0
H  H34  1  0.66989402  0.34913788  0.82379344  1  0.090708  0  0.101151  0.115773  0  1.038658  0
H  H35  1  0.66989914  0.15086471  0.67620249  1  0.090889  0  0.101157  0.115757  0  1.038564  0
H  H36  1  0.33010258  0.65086332  0.17620210  1  0.090855  0  0.101136  0.115701  0  1.038656  0
H  H37  1  0.33010004  0.84913644  0.32379770  1  0.090844  0  0.101156  0.11577  0  1.038557  0
H  H38  1  0.56472220  0.50174962  0.67226709  1  0.063293  0  0.110417  0.127856  0  0.976734  0
H  H39  1  0.56472354  0.99825333  0.82772972  1  0.063483  0  0.110413  0.127855  0  0.976771  0
H  H40  1  0.43527267  0.49825093  0.32773001  1  0.063413  0  0.110424  0.127862  0  0.976755  0
H  H41  1  0.43527564  0.00174655  0.17227010  1  0.063422  0  0.11042  0.127842  0  0.976776  0
H  H42  1  0.46814543  0.22367068  0.58254932  1  0.077492  0  0.120321  0.160309  0  0.974111  0
H  H43  1  0.46814184  0.27633599  0.91745124  1  0.077901  0  0.120332  0.160296  0  0.974144  0
H  H44  1  0.53185805  0.77632920  0.41745107  1  0.077446  0  0.120321  0.1603  0  0.974142  0
H  H45  1  0.53185820  0.72366644  0.08254873  1  0.077902  0  0.120337  0.160315  0  0.974119  0
H  H46  1  0.79036550  0.34744522  0.67095475  1  0.057063  0  0.096122  0.107882  0  1.068329  0
H  H47  1  0.79036035  0.15255680  0.82904278  1  0.057189  0  0.096123  0.107803  0  1.068402  0
H  H48  1  0.20963454  0.65256236  0.32903974  1  0.057013  0  0.096165  0.107897  0  1.068364  0
H  H49  1  0.20963624  0.84743864  0.17095690  1  0.057107  0  0.096127  0.107833  0  1.068418  0
H  H50  1  0.78744923  0.12470710  0.46248974  1  0.087328  0  0.099548  0.111947  0  1.067951  0
H  H51  1  0.78745063  0.37529066  0.03750878  1  0.087369  0  0.099569  0.111977  0  1.06792  0
H  H52  1  0.21254995  0.87529214  0.53750989  1  0.087324  0  0.099554  0.111941  0  1.067978  0
H  H53  1  0.21255199  0.62470733  0.96248932  1  0.087334  0  0.09955  0.111939  0  1.06797  0
H  H54  1  0.59771316  0.93927367  0.45068712  1  0.120744  0  0.108856  0.127548  0  1.030392  0
H  H55  1  0.59772244  0.56072737  0.04931428  1  0.120256  0  0.108883  0.127589  0  1.030378  0
H  H56  1  0.40227742  0.06072432  0.54931097  1  0.120228  0  0.108871  0.12757  0  1.030348  0
H  H57  1  0.40228277  0.43927311  0.95068979  1  0.120654  0  0.108844  0.127505  0  1.030441  0
H  H58  1  0.62047821  0.13992785  0.33893521  1  0.082031  0  0.108981  0.124389  0  0.97859  0
H  H59  1  0.62047636  0.36007255  0.16106812  1  0.081916  0  0.108948  0.124362  0  0.978596  0
H  H60  1  0.37952269  0.86007076  0.66106423  1  0.081896  0  0.108962  0.12435  0  0.978639  0
H  H61  1  0.37952368  0.63992602  0.83893539  1  0.081964  0  0.108936  0.124335  0  0.978542  0
H  H62  1  0.67340896  0.83598234  0.32332987  1  0.112977  0  0.105233  0.114749  0  1.022043  0
H  H63  1  0.67341483  0.66401833  0.17667319  1  0.113008  0  0.105208  0.114692  0  1.022149  0
H  H64  1  0.32658591  0.16401626  0.67667074  1  0.113029  0  0.105243  0.114744  0  1.022114  0
H  H65  1  0.32658779  0.33598150  0.82333128  1  0.112952  0  0.105228  0.114724  0  1.022067  0
H  H66  1  0.69137516  0.03531723  0.20964821  1  0.076059  0  0.100735  0.096968  0  1.025022  0
H  H67  1  0.69136989  0.46468158  0.29035409  1  0.076035  0  0.100701  0.096943  0  1.025051  0
H  H68  1  0.30862574  0.96468011  0.79035087  1  0.076001  0  0.100723  0.096953  0  1.02503  0
H  H69  1  0.30862670  0.53531698  0.70965000  1  0.076104  0  0.100735  0.096981  0  1.02504  0
H  H70  1  0.03520984  0.90942306  0.20923386  1  0.140773  0  0.129389  0.104713  0  1.054707  0
H  H71  1  0.03520865  0.59057743  0.29076725  1  0.140764  0  0.129378  0.104665  0  1.054794  0
H  H72  1  0.96479364  0.09057363  0.79076735  1  0.140542  0  0.129376  0.104724  0  1.054733  0
H  H73  1  0.96478451  0.40941989  0.70923415  1  0.140747  0  0.12936  0.104656  0  1.054807  0
H  H74  1  0.96634306  0.06956310  0.44710207  1  0.190074  0  0.123573  0.132821  0  1.052824  0
H  H75  1  0.96633367  0.43044715  0.05290014  1  0.190241  0  0.12347  0.132802  0  1.052971  0
H  H76  1  0.03366472  0.93044250  0.55289883  1  0.190165  0  0.123513  0.132859  0  1.052909  0
H  H77  1  0.03366206  0.56955909  0.94709921  1  0.190206  0  0.123532  0.132828  0  1.052931  0
H  H78  1  0.89933883  0.90343805  0.43573059  1  0.173131  0  0.118578  0.127385  0  1.049861  0
H  H79  1  0.89932888  0.59657425  0.06427592  1  0.173346  0  0.118568  0.127315  0  1.04984  0
H  H80  1  0.10067498  0.09656684  0.56427651  1  0.173224  0  0.11854  0.127305  0  1.049932  0
H  H81  1  0.10066686  0.40343258  0.93572826  1  0.173261  0  0.118559  0.127308  0  1.049942  0
H  H82  1  0.11927736  0.07082189  0.25814644  1  0.08304  0  0.110185  0.089532  0  1.000107  0
H  H83  1  0.11927410  0.42917647  0.24184978  1  0.083141  0  0.110179  0.089602  0  1.000124  0
H  H84  1  0.88072354  0.92917549  0.74184915  1  0.083193  0  0.110173  0.089549  0  1.000099  0
H  H85  1  0.88072336  0.57082154  0.75814658  1  0.083039  0  0.110191  0.089553  0  1.000182  0
H  H86  1  0.07549175  0.13353136  0.35607609  1  0.11119  0  0.120744  0.116782  0  0.992835  0
H  H87  1  0.07548640  0.36647038  0.14392168  1  0.111393  0  0.12072  0.116771  0  0.992834  0
H  H88  1  0.92451001  0.86646729  0.64392045  1  0.111399  0  0.120737  0.116827  0  0.992716  0
H  H89  1  0.92450590  0.63352954  0.85607524  1  0.111453  0  0.12075  0.116782  0  0.992887  0
H  H90  1  0.96969611  0.18850414  0.26513271  1  0.02394  0  0.095908  0.090384  0  1.002808  0
H  H91  1  0.96969472  0.31149404  0.23486598  1  0.023693  0  0.09591  0.090397  0  1.002747  0
H  H92  1  0.03030393  0.81149512  0.73486576  1  0.023676  0  0.095888  0.090366  0  1.002777  0
H  H93  1  0.03030446  0.68850458  0.76513289  1  0.023965  0  0.095915  0.090392  0  1.002748  0
H  H94  1  0.87017112  0.12891328  0.30410449  1  0.058088  0  0.100711  0.105708  0  0.993516  0
H  H95  1  0.87016661  0.37108982  0.19589502  1  0.05808  0  0.10069  0.105649  0  0.993501  0
H  H96  1  0.12983150  0.87108472  0.69589302  1  0.058084  0  0.100677  0.105656  0  0.993485  0
H  H97  1  0.12982999  0.62891132  0.80410633  1  0.058058  0  0.100707  0.105668  0  0.993504  0
C  C98  1  0.91247959  0.07339358  0.17724035  1  0.308732  0  -0.052219  -0.074733  0  3.901666  0
C  C99  1  0.91247638  0.42660933  0.32275796  1  0.308548  0  -0.052246  -0.074693  0  3.901584  0
C  C100  1  0.08751959  0.92660632  0.82275773  1  0.308303  0  -0.052242  -0.074788  0  3.901644  0
C  C101  1  0.08752107  0.57339055  0.67724186  1  0.308541  0  -0.052246  -0.074802  0  3.901664  0
C  C102  1  0.08971917  0.02147331  0.08871481  1  0.28153  0  -0.000378  -0.108939  0  3.933137  0
C  C103  1  0.08971641  0.47852898  0.41128371  1  0.281385  0  -0.000341  -0.108917  0  3.933135  0
C  C104  1  0.91028087  0.97852467  0.91128445  1  0.281822  0  -0.000391  -0.108942  0  3.933038  0
C  C105  1  0.91028363  0.52147535  0.58871624  1  0.282443  0  -0.000322  -0.108831  0  3.933073  0
C  C106  1  0.15139400  0.05412623  0.03642136  1  0.424832  0  -0.001053  -0.027815  0  4.003597  0
C  C107  1  0.15139327  0.44587388  0.46357595  1  0.424844  0  -0.001024  -0.027761  0  4.003534  0
C  C108  1  0.84860604  0.94586986  0.96357676  1  0.424064  0  -0.001001  -0.027756  0  4.003524  0
C  C109  1  0.84860935  0.55413174  0.53642263  1  0.42352  0  -0.000988  -0.027703  0  4.003419  0
C  C110  1  0.01028317  0.14135486  0.08290688  1  0.971113  0  0.134342  0.077986  0  3.938692  0
C  C111  1  0.01028231  0.35864782  0.41709056  1  0.970806  0  0.134263  0.077865  0  3.938614  0
C  C112  1  0.98971860  0.85864378  0.91709024  1  0.970475  0  0.134269  0.07789  0  3.938661  0
C  C113  1  0.98971859  0.64135775  0.58291266  1  0.970372  0  0.134238  0.077766  0  3.93866  0
C  C114  1  0.72853006  0.64245888  0.92486280  1  1.519708  0  0.183041  0.545587  0  4.253396  0
C  C115  1  0.72853078  0.85754202  0.57513519  1  1.519794  0  0.182964  0.545381  0  4.253843  0
C  C116  1  0.27146912  0.35753912  0.07513472  1  1.519994  0  0.183007  0.545438  0  4.253609  0
C  C117  1  0.27146754  0.14246040  0.42486537  1  1.519927  0  0.182969  0.545408  0  4.253644  0
C  C118  1  0.69011199  0.56399224  0.86108488  1  -0.015893  0  -0.023903  -0.050387  0  3.989493  0
C  C119  1  0.69011034  0.93600883  0.63891315  1  -0.015883  0  -0.023905  -0.050296  0  3.989478  0
C  C120  1  0.30988805  0.43600829  0.13891337  1  -0.016068  0  -0.023901  -0.050354  0  3.989454  0
C  C121  1  0.30988798  0.06399168  0.36108685  1  -0.015899  0  -0.02389  -0.050304  0  3.989433  0
C  C122  1  0.64352130  0.57028953  0.78773103  1  -0.036659  0  -0.083718  -0.079392  0  3.993795  0
C  C123  1  0.64351715  0.92971241  0.71226550  1  -0.036571  0  -0.083736  -0.079426  0  3.993943  0
C  C124  1  0.35647788  0.42971037  0.21226704  1  -0.036612  0  -0.083707  -0.079382  0  3.994088  0
C  C125  1  0.35648117  0.07028811  0.28773392  1  -0.036926  0  -0.083744  -0.079413  0  3.993996  0
C  C126  1  0.70209097  0.48397612  0.87313960  1  -0.007016  0  -0.083128  -0.068043  0  3.957397  0
C  C127  1  0.70209379  0.01602503  0.62685882  1  -0.007296  0  -0.083117  -0.06812  0  3.957367  0
C  C128  1  0.29791251  0.51602381  0.12685673  1  -0.007381  0  -0.083134  -0.0681  0  3.957266  0
C  C129  1  0.29790539  0.98397612  0.37314136  1  -0.007127  0  -0.083147  -0.068051  0  3.957394  0
C  C130  1  0.66326831  0.41144232  0.81445066  1  0.035267  0  -0.099044  -0.191414  0  3.974162  0
C  C131  1  0.66327139  0.08856156  0.68554680  1  0.035972  0  -0.099048  -0.191419  0  3.974147  0
C  C132  1  0.33673173  0.58855949  0.18554739  1  0.035698  0  -0.098991  -0.191264  0  3.974162  0
C  C133  1  0.33672692  0.91143961  0.31445164  1  0.035401  0  -0.099025  -0.19147  0  3.974124  0
C  C134  1  0.60448000  0.49816309  0.72868561  1  -0.054683  0  -0.099309  -0.200491  0  4.010938  0
C  C135  1  0.60447956  0.00184044  0.77131057  1  -0.054634  0  -0.099271  -0.200488  0  4.010997  0
C  C136  1  0.39551660  0.50183620  0.27131053  1  -0.054479  0  -0.099366  -0.200562  0  4.011071  0
C  C137  1  0.39551790  0.99816198  0.22868999  1  -0.054453  0  -0.099309  -0.200465  0  4.010954  0
C  C138  1  0.61196139  0.41969078  0.74363543  1  0.416084  0  0.083402  0.257246  0  4.039603  0
C  C139  1  0.61196285  0.08031335  0.75636151  1  0.415378  0  0.083379  0.257312  0  4.039609  0
C  C140  1  0.38803435  0.58031168  0.25636223  1  0.415784  0  0.083391  0.257272  0  4.039526  0
C  C141  1  0.38803461  0.91968654  0.24363772  1  0.415835  0  0.083375  0.257303  0  4.039467  0
C  C142  1  0.56134996  0.22725294  0.57767723  1  0.022766  0  -0.104675  -0.302481  0  3.913535  0
C  C143  1  0.56134640  0.27274946  0.92232444  1  0.022315  0  -0.104611  -0.302371  0  3.91346  0
C  C144  1  0.43865266  0.77274629  0.42232415  1  0.02282  0  -0.10471  -0.302525  0  3.913514  0
C  C145  1  0.43865450  0.72725042  0.07767595  1  0.022269  0  -0.104627  -0.302427  0  3.913387  0
C  C146  1  0.62302123  0.29266246  0.63194067  1  0.465487  0  0.086978  0.287852  0  4.076484  0
C  C147  1  0.62301821  0.20733969  0.86805802  1  0.465612  0  0.086958  0.287806  0  4.076654  0
C  C148  1  0.37697967  0.70733935  0.36805796  1  0.465684  0  0.08702  0.28794  0  4.076434  0
C  C149  1  0.37698097  0.79265830  0.13194066  1  0.465733  0  0.086948  0.287906  0  4.076436  0
C  C150  1  0.62179944  0.16615867  0.51807465  1  0.428323  0  0.087857  0.284566  0  4.070603  0
C  C151  1  0.62179796  0.33384218  0.98192716  1  0.428319  0  0.087836  0.284499  0  4.070489  0
C  C152  1  0.37820232  0.83383992  0.48192712  1  0.428277  0  0.087845  0.284453  0  4.070589  0
C  C153  1  0.37820380  0.66615771  0.01807266  1  0.428268  0  0.087876  0.284542  0  4.070378  0
C  C154  1  0.74287984  0.29758299  0.62725334  1  0.00302  0  -0.12125  -0.274879  0  4.004899  0
C  C155  1  0.74287601  0.20241926  0.87274308  1  0.002732  0  -0.121245  -0.274726  0  4.004979  0
C  C156  1  0.25712020  0.70242139  0.37274255  1  0.002909  0  -0.121329  -0.274937  0  4.004997  0
C  C157  1  0.25712059  0.79757872  0.12725618  1  0.002856  0  -0.121252  -0.27481  0  4.004888  0
C  C158  1  0.74110887  0.17142542  0.51010104  1  0.012697  0  -0.117908  -0.272292  0  4.001109  0
C  C159  1  0.74110917  0.32857234  0.98989874  1  0.012735  0  -0.11793  -0.272305  0  4.001084  0
C  C160  1  0.25889117  0.82857317  0.48990073  1  0.012699  0  -0.117927  -0.272241  0  4.001095  0
C  C161  1  0.25889346  0.67142501  0.01009976  1  0.012923  0  -0.117899  -0.272269  0  4.001198  0
C  C162  1  0.80112400  0.23731882  0.56517660  1  -0.041202  0  -0.022648  0.02088  0  4.019486  0
C  C163  1  0.80112225  0.26267933  0.93482096  1  -0.041185  0  -0.0227  0.020741  0  4.019491  0
C  C164  1  0.19887690  0.76268171  0.43482224  1  -0.041169  0  -0.022647  0.020837  0  4.019373  0
C  C165  1  0.19888037  0.73731740  0.06517676  1  -0.041375  0  -0.022683  0.020831  0  4.019572  0
C  C166  1  0.92890782  0.24447081  0.55542816  1  1.560659  0  0.194593  0.566683  0  4.208774  0
C  C167  1  0.92890613  0.25552675  0.94456810  1  1.560801  0  0.194699  0.56695  0  4.208465  0
C  C168  1  0.07109309  0.75553101  0.44456930  1  1.560818  0  0.194669  0.566742  0  4.208557  0
C  C169  1  0.07109477  0.74446934  0.05542886  1  1.561283  0  0.194654  0.56675  0  4.20866  0
C  C170  1  0.60681201  0.04462100  0.40131836  1  0.358886  0  0.08889  0.26426  0  4.022116  0
C  C171  1  0.60681362  0.45538011  0.09868460  1  0.358949  0  0.088926  0.264263  0  4.022215  0
C  C172  1  0.39318459  0.95537824  0.59868186  1  0.358968  0  0.08887  0.264288  0  4.022061  0
C  C173  1  0.39318815  0.54461720  0.90131796  1  0.358888  0  0.088916  0.264176  0  4.022153  0
C  C174  1  0.62011661  0.95971189  0.39785532  1  0.014252  0  -0.090647  -0.177941  0  3.940082  0
C  C175  1  0.62012007  0.54028713  0.10214608  1  0.014575  0  -0.090688  -0.177997  0  3.940145  0
C  C176  1  0.37987740  0.04028610  0.60214335  1  0.014542  0  -0.090621  -0.177936  0  3.940055  0
C  C177  1  0.37988169  0.45971080  0.89785725  1  0.014209  0  -0.090634  -0.177829  0  3.940244  0
C  C178  1  0.63447738  0.07348194  0.33484262  1  0.011521  0  -0.099575  -0.202411  0  4.020384  0
C  C179  1  0.63447324  0.42651714  0.16515917  1  0.011442  0  -0.09952  -0.202334  0  4.020319  0
C  C180  1  0.36552266  0.92651479  0.66515511  1  0.011571  0  -0.099537  -0.202364  0  4.020411  0
C  C181  1  0.36552335  0.57348206  0.83484453  1  0.011795  0  -0.099512  -0.202188  0  4.020179  0
C  C182  1  0.66243543  0.90255648  0.32671287  1  0.012442  0  -0.076505  -0.05682  0  3.934263  0
C  C183  1  0.66244015  0.59744171  0.17328888  1  0.012663  0  -0.076475  -0.056818  0  3.934255  0
C  C184  1  0.33756202  0.09744023  0.67328602  1  0.012563  0  -0.076502  -0.056839  0  3.934432  0
C  C185  1  0.33756247  0.40255685  0.82671579  1  0.012433  0  -0.076486  -0.05684  0  3.934419  0
C  C186  1  0.67443767  0.01567354  0.26378149  1  -0.042657  0  -0.087332  -0.081521  0  4.009656  0
C  C187  1  0.67443564  0.48432662  0.23622062  1  -0.042449  0  -0.08734  -0.081573  0  4.009656  0
C  C188  1  0.32556151  0.98432445  0.73621719  1  -0.042537  0  -0.087376  -0.08158  0  4.009759  0
C  C189  1  0.32556181  0.51567258  0.76378308  1  -0.042819  0  -0.087422  -0.081717  0  4.009684  0
C  C190  1  0.68972982  0.92989451  0.25898795  1  -0.069118  0  -0.027883  -0.06304  0  4.000678  0
C  C191  1  0.68973136  0.57010607  0.24101567  1  -0.069268  0  -0.027841  -0.062929  0  4.000473  0
C  C192  1  0.31026850  0.07010408  0.74101323  1  -0.069082  0  -0.027856  -0.063027  0  4.000646  0
C  C193  1  0.31026868  0.42989312  0.75898919  1  -0.069039  0  -0.0278  -0.062911  0  4.000602  0
C  C194  1  0.73257975  0.87022124  0.18140129  1  1.527894  0  0.199912  0.572026  0  4.199668  0
C  C195  1  0.73258340  0.62977597  0.31860136  1  1.527179  0  0.199935  0.572136  0  4.199501  0
C  C196  1  0.26742115  0.12977608  0.81860011  1  1.527348  0  0.199893  0.572081  0  4.199555  0
C  C197  1  0.26741922  0.37022131  0.68140294  1  1.527818  0  0.199945  0.572163  0  4.19965  0
C  C198  1  0.00814077  0.93046461  0.27244201  1  0.978996  0  0.133162  0.076837  0  3.92688  0
C  C199  1  0.00813973  0.56953980  0.22756025  1  0.979151  0  0.13328  0.077091  0  3.926878  0
C  C200  1  0.99186099  0.06953525  0.72756013  1  0.979576  0  0.133164  0.076905  0  3.926972  0
C  C201  1  0.99185514  0.43046069  0.77244150  1  0.979063  0  0.133357  0.077116  0  3.926642  0
C  C202  1  0.96983721  0.01104290  0.39754687  1  0.212231  0  0.004934  -0.093826  0  3.870628  0
C  C203  1  0.96982132  0.48896477  0.10245634  1  0.212592  0  0.005011  -0.093687  0  3.870663  0
C  C204  1  0.03017660  0.98895949  0.60245543  1  0.21199  0  0.004933  -0.093884  0  3.870605  0
C  C205  1  0.03017184  0.51103954  0.89754535  1  0.211925  0  0.004988  -0.093773  0  3.870642  0
C  C206  1  0.93973691  0.92884503  0.39088723  1  0.415929  0  -0.002672  -0.028568  0  3.969359  0
C  C207  1  0.93972633  0.57116199  0.10911891  1  0.416211  0  -0.002683  -0.028401  0  3.96925  0
C  C208  1  0.06027691  0.07115607  0.60911819  1  0.416279  0  -0.002647  -0.028406  0  3.969333  0
C  C209  1  0.06026855  0.42884293  0.89088529  1  0.416137  0  -0.002707  -0.028468  0  3.969452  0
C  C210  1  0.04598780  0.08674008  0.30027817  1  0.296169  0  -0.051369  -0.064695  0  3.850213  0
C  C211  1  0.04598379  0.41325987  0.19972082  1  0.295875  0  -0.051363  -0.064687  0  3.850234  0
C  C212  1  0.95401482  0.91325792  0.69971934  1  0.295779  0  -0.051324  -0.06465  0  3.850179  0
C  C213  1  0.95401281  0.58673876  0.80027689  1  0.295889  0  -0.051415  -0.064722  0  3.850317  0
C  C214  1  0.94571933  0.12374128  0.26428824  1  -0.016076  0  -0.158532  -0.18813  0  3.927727  0
C  C215  1  0.94571651  0.37625957  0.23571005  1  -0.016046  0  -0.158524  -0.188096  0  3.927666  0
C  C216  1  0.05428329  0.87625862  0.73570983  1  -0.015657  0  -0.158507  -0.188089  0  3.927637  0
C  C217  1  0.05428181  0.62374032  0.76428977  1  -0.01598  0  -0.158519  -0.188039  0  3.927682  0
N  N218  1  0.00038704  0.07767242  0.11777118  1  -1.228514  0  -0.247528  0.032678  0  3.799221  0
N  N219  1  0.00038390  0.42233094  0.38222646  1  -1.228242  0  -0.247454  0.03275  0  3.799162  0
N  N220  1  0.99961386  0.92232749  0.88222631  1  -1.227936  0  -0.247432  0.03284  0  3.799126  0
N  N221  1  0.99961442  0.57767274  0.61777504  1  -1.227921  0  -0.247482  0.032771  0  3.799209  0
N  N222  1  0.10051547  0.12855153  0.03325021  1  -1.20218  0  -0.354188  -0.28283  0  3.533069  0
N  N223  1  0.10051539  0.37144883  0.46674658  1  -1.202022  0  -0.35416  -0.282781  0  3.532887  0
N  N224  1  0.89948457  0.87144521  0.96674635  1  -1.201735  0  -0.354212  -0.282886  0  3.533052  0
N  N225  1  0.89948637  0.62855676  0.53325549  1  -1.201735  0  -0.354187  -0.282814  0  3.533126  0
N  N226  1  0.96449748  0.87923212  0.31246234  1  -1.217077  0  -0.37038  -0.304541  0  3.585808  0
N  N227  1  0.96449426  0.62077414  0.18754475  1  -1.217448  0  -0.370326  -0.304603  0  3.585801  0
N  N228  1  0.03550859  0.12076896  0.68754423  1  -1.217505  0  -0.370278  -0.304528  0  3.585717  0
N  N229  1  0.03550320  0.37922696  0.81246008  1  -1.217206  0  -0.370376  -0.304566  0  3.585743  0
N  N230  1  0.01259842  0.01093810  0.32231987  1  -1.234885  0  -0.241062  0.051001  0  3.767087  0
N  N231  1  0.01259117  0.48906580  0.17768143  1  -1.235571  0  -0.241118  0.050626  0  3.766968  0
N  N232  1  0.98740506  0.98906241  0.67768071  1  -1.235107  0  -0.241082  0.050814  0  3.767037  0
N  N233  1  0.98740199  0.51093535  0.82231934  1  -1.234951  0  -0.241158  0.050694  0  3.76689  0
O  O234  1  0.72214964  0.71352138  0.91011024  1  -1.158352  0  -0.349088  -0.566377  0  2.12356  0
O  O235  1  0.72215098  0.78647890  0.58988816  1  -1.158276  0  -0.349093  -0.566322  0  2.123666  0
O  O236  1  0.27784868  0.28647723  0.08988921  1  -1.15837  0  -0.349087  -0.566292  0  2.123599  0
O  O237  1  0.27784906  0.21352288  0.41011222  1  -1.158412  0  -0.349046  -0.566294  0  2.123607  0
O  O238  1  0.77033998  0.63524871  0.99183643  1  -1.160147  0  -0.334009  -0.56159  0  2.219552  0
O  O239  1  0.77034577  0.86475134  0.50816308  1  -1.160254  0  -0.3339  -0.561454  0  2.219742  0
O  O240  1  0.22966006  0.36474803  0.00816014  1  -1.160222  0  -0.333931  -0.56148  0  2.219573  0
O  O241  1  0.22965255  0.13525107  0.49183806  1  -1.160265  0  -0.333939  -0.561486  0  2.219738  0
O  O242  1  0.55826441  0.35044996  0.68911259  1  -1.102193  0  -0.152438  -0.212393  0  2.559601  0
O  O243  1  0.55826186  0.14955377  0.81088539  1  -1.102257  0  -0.152461  -0.212462  0  2.559652  0
O  O244  1  0.44173477  0.64955120  0.31088644  1  -1.102182  0  -0.152433  -0.212425  0  2.559563  0
O  O245  1  0.44173646  0.85044802  0.18911498  1  -1.102208  0  -0.152479  -0.212509  0  2.559611  0
O  O246  1  0.55754239  0.09952364  0.47077693  1  -1.10379  0  -0.147179  -0.212417  0  2.56859  0
O  O247  1  0.55754616  0.40048088  0.02922584  1  -1.103782  0  -0.147232  -0.212442  0  2.568652  0
O  O248  1  0.44245593  0.90047751  0.52922383  1  -1.103811  0  -0.14718  -0.212366  0  2.568615  0
O  O249  1  0.44246077  0.59951961  0.97077591  1  -1.103842  0  -0.147233  -0.212479  0  2.568421  0
O  O250  1  0.98844272  0.28905330  0.61596108  1  -1.197555  0  -0.339086  -0.601624  0  2.249723  0
O  O251  1  0.98844225  0.21094334  0.88403609  1  -1.197679  0  -0.339168  -0.601781  0  2.249663  0
O  O252  1  0.01155732  0.71094851  0.38403639  1  -1.197611  0  -0.339106  -0.601635  0  2.249769  0
O  O253  1  0.01155865  0.78905277  0.11596029  1  -1.197991  0  -0.339058  -0.601637  0  2.24973  0
O  O254  1  0.97315642  0.20793398  0.48629428  1  -1.185715  0  -0.324635  -0.560317  0  2.20659  0
O  O255  1  0.97315509  0.29206741  0.01370126  1  -1.185794  0  -0.324657  -0.560442  0  2.206479  0
O  O256  1  0.02684362  0.79206974  0.51370374  1  -1.185898  0  -0.324684  -0.560395  0  2.20649  0
O  O257  1  0.02684581  0.70793062  0.98629393  1  -1.185904  0  -0.324747  -0.560466  0  2.206481  0
O  O258  1  0.73952699  0.89609103  0.11864349  1  -1.15321  0  -0.326753  -0.542765  0  2.194516  0
O  O259  1  0.73953519  0.60390300  0.38135648  1  -1.152593  0  -0.326779  -0.542866  0  2.194496  0
O  O260  1  0.26046961  0.10390440  0.88135619  1  -1.152725  0  -0.326738  -0.54282  0  2.194516  0
O  O261  1  0.26047087  0.39609114  0.61864515  1  -1.153078  0  -0.326804  -0.542856  0  2.194549  0
O  O262  1  0.76274960  0.79395166  0.17814382  1  -1.180845  0  -0.340671  -0.590749  0  2.323701  0
O  O263  1  0.76274743  0.70604664  0.32186323  1  -1.180701  0  -0.340682  -0.590781  0  2.323698  0
O  O264  1  0.23725732  0.20604627  0.82186009  1  -1.180694  0  -0.340711  -0.590764  0  2.323724  0
O  O265  1  0.23725089  0.29395252  0.67814453  1  -1.180834  0  -0.340651  -0.590774  0  2.323715  0
