# generated using pymatgen
data_Zn3H6C10(N10O)2
_symmetry_space_group_name_H-M   'P 1'
_cell_length_a   14.31563437
_cell_length_b   14.31565198
_cell_length_c   19.35615977
_cell_angle_alpha   90.00000820
_cell_angle_beta   90.00001916
_cell_angle_gamma   89.99995508
_symmetry_Int_Tables_number   1
_chemical_formula_structural   Zn3H6C10(N10O)2
_chemical_formula_sum   'Zn24 H48 C80 N160 O16'
_cell_volume   3966.80569222
_cell_formula_units_Z   8
loop_
 _symmetry_equiv_pos_site_id
 _symmetry_equiv_pos_as_xyz
  1  'x, y, z'
loop_
 _atom_site_type_symbol
 _atom_site_label
 _atom_site_symmetry_multiplicity
 _atom_site_fract_x
 _atom_site_fract_y
 _atom_site_fract_z
 _atom_site_occupancy
 _atom_site_pbe_bader_charge
 _atom_site_pbe_bader_spin_density
 _atom_site_pbe_cm5_charge
 _atom_site_pbe_ddec_charge
 _atom_site_pbe_ddec_spin_density
 _atom_site_pbe_ddec_sum_bond_order
 _atom_site_pbe_magmom
Zn  Zn0  1  0.20031020  0.54380053  0.20947756  1  1.227603  0  0.755184  0.643814  0  2.49037  0
Zn  Zn1  1  0.79968920  0.45620177  0.20947762  1  1.227561  0  0.75524  0.643883  0  2.490306  0
Zn  Zn2  1  0.45620201  0.20030862  0.70947757  1  1.227562  0  0.755202  0.643875  0  2.490308  0
Zn  Zn3  1  0.54379901  0.79968890  0.70947658  1  1.227587  0  0.755217  0.643879  0  2.490275  0
Zn  Zn4  1  0.29968859  0.04380027  0.79052255  1  1.227544  0  0.755213  0.643842  0  2.490366  0
Zn  Zn5  1  0.70030967  0.95620075  0.79052265  1  1.227541  0  0.755186  0.643797  0  2.490384  0
Zn  Zn6  1  0.04380085  0.70031251  0.29052255  1  1.227548  0  0.755214  0.643805  0  2.490426  0
Zn  Zn7  1  0.95620068  0.29968911  0.29052212  1  1.227548  0  0.755187  0.643815  0  2.490386  0
Zn  Zn8  1  0.79968863  0.45620043  0.79052315  1  1.227588  0  0.755214  0.643866  0  2.490314  0
Zn  Zn9  1  0.20030894  0.54379640  0.79052360  1  1.227585  0  0.755221  0.643889  0  2.490292  0
Zn  Zn10  1  0.54379892  0.79969025  0.29052210  1  1.227561  0  0.755196  0.64382  0  2.490393  0
Zn  Zn11  1  0.45619912  0.20031277  0.29052257  1  1.227554  0  0.755221  0.643837  0  2.490322  0
Zn  Zn12  1  0.70030954  0.95620069  0.20947661  1  1.227545  0  0.755176  0.643736  0  2.490446  0
Zn  Zn13  1  0.29968986  0.04380021  0.20947754  1  1.227543  0  0.755202  0.643822  0  2.490373  0
Zn  Zn14  1  0.95620007  0.29968845  0.70947764  1  1.22755  0  0.755196  0.643783  0  2.4904  0
Zn  Zn15  1  0.04379955  0.70030976  0.70947755  1  1.227537  0  0.755209  0.643788  0  2.490379  0
Zn  Zn16  1  0.20292634  0.41056946  0.50000057  1  1.318809  0  0.7051  0.780672  0  2.368766  0
Zn  Zn17  1  0.79707598  0.58943080  0.50000013  1  1.318883  0  0.705076  0.78067  0  2.368859  0
Zn  Zn18  1  0.58943171  0.20292591  0.00000008  1  1.318783  0  0.705107  0.780696  0  2.368797  0
Zn  Zn19  1  0.41056712  0.79707366  0.99999907  1  1.318597  0  0.705128  0.780732  0  2.368781  0
Zn  Zn20  1  0.29707566  0.91056691  0.50000009  1  1.318827  0  0.705142  0.78077  0  2.368745  0
Zn  Zn21  1  0.70292667  0.08943126  0.49999958  1  1.318807  0  0.705089  0.780662  0  2.368775  0
Zn  Zn22  1  0.91056875  0.70292895  0.99999964  1  1.318745  0  0.705122  0.780684  0  2.36876  0
Zn  Zn23  1  0.08943218  0.29707410  0.00000003  1  1.318761  0  0.705094  0.780667  0  2.368815  0
H  H24  1  0.36717200  0.23987511  0.43742205  1  0.144067  0  0.133624  0.092549  0  1.001903  0
H  H25  1  0.63282890  0.76012794  0.43742159  1  0.144068  0  0.133641  0.092594  0  1.001848  0
H  H26  1  0.76012775  0.36717064  0.93742108  1  0.144062  0  0.133637  0.092554  0  1.001924  0
H  H27  1  0.23987198  0.63282832  0.93742155  1  0.144096  0  0.133612  0.092524  0  1.001885  0
H  H28  1  0.13282944  0.73986920  0.56258014  1  0.144723  0  0.133642  0.09259  0  1.001858  0
H  H29  1  0.86717291  0.26012688  0.56257917  1  0.140257  0  0.133628  0.092565  0  1.001899  0
H  H30  1  0.73987118  0.86717224  0.06257867  1  0.140232  0  0.133643  0.092603  0  1.001902  0
H  H31  1  0.26012815  0.13282794  0.06257908  1  0.144082  0  0.133615  0.092513  0  1.001934  0
H  H32  1  0.63283172  0.76012656  0.56257762  1  0.140881  0  0.13364  0.092576  0  1.001886  0
H  H33  1  0.36717273  0.23987163  0.56257756  1  0.140234  0  0.133619  0.092549  0  1.001863  0
H  H34  1  0.23987178  0.63282753  0.06257859  1  0.140238  0  0.133651  0.092607  0  1.001903  0
H  H35  1  0.76012686  0.36717125  0.06257812  1  0.140253  0  0.133616  0.092525  0  1.001903  0
H  H36  1  0.86717498  0.26012477  0.43742056  1  0.14401  0  0.133653  0.092559  0  1.00189  0
H  H37  1  0.13283081  0.73987199  0.43742205  1  0.140886  0  0.133614  0.092567  0  1.001908  0
H  H38  1  0.26012835  0.13282873  0.93742152  1  0.140232  0  0.133635  0.092554  0  1.001917  0
H  H39  1  0.73987208  0.86717302  0.93742059  1  0.144093  0  0.133623  0.092538  0  1.001896  0
H  H40  1  0.08593961  0.26922491  0.45880178  1  0.625593  0  0.281864  0.336022  0  1.023019  0
H  H41  1  0.91406130  0.73077534  0.45880087  1  0.625591  0  0.281892  0.336059  0  1.022997  0
H  H42  1  0.73077465  0.08593861  0.95880133  1  0.625593  0  0.281875  0.336012  0  1.023027  0
H  H43  1  0.26922370  0.91406035  0.95880132  1  0.625584  0  0.281915  0.336094  0  1.022968  0
H  H44  1  0.41406251  0.76922437  0.54119835  1  0.62558  0  0.281904  0.33606  0  1.022991  0
H  H45  1  0.58594054  0.23077450  0.54119834  1  0.625596  0  0.281901  0.336094  0  1.022964  0
H  H46  1  0.76922451  0.58594298  0.04119838  1  0.625602  0  0.28189  0.336027  0  1.023075  0
H  H47  1  0.23077551  0.41405999  0.04119882  1  0.62559  0  0.281926  0.336116  0  1.022938  0
H  H48  1  0.91406132  0.73077535  0.54119841  1  0.625585  0  0.281888  0.336056  0  1.023006  0
H  H49  1  0.08593963  0.26922422  0.54119932  1  0.625582  0  0.281922  0.336111  0  1.022944  0
H  H50  1  0.26922349  0.91405956  0.04119885  1  0.625581  0  0.281896  0.336066  0  1.02301  0
H  H51  1  0.73077444  0.08593922  0.04119887  1  0.625579  0  0.281928  0.336113  0  1.022936  0
H  H52  1  0.58593982  0.23077449  0.45880132  1  0.625597  0  0.281911  0.336117  0  1.022925  0
H  H53  1  0.41406179  0.76922437  0.45880081  1  0.625582  0  0.281904  0.336064  0  1.022983  0
H  H54  1  0.23077502  0.41406078  0.95880181  1  0.625595  0  0.281868  0.336042  0  1.022987  0
H  H55  1  0.76922332  0.58594376  0.95880085  1  0.625588  0  0.28189  0.336013  0  1.02309  0
H  H56  1  0.32275822  0.56262537  0.54129494  1  0.630619  0  0.278208  0.337147  0  1.016854  0
H  H57  1  0.67724413  0.43737630  0.54129498  1  0.630629  0  0.278206  0.337115  0  1.016905  0
H  H58  1  0.43737624  0.32275565  0.04129597  1  0.630559  0  0.278197  0.337123  0  1.016891  0
H  H59  1  0.56262378  0.67724382  0.04129445  1  0.630639  0  0.278178  0.337119  0  1.016923  0
H  H60  1  0.17724406  0.06262304  0.45870620  1  0.630649  0  0.278166  0.337095  0  1.016971  0
H  H61  1  0.82275755  0.93737582  0.45870477  1  0.630614  0  0.2782  0.337109  0  1.016909  0
H  H62  1  0.06262443  0.82275687  0.95870520  1  0.630631  0  0.278189  0.337115  0  1.016908  0
H  H63  1  0.93737600  0.17724279  0.95870527  1  0.63063  0  0.278176  0.337098  0  1.016932  0
H  H64  1  0.67724411  0.43737560  0.45870473  1  0.630619  0  0.278208  0.33711  0  1.016914  0
H  H65  1  0.32275750  0.56262396  0.45870469  1  0.630614  0  0.278198  0.337115  0  1.016901  0
H  H66  1  0.56262399  0.67724391  0.95870370  1  0.630611  0  0.278197  0.337114  0  1.016903  0
H  H67  1  0.43737505  0.32275644  0.95870573  1  0.630634  0  0.278189  0.337121  0  1.016907  0
H  H68  1  0.82275687  0.93737513  0.54129554  1  0.630617  0  0.278201  0.337132  0  1.016871  0
H  H69  1  0.17724408  0.06262305  0.54129593  1  0.630624  0  0.278216  0.33714  0  1.016872  0
H  H70  1  0.93737510  0.17724410  0.04129499  1  0.630613  0  0.278202  0.337133  0  1.016877  0
H  H71  1  0.06262353  0.82275748  0.04129543  1  0.630624  0  0.278204  0.337137  0  1.016867  0
C  C72  1  0.33590057  0.28619574  0.39949821  1  0.976469  0  0.142428  0.182657  0  3.961022  0
C  C73  1  0.66409892  0.71380730  0.39949723  1  0.97643  0  0.142362  0.182588  0  3.961058  0
C  C74  1  0.71380637  0.33590068  0.89949774  1  0.976437  0  0.142398  0.182608  0  3.961172  0
C  C75  1  0.28619264  0.66409896  0.89949513  1  0.976494  0  0.142392  0.182587  0  3.961254  0
C  C76  1  0.16410014  0.78619192  0.60050347  1  0.975794  0  0.142394  0.18258  0  3.961139  0
C  C77  1  0.83590084  0.21380627  0.60050301  1  0.97645  0  0.142414  0.18259  0  3.961166  0
C  C78  1  0.78619259  0.83590155  0.10050200  1  0.976388  0  0.142371  0.182483  0  3.961114  0
C  C79  1  0.21380606  0.16409863  0.10050293  1  0.97642  0  0.142426  0.18264  0  3.961219  0
C  C80  1  0.66410036  0.71380592  0.60050198  1  0.975843  0  0.142424  0.182653  0  3.961079  0
C  C81  1  0.33590131  0.28619367  0.60050347  1  0.9765  0  0.142413  0.182624  0  3.961186  0
C  C82  1  0.28619316  0.66409889  0.10050193  1  0.976415  0  0.142343  0.182511  0  3.961247  0
C  C83  1  0.71380479  0.33590130  0.10050351  1  0.976466  0  0.142405  0.182623  0  3.961128  0
C  C84  1  0.83590289  0.21380415  0.39949671  1  0.976707  0  0.14244  0.182661  0  3.96101  0
C  C85  1  0.16410219  0.78619400  0.39949821  1  0.975832  0  0.142352  0.182506  0  3.961144  0
C  C86  1  0.21380624  0.16409941  0.89949767  1  0.976459  0  0.142421  0.182639  0  3.961121  0
C  C87  1  0.78619417  0.83590233  0.89949571  1  0.976611  0  0.142391  0.182564  0  3.961215  0
C  C88  1  0.30535559  0.35179877  0.30002083  1  0.47547  0  0.085087  0.050493  0  4.02174  0
C  C89  1  0.69464455  0.64820216  0.30002089  1  0.475475  0  0.085044  0.050445  0  4.021853  0
C  C90  1  0.64820326  0.30535581  0.80001932  1  0.475332  0  0.08512  0.050474  0  4.021602  0
C  C91  1  0.35179780  0.69464242  0.80002034  1  0.475489  0  0.085015  0.050243  0  4.02186  0
C  C92  1  0.19464436  0.85179773  0.69997983  1  0.475321  0  0.085065  0.050412  0  4.021756  0
C  C93  1  0.80535736  0.14820187  0.69998038  1  0.475468  0  0.085109  0.050478  0  4.02175  0
C  C94  1  0.85179642  0.80535805  0.19998041  1  0.475313  0  0.08499  0.050298  0  4.021893  0
C  C95  1  0.14820297  0.19464426  0.19998133  1  0.475293  0  0.085084  0.050414  0  4.02167  0
C  C96  1  0.69464324  0.64820010  0.69997833  1  0.475468  0  0.085059  0.050354  0  4.02197  0
C  C97  1  0.30535638  0.35179671  0.69997775  1  0.475367  0  0.084903  0.050183  0  4.021905  0
C  C98  1  0.35179697  0.69464376  0.19998035  1  0.475297  0  0.085104  0.050468  0  4.02165  0
C  C99  1  0.64820173  0.30535715  0.19997985  1  0.475478  0  0.085046  0.050333  0  4.021873  0
C  C100  1  0.80535657  0.14820253  0.30001881  1  0.475254  0  0.085043  0.050338  0  4.021935  0
C  C101  1  0.19464567  0.85179699  0.30002032  1  0.475457  0  0.085032  0.050481  0  4.021675  0
C  C102  1  0.14820241  0.19464362  0.80001977  1  0.475315  0  0.085092  0.050409  0  4.021752  0
C  C103  1  0.85179656  0.80535671  0.80001938  1  0.475337  0  0.085075  0.050357  0  4.021764  0
C  C104  1  0.24954667  0.39198208  0.35122675  1  0.457044  0  0.082058  0.03618  0  4.023048  0
C  C105  1  0.75044930  0.60801955  0.35122630  1  0.456984  0  0.082145  0.036282  0  4.022957  0
C  C106  1  0.60802065  0.24954489  0.85122730  1  0.457027  0  0.082038  0.036182  0  4.022982  0
C  C107  1  0.39198043  0.75044776  0.85122524  1  0.457064  0  0.082111  0.03626  0  4.022983  0
C  C108  1  0.25044975  0.89198030  0.64877443  1  0.456952  0  0.082091  0.036191  0  4.023115  0
C  C109  1  0.74954705  0.10801930  0.64877393  1  0.457049  0  0.082042  0.036159  0  4.023047  0
C  C110  1  0.89197907  0.74954918  0.14877398  1  0.457051  0  0.082118  0.036201  0  4.023064  0
C  C111  1  0.10802100  0.25045381  0.14877334  1  0.457014  0  0.082051  0.03617  0  4.023088  0
C  C112  1  0.75044727  0.60801958  0.64877241  1  0.457045  0  0.082085  0.036249  0  4.02305  0
C  C113  1  0.24955443  0.39198141  0.64877234  1  0.457162  0  0.082123  0.036229  0  4.023037  0
C  C114  1  0.39197888  0.75045119  0.14877288  1  0.457075  0  0.082105  0.036228  0  4.023073  0
C  C115  1  0.60801910  0.24955181  0.14877340  1  0.457025  0  0.082083  0.036223  0  4.023094  0
C  C116  1  0.74954838  0.10801997  0.35122472  1  0.457085  0  0.08207  0.03617  0  4.02318  0
C  C117  1  0.25045388  0.89198027  0.35122677  1  0.457041  0  0.082053  0.036196  0  4.022925  0
C  C118  1  0.10801976  0.25045248  0.85122621  1  0.457053  0  0.08207  0.036222  0  4.023055  0
C  C119  1  0.89198063  0.74954715  0.85122582  1  0.457013  0  0.08206  0.036215  0  4.023137  0
C  C120  1  0.31572605  0.36720846  0.22686066  1  0.933441  0  0.215371  0.239102  0  4.101344  0
C  C121  1  0.68427196  0.63279175  0.22686020  1  0.933335  0  0.2153  0.238959  0  4.101289  0
C  C122  1  0.63279421  0.31572558  0.72686070  1  0.933188  0  0.215349  0.239126  0  4.101171  0
C  C123  1  0.36720821  0.68426984  0.72685862  1  0.933789  0  0.215378  0.239187  0  4.101287  0
C  C124  1  0.18427110  0.86720885  0.77314000  1  0.933309  0  0.215277  0.238951  0  4.101332  0
C  C125  1  0.81572646  0.13279147  0.77314004  1  0.933427  0  0.215229  0.238842  0  4.101514  0
C  C126  1  0.86720616  0.81572782  0.27314007  1  0.933287  0  0.215281  0.238988  0  4.101394  0
C  C127  1  0.13279466  0.18427450  0.27313892  1  0.93319  0  0.215358  0.23916  0  4.101156  0
C  C128  1  0.68427069  0.63279110  0.77313953  1  0.933331  0  0.215247  0.238929  0  4.101484  0
C  C129  1  0.31572967  0.36720782  0.77314050  1  0.933352  0  0.215375  0.239162  0  4.101217  0
C  C130  1  0.36720602  0.68427399  0.27313949  1  0.933294  0  0.215309  0.239043  0  4.101186  0
C  C131  1  0.63279132  0.31572833  0.27314053  1  0.933328  0  0.215244  0.238912  0  4.101506  0
C  C132  1  0.81572564  0.13279282  0.22685916  1  0.933254  0  0.215224  0.238945  0  4.101447  0
C  C133  1  0.18427447  0.86720879  0.22686118  1  0.933281  0  0.21532  0.238997  0  4.101345  0
C  C134  1  0.13279337  0.18427315  0.72685960  1  0.933222  0  0.215268  0.238969  0  4.10132  0
C  C135  1  0.86720696  0.81572646  0.72685920  1  0.933234  0  0.215256  0.23895  0  4.101455  0
C  C136  1  0.18002056  0.46428200  0.35372724  1  0.974247  0  0.230269  0.249737  0  4.07054  0
C  C137  1  0.81997890  0.53571964  0.35372629  1  0.974682  0  0.230228  0.249676  0  4.070604  0
C  C138  1  0.53572071  0.18002032  0.85372727  1  0.974638  0  0.23025  0.249626  0  4.070666  0
C  C139  1  0.46428178  0.81997862  0.85372420  1  0.97468  0  0.230196  0.249612  0  4.070866  0
C  C140  1  0.31997791  0.96427946  0.64627291  1  0.974411  0  0.230244  0.249665  0  4.070651  0
C  C141  1  0.68002239  0.03571944  0.64627291  1  0.974646  0  0.230271  0.249713  0  4.070594  0
C  C142  1  0.96427977  0.68002315  0.14627297  1  0.974408  0  0.230204  0.249617  0  4.07052  0
C  C143  1  0.03572099  0.31997844  0.14627284  1  0.97465  0  0.230251  0.249682  0  4.070643  0
C  C144  1  0.81997897  0.53571617  0.64627450  1  0.974339  0  0.230177  0.249541  0  4.07073  0
C  C145  1  0.18002203  0.46428133  0.64627494  1  0.974038  0  0.230224  0.249693  0  4.070533  0
C  C146  1  0.46427952  0.81997925  0.14627292  1  0.97468  0  0.230233  0.249608  0  4.070615  0
C  C147  1  0.53571845  0.18002164  0.14627496  1  0.974266  0  0.23015  0.249588  0  4.07073  0
C  C148  1  0.68002163  0.03571941  0.35372676  1  0.974671  0  0.230265  0.249742  0  4.070455  0
C  C149  1  0.31998063  0.96428082  0.35372676  1  0.97425  0  0.230266  0.249682  0  4.070623  0
C  C150  1  0.03571836  0.31997781  0.85372722  1  0.974259  0  0.230193  0.249591  0  4.070453  0
C  C151  1  0.96427854  0.68002252  0.85372683  1  0.974377  0  0.230225  0.249639  0  4.070542  0
N  N152  1  0.27056778  0.34997072  0.41357227  1  -1.206472  0  -0.34403  -0.31054  0  3.472421  0
N  N153  1  0.72943171  0.65003092  0.41357235  1  -1.206372  0  -0.344035  -0.310547  0  3.472356  0
N  N154  1  0.65003137  0.27056802  0.91357232  1  -1.206356  0  -0.344019  -0.310495  0  3.472406  0
N  N155  1  0.34996765  0.72943023  0.91357128  1  -1.206171  0  -0.344033  -0.310493  0  3.47236  0
N  N156  1  0.22943287  0.84996754  0.58642941  1  -1.206311  0  -0.344024  -0.310515  0  3.472489  0
N  N157  1  0.77056879  0.15003064  0.58642841  1  -1.206326  0  -0.343994  -0.310421  0  3.472305  0
N  N158  1  0.84996834  0.77057024  0.08642896  1  -1.206247  0  -0.344018  -0.31043  0  3.472385  0
N  N159  1  0.15003100  0.22943134  0.08642833  1  -1.206314  0  -0.344006  -0.310454  0  3.472403  0
N  N160  1  0.72943245  0.65003024  0.58642688  1  -1.206497  0  -0.344055  -0.310545  0  3.472431  0
N  N161  1  0.27056991  0.34996794  0.58642888  1  -1.206274  0  -0.344018  -0.310442  0  3.472412  0
N  N162  1  0.34996955  0.72943155  0.08642838  1  -1.206367  0  -0.344007  -0.310472  0  3.472494  0
N  N163  1  0.65003049  0.27056934  0.08642839  1  -1.206373  0  -0.344015  -0.310482  0  3.472455  0
N  N164  1  0.77057015  0.15002853  0.41357077  1  -1.206461  0  -0.344034  -0.310488  0  3.472379  0
N  N165  1  0.22943493  0.84996892  0.41357178  1  -1.206476  0  -0.343943  -0.310436  0  3.472307  0
N  N166  1  0.15002910  0.22943142  0.91357123  1  -1.206341  0  -0.344036  -0.310506  0  3.472437  0
N  N167  1  0.84997062  0.77057102  0.91357134  1  -1.206422  0  -0.344016  -0.310464  0  3.472407  0
N  N168  1  0.35899139  0.28410222  0.33178333  1  -1.210003  0  -0.363681  -0.326728  0  3.565167  0
N  N169  1  0.64100667  0.71589732  0.33178287  1  -1.210037  0  -0.363658  -0.326749  0  3.565175  0
N  N170  1  0.71590056  0.35899009  0.83178287  1  -1.210044  0  -0.363686  -0.326702  0  3.56507  0
N  N171  1  0.28410121  0.64100605  0.83178283  1  -1.210192  0  -0.363654  -0.326642  0  3.565122  0
N  N172  1  0.14100792  0.78410122  0.66821783  1  -1.210067  0  -0.363697  -0.326689  0  3.565144  0
N  N173  1  0.85899099  0.21589908  0.66821789  1  -1.210072  0  -0.363707  -0.32672  0  3.565227  0
N  N174  1  0.78409838  0.85899237  0.16821791  1  -1.210078  0  -0.36361  -0.326529  0  3.565095  0
N  N175  1  0.21590100  0.14100923  0.16821729  1  -1.210041  0  -0.363691  -0.326696  0  3.565142  0
N  N176  1  0.64100814  0.71589665  0.66821634  1  -1.210068  0  -0.363696  -0.326733  0  3.565267  0
N  N177  1  0.35899496  0.28410085  0.66821628  1  -1.210177  0  -0.363649  -0.326711  0  3.565325  0
N  N178  1  0.28409897  0.64100878  0.16821680  1  -1.210052  0  -0.363688  -0.326702  0  3.565147  0
N  N179  1  0.71589692  0.35899351  0.16821684  1  -1.210066  0  -0.3637  -0.326719  0  3.565234  0
N  N180  1  0.85899301  0.21589835  0.33178184  1  -1.21006  0  -0.36369  -0.326694  0  3.565184  0
N  N181  1  0.14100994  0.78410118  0.33178333  1  -1.209997  0  -0.363665  -0.326716  0  3.565225  0
N  N182  1  0.21589975  0.14100929  0.83178279  1  -1.210044  0  -0.363703  -0.326719  0  3.565177  0
N  N183  1  0.78409923  0.85899174  0.83178239  1  -1.210111  0  -0.363681  -0.326646  0  3.56516  0
N  N184  1  0.37893597  0.32028846  0.18902981  1  -0.656736  0  -0.220826  -0.282433  0  3.245522  0
N  N185  1  0.62106202  0.67971384  0.18902676  1  -0.656579  0  -0.220789  -0.282285  0  3.245423  0
N  N186  1  0.67971142  0.37893748  0.68902882  1  -0.656593  0  -0.220858  -0.282469  0  3.245539  0
N  N187  1  0.32028750  0.62106002  0.68902569  1  -0.656587  0  -0.220788  -0.282427  0  3.245431  0
N  N188  1  0.12106261  0.82028820  0.81097187  1  -0.656589  0  -0.220807  -0.28233  0  3.245486  0
N  N189  1  0.87893706  0.17971072  0.81097193  1  -0.656677  0  -0.220822  -0.28235  0  3.245459  0
N  N190  1  0.82028751  0.87893697  0.31097195  1  -0.65662  0  -0.220827  -0.282389  0  3.245523  0
N  N191  1  0.17971333  0.12106395  0.31097235  1  -0.656575  0  -0.220852  -0.282482  0  3.245454  0
N  N192  1  0.62106007  0.67971250  0.81097193  1  -0.65663  0  -0.220803  -0.282381  0  3.245518  0
N  N193  1  0.37893891  0.32028573  0.81097291  1  -0.656621  0  -0.2208  -0.282366  0  3.245445  0
N  N194  1  0.32028742  0.62106348  0.31097136  1  -0.656619  0  -0.220795  -0.282338  0  3.245389  0
N  N195  1  0.67971343  0.37893815  0.31097294  1  -0.656606  0  -0.220819  -0.282382  0  3.245513  0
N  N196  1  0.87893483  0.17971276  0.18902677  1  -0.656528  0  -0.220773  -0.282276  0  3.245497  0
N  N197  1  0.12106317  0.82028814  0.18903032  1  -0.656608  0  -0.220806  -0.282392  0  3.245418  0
N  N198  1  0.17971202  0.12106329  0.68902875  1  -0.656627  0  -0.220788  -0.282373  0  3.245538  0
N  N199  1  0.82028830  0.87893631  0.68902732  1  -0.656563  0  -0.220784  -0.282311  0  3.245463  0
N  N200  1  0.36681214  0.34962139  0.12371159  1  -0.159258  0  -0.072322  -0.032788  0  3.293019  0
N  N201  1  0.63318792  0.65037950  0.12370905  1  -0.159438  0  -0.07229  -0.032829  0  3.293097  0
N  N202  1  0.65037914  0.36681300  0.62371111  1  -0.159366  0  -0.07228  -0.032736  0  3.293106  0
N  N203  1  0.34962184  0.63318729  0.62370799  1  -0.159486  0  -0.072302  -0.032722  0  3.29305  0
N  N204  1  0.13318712  0.84962113  0.87629010  1  -0.159394  0  -0.072246  -0.0327  0  3.292949  0
N  N205  1  0.86681189  0.15037851  0.87628964  1  -0.159362  0  -0.072265  -0.032722  0  3.29304  0
N  N206  1  0.84962189  0.86681248  0.37628967  1  -0.159369  0  -0.072237  -0.032659  0  3.292987  0
N  N207  1  0.15038038  0.13318776  0.37629006  1  -0.159406  0  -0.072262  -0.032707  0  3.292973  0
N  N208  1  0.63318669  0.65038027  0.87628963  1  -0.159422  0  -0.072255  -0.032707  0  3.292994  0
N  N209  1  0.36681231  0.34961937  0.87629114  1  -0.159451  0  -0.072271  -0.032771  0  3.293026  0
N  N210  1  0.34962179  0.63318727  0.37628908  1  -0.159342  0  -0.072324  -0.032847  0  3.293076  0
N  N211  1  0.65037978  0.36681088  0.37629065  1  -0.159402  0  -0.072202  -0.03267  0  3.292976  0
N  N212  1  0.86681032  0.15037913  0.12370957  1  -0.159409  0  -0.072275  -0.032826  0  3.293247  0
N  N213  1  0.13318695  0.84962176  0.12371158  1  -0.159316  0  -0.072317  -0.03278  0  3.293  0
N  N214  1  0.15037834  0.13318639  0.62371104  1  -0.159368  0  -0.072282  -0.032711  0  3.293048  0
N  N215  1  0.84962125  0.86681250  0.62370961  1  -0.159406  0  -0.0723  -0.03279  0  3.293092  0
N  N216  1  0.30015073  0.41239676  0.12100960  1  -0.119019  0  -0.086079  -0.063595  0  3.267073  0
N  N217  1  0.69984863  0.58760343  0.12100862  1  -0.119065  0  -0.086106  -0.063618  0  3.267151  0
N  N218  1  0.58760374  0.30015102  0.62100860  1  -0.119027  0  -0.086047  -0.063519  0  3.267024  0
N  N219  1  0.41239794  0.69984787  0.62100808  1  -0.119103  0  -0.086088  -0.063638  0  3.267133  0
N  N220  1  0.19984848  0.91239785  0.87899158  1  -0.119065  0  -0.086086  -0.063589  0  3.267042  0
N  N221  1  0.80014983  0.08760319  0.87899161  1  -0.119073  0  -0.086054  -0.063602  0  3.267069  0
N  N222  1  0.91239804  0.80015185  0.37899062  1  -0.11904  0  -0.086083  -0.063654  0  3.267112  0
N  N223  1  0.08760353  0.19984909  0.37899204  1  -0.119049  0  -0.086086  -0.063553  0  3.266972  0
N  N224  1  0.69984810  0.58760351  0.87899110  1  -0.119021  0  -0.086055  -0.063525  0  3.267023  0
N  N225  1  0.30015020  0.41239544  0.87899156  1  -0.119037  0  -0.086063  -0.063585  0  3.266985  0
N  N226  1  0.41239788  0.69984855  0.37899107  1  -0.119038  0  -0.086105  -0.063568  0  3.267042  0
N  N227  1  0.58760299  0.30015100  0.37899159  1  -0.119079  0  -0.086123  -0.06366  0  3.267076  0
N  N228  1  0.80014896  0.08760311  0.12100809  1  -0.119069  0  -0.086101  -0.063626  0  3.26717  0
N  N229  1  0.19984831  0.91239708  0.12100961  1  -0.119003  0  -0.086044  -0.063549  0  3.267049  0
N  N230  1  0.08760289  0.19984842  0.62100853  1  -0.119045  0  -0.086069  -0.063618  0  3.267068  0
N  N231  1  0.91239740  0.80015048  0.62100815  1  -0.11908  0  -0.086063  -0.063621  0  3.267096  0
N  N232  1  0.26604327  0.42514227  0.18563863  1  -0.788576  0  -0.252573  -0.253632  0  3.505465  0
N  N233  1  0.73395402  0.57485863  0.18563767  1  -0.788436  0  -0.252544  -0.253546  0  3.505573  0
N  N234  1  0.57485966  0.26604361  0.68563815  1  -0.788398  0  -0.252615  -0.253768  0  3.505479  0
N  N235  1  0.42514135  0.73395180  0.68563816  1  -0.788859  0  -0.252628  -0.253702  0  3.505661  0
N  N236  1  0.23395523  0.92514262  0.81436203  1  -0.788466  0  -0.252582  -0.253675  0  3.505603  0
N  N237  1  0.76604305  0.07485770  0.81436205  1  -0.788502  0  -0.252553  -0.253525  0  3.50562  0
N  N238  1  0.92514215  0.76604511  0.31436106  1  -0.788455  0  -0.252589  -0.253619  0  3.505507  0
N  N239  1  0.07485870  0.23395721  0.31436248  1  -0.788376  0  -0.252613  -0.25376  0  3.505464  0
N  N240  1  0.73395277  0.57485800  0.81436155  1  -0.788423  0  -0.252567  -0.253649  0  3.505674  0
N  N241  1  0.26604621  0.42513814  0.81436149  1  -0.788443  0  -0.252623  -0.253696  0  3.505551  0
N  N242  1  0.42514127  0.73395666  0.31436100  1  -0.788481  0  -0.25256  -0.253662  0  3.505455  0
N  N243  1  0.57485818  0.26604567  0.31436203  1  -0.788465  0  -0.252526  -0.253502  0  3.505633  0
N  N244  1  0.76604221  0.07485834  0.18563764  1  -0.788457  0  -0.252525  -0.25352  0  3.505538  0
N  N245  1  0.23395648  0.92514116  0.18563917  1  -0.788517  0  -0.252562  -0.253607  0  3.505513  0
N  N246  1  0.07485878  0.23395585  0.68563809  1  -0.788403  0  -0.252582  -0.253608  0  3.505487  0
N  N247  1  0.92514153  0.76604375  0.68563771  1  -0.788414  0  -0.25255  -0.253531  0  3.505542  0
N  N248  1  0.14538637  0.51935809  0.30395187  1  -0.767157  0  -0.246805  -0.253543  0  3.517878  0
N  N249  1  0.85461238  0.48064354  0.30395143  1  -0.766931  0  -0.246746  -0.253444  0  3.517901  0
N  N250  1  0.48064386  0.14538551  0.80395189  1  -0.766857  0  -0.246747  -0.25341  0  3.517783  0
N  N251  1  0.51935581  0.85461132  0.80395142  1  -0.766969  0  -0.24665  -0.253288  0  3.518016  0
N  N252  1  0.35461245  0.01935636  0.69604927  1  -0.767021  0  -0.246719  -0.253404  0  3.517801  0
N  N253  1  0.64538647  0.98064324  0.69604832  1  -0.767174  0  -0.246775  -0.253507  0  3.517912  0
N  N254  1  0.01935625  0.64538871  0.19604874  1  -0.766584  0  -0.246738  -0.253448  0  3.517717  0
N  N255  1  0.98064314  0.35461359  0.19604832  1  -0.767206  0  -0.246748  -0.253434  0  3.517809  0
N  N256  1  0.85461246  0.48064218  0.69604780  1  -0.76691  0  -0.246685  -0.253351  0  3.518036  0
N  N257  1  0.14538785  0.51935603  0.69604875  1  -0.766743  0  -0.246748  -0.253507  0  3.517997  0
N  N258  1  0.51935567  0.85461335  0.19604829  1  -0.766897  0  -0.246734  -0.253403  0  3.517778  0
N  N259  1  0.48064372  0.14538825  0.19604774  1  -0.766879  0  -0.2467  -0.25339  0  3.517987  0
N  N260  1  0.64538638  0.98064320  0.30395092  1  -0.76728  0  -0.246711  -0.253422  0  3.517645  0
N  N261  1  0.35461376  0.01935702  0.30395187  1  -0.767169  0  -0.24678  -0.253474  0  3.517863  0
N  N262  1  0.98064188  0.35461295  0.80395145  1  -0.767164  0  -0.24668  -0.25334  0  3.517585  0
N  N263  1  0.01935639  0.64538597  0.80395083  1  -0.766986  0  -0.24672  -0.253408  0  3.517671  0
N  N264  1  0.08662822  0.57870015  0.33720691  1  -0.218552  0  -0.120362  -0.064889  0  3.530038  0
N  N265  1  0.91337054  0.42130218  0.33720648  1  -0.218492  0  -0.120422  -0.065038  0  3.530124  0
N  N266  1  0.42130108  0.08662817  0.83720745  1  -0.21862  0  -0.120393  -0.065018  0  3.530059  0
N  N267  1  0.57869581  0.91337076  0.83720648  1  -0.218454  0  -0.120404  -0.065029  0  3.530177  0
N  N268  1  0.41337125  0.07869698  0.66279372  1  -0.218491  0  -0.120437  -0.065056  0  3.530175  0
N  N269  1  0.58662905  0.92130192  0.66279327  1  -0.218604  0  -0.120399  -0.065037  0  3.530202  0
N  N270  1  0.07869698  0.58662922  0.16279318  1  -0.218453  0  -0.120416  -0.065058  0  3.530088  0
N  N271  1  0.92130100  0.41337168  0.16279276  1  -0.218502  0  -0.120383  -0.065005  0  3.530103  0
N  N272  1  0.91337201  0.42130151  0.66279380  1  -0.218546  0  -0.120419  -0.065027  0  3.530113  0
N  N273  1  0.08662899  0.57869669  0.66279370  1  -0.218471  0  -0.120417  -0.064959  0  3.530216  0
N  N274  1  0.57869705  0.91337139  0.16279274  1  -0.218558  0  -0.120395  -0.065017  0  3.530123  0
N  N275  1  0.42130233  0.08662811  0.16279319  1  -0.2186  0  -0.120429  -0.065084  0  3.530131  0
N  N276  1  0.58662828  0.92130189  0.33720699  1  -0.218516  0  -0.12043  -0.065079  0  3.530172  0
N  N277  1  0.41337118  0.07869974  0.33720692  1  -0.218622  0  -0.120385  -0.06501  0  3.530075  0
N  N278  1  0.92130115  0.41337174  0.83720752  1  -0.218609  0  -0.120452  -0.065142  0  3.530288  0
N  N279  1  0.07869714  0.58662719  0.83720691  1  -0.218509  0  -0.120404  -0.065055  0  3.53014  0
N  N280  1  0.08527028  0.56057874  0.40365811  1  -0.049238  0  -0.060878  -0.005773  0  3.17912  0
N  N281  1  0.91472851  0.43942431  0.40365768  1  -0.049787  0  -0.060871  -0.005708  0  3.1791  0
N  N282  1  0.43942185  0.08527022  0.90365865  1  -0.049234  0  -0.06089  -0.005746  0  3.179105  0
N  N283  1  0.56057368  0.91472873  0.90365715  1  -0.049857  0  -0.060961  -0.005863  0  3.179197  0
N  N284  1  0.41472920  0.06057485  0.59634200  1  -0.04978  0  -0.060914  -0.005808  0  3.179186  0
N  N285  1  0.58527107  0.93942264  0.59634155  1  -0.049194  0  -0.060872  -0.005702  0  3.179119  0
N  N286  1  0.06057622  0.58527197  0.09634198  1  -0.04925  0  -0.060883  -0.005743  0  3.17916  0
N  N287  1  0.93942313  0.41472892  0.09634156  1  -0.049855  0  -0.060895  -0.005763  0  3.17917  0
N  N288  1  0.91472995  0.43942293  0.59634208  1  -0.049831  0  -0.060892  -0.00577  0  3.179114  0
N  N289  1  0.08527242  0.56057526  0.59634250  1  -0.049313  0  -0.060963  -0.005959  0  3.179272  0
N  N290  1  0.56057629  0.91472865  0.09634102  1  -0.049186  0  -0.060898  -0.005724  0  3.179098  0
N  N291  1  0.43942446  0.08527084  0.09634200  1  -0.049694  0  -0.06085  -0.005689  0  3.179067  0
N  N292  1  0.58527103  0.93942332  0.40365819  1  -0.04983  0  -0.060855  -0.005655  0  3.179047  0
N  N293  1  0.41472916  0.06057902  0.40365864  1  -0.049233  0  -0.060902  -0.005757  0  3.179112  0
N  N294  1  0.93942331  0.41472900  0.90365872  1  -0.049212  0  -0.060847  -0.005628  0  3.179218  0
N  N295  1  0.06057571  0.58527135  0.90365863  1  -0.049824  0  -0.06088  -0.005702  0  3.179058  0
N  N296  1  0.14205927  0.48876780  0.41508238  1  -0.665004  0  -0.20052  -0.21289  0  3.388223  0
N  N297  1  0.85793952  0.51123524  0.41508143  1  -0.665347  0  -0.20051  -0.212874  0  3.388394  0
N  N298  1  0.51123422  0.14205978  0.91508241  1  -0.665332  0  -0.200509  -0.212807  0  3.388242  0
N  N299  1  0.48876340  0.85793777  0.91508038  1  -0.665186  0  -0.200465  -0.212742  0  3.388288  0
N  N300  1  0.35793987  0.98876382  0.58491932  1  -0.665351  0  -0.200477  -0.212748  0  3.388357  0
N  N301  1  0.64206039  0.01123366  0.58491776  1  -0.665322  0  -0.200481  -0.212798  0  3.388249  0
N  N302  1  0.98876489  0.64206119  0.08491834  1  -0.66534  0  -0.200455  -0.212702  0  3.388166  0
N  N303  1  0.01123445  0.35794039  0.08491769  1  -0.665335  0  -0.200497  -0.212813  0  3.388301  0
N  N304  1  0.85793956  0.51123386  0.58491833  1  -0.664893  0  -0.200465  -0.212726  0  3.388188  0
N  N305  1  0.14206280  0.48876433  0.58491824  1  -0.664793  0  -0.200427  -0.212608  0  3.388067  0
N  N306  1  0.48876461  0.85793978  0.08491778  1  -0.66536  0  -0.200504  -0.212832  0  3.388311  0
N  N307  1  0.51123543  0.14206110  0.08491826  1  -0.664896  0  -0.200479  -0.21277  0  3.38811  0
N  N308  1  0.64206105  0.01123435  0.41508138  1  -0.665331  0  -0.200529  -0.212887  0  3.388279  0
N  N309  1  0.35794123  0.98876590  0.41508243  1  -0.6649  0  -0.200482  -0.21279  0  3.388273  0
N  N310  1  0.01123394  0.35793977  0.91508236  1  -0.664926  0  -0.200477  -0.212805  0  3.388341  0
N  N311  1  0.98876508  0.64206057  0.91508198  1  -0.665332  0  -0.200479  -0.212785  0  3.388139  0
O  O312  1  0.09120447  0.31016961  0.50000055  1  -1.249477  0  -0.584332  -0.749227  0  2.247496  0
O  O313  1  0.90879645  0.68983066  0.50000015  1  -1.249433  0  -0.584329  -0.749201  0  2.247564  0
O  O314  1  0.68982968  0.09120340  0.00000061  1  -1.24944  0  -0.584353  -0.749224  0  2.247583  0
O  O315  1  0.31016822  0.90879537  0.00000009  1  -1.249409  0  -0.584361  -0.749267  0  2.247484  0
O  O316  1  0.40879761  0.81016907  0.50000010  1  -1.249433  0  -0.584361  -0.749236  0  2.247659  0
O  O317  1  0.59120472  0.18982980  0.50000009  1  -1.249522  0  -0.584349  -0.749296  0  2.24742  0
O  O318  1  0.81016738  0.59121281  0.99999963  1  -1.249508  0  -0.584309  -0.749142  0  2.247676  0
O  O319  1  0.18983006  0.40879584  0.00000056  1  -1.249435  0  -0.584345  -0.749256  0  2.247504  0
O  O320  1  0.31289628  0.52302885  0.49999956  1  -1.274192  0  -0.592865  -0.753323  0  2.182518  0
O  O321  1  0.68710535  0.47697142  0.50000012  1  -1.274178  0  -0.592861  -0.75328  0  2.182625  0
O  O322  1  0.47697141  0.31289580  0.00000111  1  -1.274178  0  -0.592838  -0.753299  0  2.182561  0
O  O323  1  0.52302813  0.68710447  0.99999908  1  -1.274191  0  -0.592831  -0.753306  0  2.18258  0
O  O324  1  0.18710603  0.02302792  0.50000055  1  -1.274186  0  -0.592842  -0.753325  0  2.182631  0
O  O325  1  0.81289630  0.97697095  0.49999964  1  -1.274186  0  -0.592866  -0.753306  0  2.182538  0
O  O326  1  0.02302835  0.81289695  0.00000056  1  -1.274202  0  -0.592852  -0.753326  0  2.182561  0
O  O327  1  0.97697095  0.18710391  0.00000065  1  -1.274178  0  -0.592833  -0.753289  0  2.182562  0
