# generated using pymatgen
data_Zn2H12C16N2O7
_symmetry_space_group_name_H-M   'P 1'
_cell_length_a   8.63665992
_cell_length_b   13.64466684
_cell_length_c   18.34359743
_cell_angle_alpha   88.44040857
_cell_angle_beta   85.18037054
_cell_angle_gamma   71.53998939
_symmetry_Int_Tables_number   1
_chemical_formula_structural   Zn2H12C16N2O7
_chemical_formula_sum   'Zn8 H48 C64 N8 O28'
_cell_volume   2043.20871636
_cell_formula_units_Z   4
loop_
 _symmetry_equiv_pos_site_id
 _symmetry_equiv_pos_as_xyz
  1  'x, y, z'
loop_
 _atom_site_type_symbol
 _atom_site_label
 _atom_site_symmetry_multiplicity
 _atom_site_fract_x
 _atom_site_fract_y
 _atom_site_fract_z
 _atom_site_occupancy
 _atom_site_pbe_bader_charge
 _atom_site_pbe_bader_spin_density
 _atom_site_pbe_cm5_charge
 _atom_site_pbe_ddec_charge
 _atom_site_pbe_ddec_spin_density
 _atom_site_pbe_ddec_sum_bond_order
 _atom_site_pbe_magmom
Zn  Zn0  1  0.38206698  0.94729197  0.96907598  1  1.341412  0  0.659748  0.926849  0  2.309887  0
Zn  Zn1  1  0.18545686  0.17142292  0.00842348  1  1.266977  0  0.669725  0.85587  0  2.37288  0
Zn  Zn2  1  0.17068928  0.94741786  0.53088829  1  1.34305  0  0.659769  0.927061  0  2.311182  0
Zn  Zn3  1  0.14309781  0.17151261  0.49159387  1  1.267774  0  0.669913  0.856224  0  2.374395  0
Zn  Zn4  1  0.61793411  0.05270750  0.03092381  1  1.341399  0  0.659752  0.926864  0  2.309947  0
Zn  Zn5  1  0.81454578  0.82857578  0.99157680  1  1.267022  0  0.669726  0.855904  0  2.372853  0
Zn  Zn6  1  0.82931143  0.05258239  0.46911150  1  1.343019  0  0.659762  0.927033  0  2.311219  0
Zn  Zn7  1  0.85690017  0.82848841  0.50840547  1  1.267729  0  0.669924  0.856216  0  2.374429  0
H  H8  1  0.67833525  0.86718890  0.74508073  1  0.067729  0  0.098034  0.116308  0  1.019159  0
H  H9  1  0.48878579  0.16089467  0.66527033  1  0.095421  0  0.101279  0.125793  0  0.983036  0
H  H10  1  0.34568075  0.11794151  0.72031951  1  0.091297  0  0.107814  0.142438  0  0.987622  0
H  H11  1  0.27348772  0.49343439  0.11644939  1  0.11265  0  0.111985  0.117942  0  0.996267  0
H  H12  1  0.23092744  0.32087971  0.12055408  1  0.131304  0  0.129176  0.104473  0  0.963793  0
H  H13  1  0.15360128  0.33322320  0.90078337  1  0.144575  0  0.128068  0.107461  0  0.973323  0
H  H14  1  0.20588381  0.50237399  0.88497801  1  0.062418  0  0.110489  0.114877  0  1.000757  0
H  H15  1  0.38290479  0.60696090  0.09742673  1  0.057433  0  0.105547  0.107032  0  1.006864  0
H  H16  1  0.42871342  0.77754178  0.08078654  1  0.132163  0  0.126553  0.10279  0  0.983451  0
H  H17  1  0.24086859  0.82120538  0.87839781  1  0.153312  0  0.127255  0.106029  0  0.98931  0
H  H18  1  0.17476746  0.65706135  0.88722546  1  0.076702  0  0.108401  0.113133  0  1.006296  0
H  H19  1  0.97632493  0.09888471  0.58274178  1  0.65047  0  0.268053  0.358622  0  1.00961  0
H  H20  1  0.95448373  0.86728877  0.75490135  1  0.053719  0  0.098202  0.116566  0  1.018347  0
H  H21  1  0.85065577  0.16079246  0.83461258  1  0.059954  0  0.101664  0.12617  0  0.983927  0
H  H22  1  0.03673522  0.11795338  0.77957469  1  0.093261  0  0.10741  0.142275  0  0.987804  0
H  H23  1  0.73266811  0.49364425  0.38362013  1  0.068368  0  0.112312  0.117846  0  0.996889  0
H  H24  1  0.94793493  0.32113631  0.37948877  1  0.115611  0  0.129472  0.1046  0  0.963332  0
H  H25  1  0.01337289  0.33311679  0.59923340  1  0.137648  0  0.127978  0.106995  0  0.972727  0
H  H26  1  0.79180394  0.50223266  0.61505023  1  0.06281  0  0.110511  0.114814  0  1.000504  0
H  H27  1  0.50944420  0.60708331  0.40273824  1  0.063831  0  0.105155  0.106253  0  1.007665  0
H  H28  1  0.29309627  0.77767633  0.41935622  1  0.130277  0  0.126928  0.103349  0  0.984085  0
H  H29  1  0.43792147  0.82110420  0.62159916  1  0.158459  0  0.127284  0.106201  0  0.989446  0
H  H30  1  0.66812881  0.65691333  0.61281202  1  0.060964  0  0.108008  0.112749  0  1.007512  0
H  H31  1  0.42487938  0.09886807  0.91718854  1  0.649192  0  0.267727  0.357532  0  1.011041  0
H  H32  1  0.32166738  0.13281212  0.25491841  1  0.067717  0  0.098032  0.116309  0  1.019137  0
H  H33  1  0.51120950  0.83910713  0.33473020  1  0.095415  0  0.10127  0.125769  0  0.983064  0
H  H34  1  0.65431453  0.88205797  0.27968107  1  0.091303  0  0.107824  0.142457  0  0.987624  0
H  H35  1  0.72651028  0.50656664  0.88355104  1  0.112652  0  0.112015  0.117953  0  0.996267  0
H  H36  1  0.76907094  0.67912054  0.87944581  1  0.131304  0  0.129169  0.104432  0  0.963794  0
H  H37  1  0.84639517  0.66677628  0.09921716  1  0.144539  0  0.128037  0.107426  0  0.97325  0
H  H38  1  0.79411416  0.49762472  0.11502029  1  0.062117  0  0.110484  0.114873  0  1.000834  0
H  H39  1  0.61709706  0.39303936  0.90257192  1  0.057392  0  0.105515  0.107006  0  1.006833  0
H  H40  1  0.57128881  0.22245770  0.91921156  1  0.13212  0  0.126534  0.102758  0  0.983502  0
H  H41  1  0.75913285  0.17879332  0.12159980  1  0.153345  0  0.127257  0.106073  0  0.989216  0
H  H42  1  0.82523246  0.34293813  0.11277384  1  0.076643  0  0.108412  0.113131  0  1.006271  0
H  H43  1  0.02367461  0.90111554  0.41725806  1  0.650455  0  0.26805  0.358636  0  1.00959  0
H  H44  1  0.04551889  0.13270994  0.24509730  1  0.053739  0  0.098214  0.116576  0  1.018337  0
H  H45  1  0.14934493  0.83920547  0.16538725  1  0.05992  0  0.101673  0.126186  0  0.983901  0
H  H46  1  0.96326624  0.88204533  0.22042456  1  0.093234  0  0.107425  0.142286  0  0.987764  0
H  H47  1  0.26733029  0.50635832  0.61638134  1  0.06834  0  0.112304  0.11783  0  0.996877  0
H  H48  1  0.05206192  0.67886703  0.62051276  1  0.115587  0  0.129514  0.10467  0  0.963177  0
H  H49  1  0.98662782  0.66688346  0.40076748  1  0.137666  0  0.12798  0.10697  0  0.972759  0
H  H50  1  0.20819639  0.49776837  0.38495119  1  0.062846  0  0.110524  0.114861  0  1.00045  0
H  H51  1  0.49055421  0.39291462  0.59726442  1  0.063902  0  0.105148  0.106228  0  1.007699  0
H  H52  1  0.70690443  0.22232392  0.58064357  1  0.130249  0  0.126925  0.103357  0  0.984062  0
H  H53  1  0.56207769  0.17889914  0.37840063  1  0.158505  0  0.12729  0.106171  0  0.989513  0
H  H54  1  0.33186843  0.34308924  0.38718895  1  0.060977  0  0.108018  0.112769  0  1.007518  0
H  H55  1  0.57512249  0.90113218  0.08281120  1  0.649197  0  0.267733  0.357525  0  1.011056  0
C  C56  1  0.50506318  0.98099747  0.81908350  1  1.584195  0  0.200017  0.634282  0  4.170983  0
C  C57  1  0.58658447  0.94352338  0.74564670  1  -0.03975  0  -0.094112  -0.25795  0  3.876096  0
C  C58  1  0.56092824  0.99600538  0.68228826  1  -0.0242  0  -0.002041  0.05535  0  3.911978  0
C  C59  1  0.67290665  0.95619094  0.61534833  1  1.572061  0  0.21393  0.590004  0  4.150917  0
C  C60  1  0.43336518  0.09866923  0.67184453  1  -0.051851  0  -0.163015  -0.336251  0  3.952489  0
C  C61  1  0.34015540  0.09643078  0.60546118  1  1.581319  0  0.215328  0.661903  0  4.101567  0
C  C62  1  0.24929831  0.46111393  0.06663792  1  -0.07315  0  -0.079216  -0.174502  0  3.949436  0
C  C63  1  0.22301432  0.36572048  0.06999575  1  0.489394  0  0.057357  0.099069  0  3.94533  0
C  C64  1  0.18127568  0.37241079  0.94672449  1  0.495773  0  0.054706  0.097038  0  3.942437  0
C  C65  1  0.20922426  0.46692001  0.93895972  1  -0.061147  0  -0.080733  -0.176855  0  3.960185  0
C  C66  1  0.24432322  0.51440596  0.99973167  1  -0.004615  0  0.017161  0.109484  0  3.971978  0
C  C67  1  0.27683154  0.61446430  0.99276650  1  -0.007441  0  0.006327  0.091311  0  3.985396  0
C  C68  1  0.34840345  0.65103244  0.04768987  1  -0.073086  0  -0.082364  -0.169943  0  3.956289  0
C  C69  1  0.37655765  0.74545642  0.03878590  1  0.540706  0  0.058213  0.107905  0  3.928905  0
C  C70  1  0.27166415  0.77012533  0.92535883  1  0.537051  0  0.065419  0.123074  0  3.90127  0
C  C71  1  0.23716149  0.67716201  0.93085211  1  -0.025176  0  -0.080565  -0.17226  0  3.942121  0
C  C72  1  0.01420271  0.98105906  0.68088837  1  1.555281  0  0.201919  0.63813  0  4.166507  0
C  C73  1  0.97005803  0.94357458  0.75430010  1  -0.007242  0  -0.094707  -0.259428  0  3.875657  0
C  C74  1  0.94343704  0.99598281  0.81763348  1  -0.00524  0  -0.001679  0.057325  0  3.911427  0
C  C75  1  0.87117925  0.95615547  0.88459189  1  1.57019  0  0.213288  0.588437  0  4.154373  0
C  C76  1  0.96835254  0.09860915  0.82804583  1  -0.004565  0  -0.163121  -0.337486  0  3.955128  0
C  C77  1  0.06374692  0.09629727  0.89447665  1  1.568578  0  0.215373  0.662717  0  4.104479  0
C  C78  1  0.78923737  0.46125272  0.43343315  1  -0.013301  0  -0.079484  -0.173904  0  3.94814  0
C  C79  1  0.91101278  0.36587739  0.43005533  1  0.475649  0  0.05718  0.099333  0  3.942975  0
C  C80  1  0.94637281  0.37236973  0.55329585  1  0.493819  0  0.055461  0.098092  0  3.937968  0
C  C81  1  0.82384714  0.46685684  0.56108529  1  -0.000426  0  -0.080624  -0.1766  0  3.959693  0
C  C82  1  0.74098777  0.51440296  0.50035059  1  -0.023223  0  0.017283  0.108942  0  3.974069  0
C  C83  1  0.60827718  0.61438745  0.50734763  1  -0.004384  0  0.006601  0.091856  0  3.98382  0
C  C84  1  0.49992752  0.65107536  0.45247359  1  -0.039333  0  -0.082006  -0.169378  0  3.956829  0
C  C85  1  0.37736564  0.74549165  0.46136513  1  0.497582  0  0.057316  0.106745  0  3.930974  0
C  C86  1  0.45795184  0.77002297  0.57470877  1  0.526302  0  0.065706  0.122809  0  3.903182  0
C  C87  1  0.58544204  0.67702798  0.56923890  1  -0.027479  0  -0.080402  -0.171658  0  3.941191  0
C  C88  1  0.49493986  0.01900278  0.18091729  1  1.584177  0  0.199989  0.634194  0  4.171157  0
C  C89  1  0.41341585  0.05647764  0.25435309  1  -0.039772  0  -0.094112  -0.257981  0  3.87604  0
C  C90  1  0.43907324  0.00399564  0.31771148  1  -0.02387  0  -0.002044  0.055414  0  3.91187  0
C  C91  1  0.32709057  0.04381163  0.38465156  1  1.571774  0  0.213912  0.590006  0  4.150865  0
C  C92  1  0.56663397  0.90133180  0.32815531  1  -0.051863  0  -0.163018  -0.33627  0  3.952522  0
C  C93  1  0.65984220  0.90356869  0.39453876  1  1.581304  0  0.215348  0.661908  0  4.101569  0
C  C94  1  0.75070085  0.53888478  0.93336251  1  -0.073178  0  -0.079252  -0.174513  0  3.949247  0
C  C95  1  0.77698484  0.63427823  0.93000523  1  0.489446  0  0.057399  0.099179  0  3.945255  0
C  C96  1  0.81872308  0.62758868  0.05327485  1  0.495638  0  0.054732  0.097088  0  3.942344  0
C  C97  1  0.79077606  0.53307869  0.06104012  1  -0.060662  0  -0.080716  -0.176808  0  3.96005  0
C  C98  1  0.75567671  0.48559352  0.00026871  1  -0.004624  0  0.017159  0.11032  0  3.972422  0
C  C99  1  0.72316875  0.38553441  0.00723170  1  -0.007403  0  0.006355  0.088599  0  3.98928  0
C  C100  1  0.65159683  0.34896626  0.95230779  1  -0.073131  0  -0.082375  -0.169133  0  3.957169  0
C  C101  1  0.62344419  0.25454383  0.96121166  1  0.540674  0  0.058198  0.107985  0  3.92881  0
C  C102  1  0.72833769  0.22987260  0.07463932  1  0.536675  0  0.065393  0.12302  0  3.901084  0
C  C103  1  0.76284114  0.32283669  0.06914709  1  -0.025081  0  -0.080546  -0.171314  0  3.942907  0
C  C104  1  0.98579643  0.01893965  0.31911097  1  1.555365  0  0.201862  0.638048  0  4.166516  0
C  C105  1  0.02994497  0.05642335  0.24569855  1  -0.007157  0  -0.094712  -0.2594  0  3.875651  0
C  C106  1  0.05656636  0.00401435  0.18236572  1  -0.005574  0  -0.001724  0.057197  0  3.911565  0
C  C107  1  0.12882261  0.04384478  0.11540731  1  1.57054  0  0.213322  0.588505  0  4.154447  0
C  C108  1  0.03164778  0.90138956  0.17195455  1  -0.00455  0  -0.163149  -0.33746  0  3.955159  0
C  C109  1  0.93625493  0.90370067  0.10552205  1  1.56961  0  0.215319  0.662578  0  4.104721  0
C  C110  1  0.21076142  0.53874908  0.56656887  1  -0.013078  0  -0.079491  -0.17391  0  3.94816  0
C  C111  1  0.08898600  0.63412441  0.56994560  1  0.4756  0  0.057144  0.099294  0  3.942869  0
C  C112  1  0.05362597  0.62763207  0.44670508  1  0.493725  0  0.055516  0.098191  0  3.937854  0
C  C113  1  0.17615165  0.53314495  0.43891673  1  -0.000463  0  -0.080685  -0.176698  0  3.959643  0
C  C114  1  0.25901142  0.48559806  0.49965197  1  -0.023294  0  0.017275  0.108902  0  3.974056  0
C  C115  1  0.39171927  0.38561435  0.49265285  1  -0.004361  0  0.006591  0.091889  0  3.983603  0
C  C116  1  0.50007282  0.34892335  0.54752843  1  -0.039381  0  -0.082  -0.169403  0  3.956688  0
C  C117  1  0.62263816  0.25450705  0.53863511  1  0.497559  0  0.057339  0.106784  0  3.9309  0
C  C118  1  0.54204694  0.22997882  0.42529216  1  0.526311  0  0.065731  0.122848  0  3.903265  0
C  C119  1  0.41455596  0.32297305  0.43076207  1  -0.027487  0  -0.080432  -0.171722  0  3.941112  0
N  N120  1  0.18855009  0.32217629  0.01113539  1  -1.244325  0  -0.323837  -0.22626  0  3.558248  0
N  N121  1  0.34056701  0.80333498  0.97835545  1  -1.225046  0  -0.307803  -0.197497  0  3.49548  0
N  N122  1  0.98923403  0.32225810  0.48888879  1  -1.249085  0  -0.32475  -0.227334  0  3.557724  0
N  N123  1  0.35563583  0.80328152  0.52176693  1  -1.21782  0  -0.308029  -0.197692  0  3.497212  0
N  N124  1  0.81144985  0.67782318  0.98886499  1  -1.244338  0  -0.323867  -0.226335  0  3.558327  0
N  N125  1  0.65943329  0.19666373  0.02164330  1  -1.224643  0  -0.307772  -0.197475  0  3.495527  0
N  N126  1  0.01076514  0.67774292  0.51111214  1  -1.249117  0  -0.32474  -0.227328  0  3.557609  0
N  N127  1  0.64436410  0.19672027  0.47823286  1  -1.217827  0  -0.308046  -0.197674  0  3.497228  0
O  O128  1  0.44799995  0.07741954  0.83119958  1  -1.174166  0  -0.325423  -0.544114  0  2.127302  0
O  O129  1  0.50462349  0.90936886  0.86623141  1  -1.174855  0  -0.339903  -0.588879  0  2.248892  0
O  O130  1  0.73585875  0.85745887  0.60504849  1  -1.176404  0  -0.334118  -0.568269  0  2.312606  0
O  O131  1  0.70162581  0.02387579  0.57326714  1  -1.180757  0  -0.29926  -0.540849  0  2.326592  0
O  O132  1  0.33674565  0.01009719  0.58439206  1  -1.184818  0  -0.305419  -0.560181  0  2.312776  0
O  O133  1  0.26799539  0.18411274  0.57561684  1  -1.186215  0  -0.343903  -0.587247  0  2.283387  0
O  O134  1  0.40874232  0.09607322  0.97264384  1  -1.275737  0  -0.578356  -0.8663  0  2.331912  0
O  O135  1  0.97493708  0.07749786  0.66873010  1  -1.176359  0  -0.326943  -0.546712  0  2.125991  0
O  O136  1  0.08634623  0.90947197  0.63379271  1  -1.173527  0  -0.340442  -0.590239  0  2.247728  0
O  O137  1  0.90691126  0.85741991  0.89493555  1  -1.175475  0  -0.334158  -0.568327  0  2.313645  0
O  O138  1  0.77481045  0.02380411  0.92663811  1  -1.18518  0  -0.299121  -0.541109  0  2.327657  0
O  O139  1  0.15376523  0.00991801  0.91544344  1  -1.190648  0  -0.305173  -0.560487  0  2.315593  0
O  O140  1  0.04793795  0.18391035  0.92438314  1  -1.185022  0  -0.344096  -0.587231  0  2.284219  0
O  O141  1  0.99515624  0.09608948  0.52727898  1  -1.275582  0  -0.578248  -0.867123  0  2.330805  0
O  O142  1  0.55199921  0.92258149  0.16880081  1  -1.174143  0  -0.325426  -0.544106  0  2.127394  0
O  O143  1  0.49538614  0.09062984  0.13376967  1  -1.174845  0  -0.339868  -0.588797  0  2.248997  0
O  O144  1  0.26414039  0.14254215  0.39495080  1  -1.17647  0  -0.334104  -0.568284  0  2.312664  0
O  O145  1  0.29837452  0.97612524  0.42673319  1  -1.180713  0  -0.299245  -0.54084  0  2.326502  0
O  O146  1  0.66325391  0.98990074  0.41560946  1  -1.184792  0  -0.305433  -0.560173  0  2.312807  0
O  O147  1  0.73200222  0.81588673  0.42438310  1  -1.186235  0  -0.343909  -0.587254  0  2.283352  0
O  O148  1  0.59126034  0.90392548  0.02735699  1  -1.275718  0  -0.578366  -0.866329  0  2.331966  0
O  O149  1  0.02506595  0.92250007  0.33126964  1  -1.176406  0  -0.326917  -0.546668  0  2.125971  0
O  O150  1  0.91365020  0.09052751  0.36620619  1  -1.173557  0  -0.340398  -0.590183  0  2.247713  0
O  O151  1  0.09309101  0.14257725  0.10506533  1  -1.175524  0  -0.334148  -0.568331  0  2.313744  0
O  O152  1  0.22519103  0.97619691  0.07336217  1  -1.18519  0  -0.299135  -0.541116  0  2.327692  0
O  O153  1  0.84623661  0.99007992  0.08455471  1  -1.191642  0  -0.305171  -0.560463  0  2.315617  0
O  O154  1  0.95206585  0.81608835  0.07561655  1  -1.185124  0  -0.344057  -0.587146  0  2.284389  0
O  O155  1  0.00484291  0.90391154  0.47272031  1  -1.275566  0  -0.578227  -0.867106  0  2.330746  0
