# generated using pymatgen
data_H24Pb3C24Br6(NO)4
_symmetry_space_group_name_H-M   'P 1'
_cell_length_a   8.00932849
_cell_length_b   10.11721630
_cell_length_c   11.28929640
_cell_angle_alpha   107.23479480
_cell_angle_beta   97.82906673
_cell_angle_gamma   98.00696318
_symmetry_Int_Tables_number   1
_chemical_formula_structural   H24Pb3C24Br6(NO)4
_chemical_formula_sum   'H24 Pb3 C24 Br6 N4 O4'
_cell_volume   849.83052692
_cell_formula_units_Z   1
loop_
 _symmetry_equiv_pos_site_id
 _symmetry_equiv_pos_as_xyz
  1  'x, y, z'
loop_
 _atom_site_type_symbol
 _atom_site_label
 _atom_site_symmetry_multiplicity
 _atom_site_fract_x
 _atom_site_fract_y
 _atom_site_fract_z
 _atom_site_occupancy
 _atom_site_hle17_bader_spin_density
 _atom_site_hle17_ddec_charge
 _atom_site_hle17_ddec_spin_density
 _atom_site_hle17_ddec_sum_bond_order
 _atom_site_hle17_magmom
 _atom_site_hse06_10hf_bader_spin_density
 _atom_site_hse06_10hf_ddec_charge
 _atom_site_hse06_10hf_ddec_spin_density
 _atom_site_hse06_10hf_ddec_sum_bond_order
 _atom_site_hse06_10hf_magmom
 _atom_site_hse06_bader_spin_density
 _atom_site_hse06_ddec_charge
 _atom_site_hse06_ddec_spin_density
 _atom_site_hse06_ddec_sum_bond_order
 _atom_site_hse06_magmom
 _atom_site_pbe_bader_spin_density
 _atom_site_pbe_cm5_charge
 _atom_site_pbe_ddec_charge
 _atom_site_pbe_ddec_spin_density
 _atom_site_pbe_ddec_sum_bond_order
 _atom_site_pbe_magmom
H  H0  1  0.61995235  0.59461494  0.42743367  1  0  0.078863  0  0.953654  0  0  0.087987  0  1.017719  0  0  0.090858  0  1.014783  0  0  0.106582  0.085423  0  1.020708  0
H  H1  1  0.37996615  0.40536302  0.57258421  1  0  0.078724  0  0.953491  0  0  0.087995  0  1.017431  0  0  0.090862  0  1.014502  0  0  0.106607  0.085427  0  1.020425  0
H  H2  1  0.64067704  0.34211513  0.34365458  1  0  0.12803  0  0.983912  0  0  0.135109  0  1.05031  0  0  0.139429  0  1.048108  0  0  0.097627  0.131798  0  1.052352  0
H  H3  1  0.35932415  0.65790929  0.65634126  1  0  0.128003  0  0.983705  0  0  0.1351  0  1.050074  0  0  0.139432  0  1.047855  0  0  0.097626  0.131774  0  1.052145  0
H  H4  1  0.31847946  0.32226373  0.99624199  1  0  0.132468  0  0.984852  0  0  0.138608  0  1.053952  0  0  0.1435  0  1.050744  0  0  0.097799  0.135192  0  1.056342  0
H  H5  1  0.68143017  0.67772479  0.00377164  1  0  0.132508  0  0.984808  0  0  0.138505  0  1.054072  0  0  0.143299  0  1.050997  0  0  0.097799  0.135149  0  1.056393  0
H  H6  1  0.19080649  0.42858424  0.90184805  1  0  0.136218  0  0.961458  0  0  0.143703  0  1.027153  0  0  0.148379  0  1.02424  0  0  0.103975  0.14031  0  1.029315  0
H  H7  1  0.80922504  0.57140842  0.09819630  1  0  0.136035  0  0.961319  0  0  0.14356  0  1.026942  0  0  0.148256  0  1.024007  0  0  0.103851  0.14012  0  1.029219  0
H  H8  1  0.02045235  0.82033269  0.92375077  1  0  0.128974  0  0.93815  0  0  0.143879  0  0.987509  0  0  0.147582  0  0.986179  0  0  0.11534  0.141003  0  0.98908  0
H  H9  1  0.97956382  0.17963686  0.07624872  1  0  0.128922  0  0.937874  0  0  0.143896  0  0.98716  0  0  0.147612  0  0.985827  0  0  0.115309  0.141013  0  0.988729  0
H  H10  1  0.18460618  0.91864765  0.14426591  1  0  0.076288  0  0.945432  0  0  0.084247  0  1.011532  0  0  0.087313  0  1.007897  0  0  0.107568  0.081988  0  1.014109  0
H  H11  1  0.81523381  0.08130180  0.85577212  1  0  0.076675  0  0.945116  0  0  0.084626  0  1.011209  0  0  0.087689  0  1.007576  0  0  0.107756  0.08236  0  1.013804  0
H  H12  1  0.56565370  0.99731898  0.10225381  1  0  0.105006  0  0.967482  0  0  0.116355  0  1.038493  0  0  0.11803  0  1.037178  0  0  0.098533  0.115136  0  1.039361  0
H  H13  1  0.43445594  0.00267894  0.89779338  1  0  0.104795  0  0.967715  0  0  0.116328  0  1.038548  0  0  0.118002  0  1.037242  0  0  0.098563  0.115114  0  1.039398  0
H  H14  1  0.53262317  0.10335558  0.25386729  1  0  0.070699  0  1.011393  0  0  0.085974  0  1.086494  0  0  0.086015  0  1.086892  0  0  0.077815  0.085382  0  1.087619  0
H  H15  1  0.46743413  0.89664454  0.74614083  1  0  0.070858  0  1.011452  0  0  0.08615  0  1.086507  0  0  0.086194  0  1.086906  0  0  0.077847  0.085534  0  1.087645  0
H  H16  1  0.71695833  0.15402737  0.19229036  1  0  0.078669  0  0.970335  0  0  0.093648  0  1.043351  0  0  0.093827  0  1.043627  0  0  0.089343  0.093435  0  1.043403  0
H  H17  1  0.28311123  0.84598222  0.80772592  1  0  0.078941  0  0.970219  0  0  0.0939  0  1.043237  0  0  0.094091  0  1.043512  0  0  0.08945  0.093655  0  1.043316  0
H  H18  1  0.87499297  0.54650696  0.61392435  1  0  0.108968  0  0.933137  0  0  0.126269  0  0.9953  0  0  0.127419  0  0.994075  0  0  0.098252  0.125088  0  0.996512  0
H  H19  1  0.12501081  0.45356079  0.38603370  1  0  0.108823  0  0.933133  0  0  0.126144  0  0.995356  0  0  0.127286  0  0.99414  0  0  0.098118  0.124961  0  0.996574  0
H  H20  1  0.02335973  0.70920949  0.69384897  1  0  0.083276  0  0.964014  0  0  0.096247  0  1.041006  0  0  0.096919  0  1.039773  0  0  0.086725  0.095936  0  1.041118  0
H  H21  1  0.97662785  0.29082659  0.30612030  1  0  0.083116  0  0.963935  0  0  0.096204  0  1.040834  0  0  0.096886  0  1.039587  0  0  0.086816  0.095893  0  1.040948  0
H  H22  1  0.83161287  0.66839191  0.75267944  1  0  0.076573  0  0.982073  0  0  0.089571  0  1.056995  0  0  0.089182  0  1.058359  0  0  0.085626  0.089384  0  1.056493  0
H  H23  1  0.16841456  0.33163145  0.24731779  1  0  0.076491  0  0.982034  0  0  0.089504  0  1.05701  0  0  0.089108  0  1.058383  0  0  0.085662  0.089329  0  1.056498  0
Pb  Pb24  1  0.47042304  0.84930454  0.35278229  1  0  0.941014  0  1.835274  0  0  0.758237  0  2.268721  0  0  0.807895  0  2.239585  0  0  0.43874  0.723088  0  2.288945  0
Pb  Pb25  1  0.52947911  0.15070612  0.64724005  1  0  0.941179  0  1.833863  0  0  0.758236  0  2.267215  0  0  0.807978  0  2.237989  0  0  0.438934  0.723063  0  2.28744  0
Pb  Pb26  1  0.99993901  0.99996320  0.49998148  1  0  0.970786  0  1.886458  0  0  0.811427  0  2.354823  0  0  0.862204  0  2.322978  0  0  0.322668  0.775986  0  2.375424  0
C  C27  1  0.55375599  0.53019607  0.33225215  1  0  0.166647  0  3.707553  0  0  0.135037  0  3.956734  0  0  0.145632  0  3.972258  0  0  0.05373  0.128163  0  3.9465  0
C  C28  1  0.44622471  0.46982722  0.66777504  1  0  0.166777  0  3.707818  0  0  0.134977  0  3.957015  0  0  0.145579  0  3.97255  0  0  0.053837  0.128102  0  3.946775  0
C  C29  1  0.56648120  0.38958646  0.28470276  1  0  -0.234997  0  3.691447  0  0  -0.254188  0  3.941825  0  0  -0.26409  0  3.958694  0  0  -0.100191  -0.247346  0  3.930671  0
C  C30  1  0.43357386  0.61045272  0.71529076  1  0  -0.23492  0  3.691603  0  0  -0.254125  0  3.942033  0  0  -0.264029  0  3.958901  0  0  -0.100175  -0.247279  0  3.930874  0
C  C31  1  0.48029225  0.31394476  0.16100927  1  0  0.333324  0  3.796698  0  0  0.319253  0  4.055279  0  0  0.337092  0  4.066446  0  0  0.104703  0.306992  0  4.047875  0
C  C32  1  0.51970127  0.68606280  0.83898043  1  0  0.333685  0  3.796756  0  0  0.31943  0  4.055175  0  0  0.337276  0  4.066321  0  0  0.104895  0.307168  0  4.047783  0
C  C33  1  0.38464127  0.38234312  0.09228605  1  0  -0.258442  0  3.664711  0  0  -0.286391  0  3.919691  0  0  -0.296461  0  3.936185  0  0  -0.095918  -0.280202  0  3.909437  0
C  C34  1  0.61533502  0.61763382  0.90771417  1  0  -0.258646  0  3.664828  0  0  -0.286493  0  3.919925  0  0  -0.296499  0  3.936488  0  0  -0.095963  -0.280343  0  3.909616  0
C  C35  1  0.37803082  0.52359062  0.14734224  1  0  0.204265  0  3.746705  0  0  0.196781  0  3.990622  0  0  0.206354  0  4.008844  0  0  0.122429  0.190364  0  3.978187  0
C  C36  1  0.62204728  0.47643910  0.85263860  1  0  0.204344  0  3.747199  0  0  0.196851  0  3.99104  0  0  0.206424  0  4.009248  0  0  0.12251  0.190435  0  3.978612  0
C  C37  1  0.27809086  0.60081981  0.07924531  1  0  0.20213  0  3.752195  0  0  0.194421  0  3.998653  0  0  0.203646  0  4.01694  0  0  0.121807  0.188617  0  3.985855  0
C  C38  1  0.72198322  0.39920886  0.92073221  1  0  0.202015  0  3.752546  0  0  0.194167  0  3.999079  0  0  0.203396  0  4.017377  0  0  0.121585  0.18836  0  3.986275  0
C  C39  1  0.18977529  0.53742429  0.95571436  1  0  -0.245171  0  3.654628  0  0  -0.273803  0  3.909362  0  0  -0.284154  0  3.927948  0  0  -0.091417  -0.266824  0  3.896758  0
C  C40  1  0.81022699  0.46255585  0.04427065  1  0  -0.244565  0  3.654433  0  0  -0.273146  0  3.909127  0  0  -0.283501  0  3.927715  0  0  -0.091149  -0.266191  0  3.896481  0
C  C41  1  0.09722027  0.61555557  0.89574758  1  0  0.330319  0  3.802871  0  0  0.315694  0  4.063148  0  0  0.333185  0  4.07607  0  0  0.106662  0.304283  0  4.054177  0
C  C42  1  0.90280065  0.38442880  0.10423241  1  0  0.329508  0  3.803947  0  0  0.314916  0  4.06413  0  0  0.332399  0  4.07708  0  0  0.106428  0.303544  0  4.055058  0
C  C43  1  0.09240752  0.75532484  0.96404629  1  0  -0.247337  0  3.707715  0  0  -0.264349  0  3.957145  0  0  -0.274648  0  3.974754  0  0  -0.099396  -0.257696  0  3.945381  0
C  C44  1  0.90766570  0.24468380  0.03592580  1  0  -0.247371  0  3.708116  0  0  -0.26438  0  3.957447  0  0  -0.274692  0  3.975072  0  0  -0.099388  -0.257736  0  3.94565  0
C  C45  1  0.18430442  0.81047555  0.08718174  1  0  0.172678  0  3.722854  0  0  0.13967  0  3.978472  0  0  0.150955  0  3.993407  0  0  0.052715  0.132526  0  3.967683  0
C  C46  1  0.81560810  0.18948762  0.91285021  1  0  0.172478  0  3.722873  0  0  0.139352  0  3.978474  0  0  0.150644  0  3.993425  0  0  0.052412  0.132203  0  3.96769  0
C  C47  1  0.58070172  0.10412826  0.16742013  1  0  -0.094874  0  3.624752  0  0  -0.196103  0  3.888629  0  0  -0.189224  0  3.892559  0  0  -0.156902  -0.200661  0  3.886403  0
C  C48  1  0.41936940  0.89587713  0.83258809  1  0  -0.09504  0  3.625147  0  0  -0.196653  0  3.889016  0  0  -0.189797  0  3.892938  0  0  -0.157017  -0.201152  0  3.886835  0
C  C49  1  0.93232659  0.62442926  0.70594058  1  0  -0.08159  0  3.613415  0  0  -0.183219  0  3.883928  0  0  -0.175248  0  3.886869  0  0  -0.152345  -0.188051  0  3.881632  0
C  C50  1  0.06768999  0.37560153  0.29403809  1  0  -0.081319  0  3.613227  0  0  -0.183102  0  3.883889  0  0  -0.175124  0  3.886821  0  0  -0.15238  -0.187973  0  3.881581  0
Br  Br51  1  0.72025049  0.86197851  0.60496463  1  0  -0.583322  0  0.982977  0  0  -0.504726  0  1.259223  0  0  -0.530374  0  1.244505  0  0  -0.214837  -0.486444  0  1.26974  0
Br  Br52  1  0.27966520  0.13787382  0.39510182  1  0  -0.582979  0  0.983483  0  0  -0.504389  0  1.259791  0  0  -0.530028  0  1.245065  0  0  -0.214615  -0.486111  0  1.270323  0
Br  Br53  1  0.20076848  0.76373481  0.48525915  1  0  -0.545972  0  0.978461  0  0  -0.474059  0  1.257302  0  0  -0.496183  0  1.241017  0  0  -0.21353  -0.457739  0  1.267806  0
Br  Br54  1  0.79933099  0.23633198  0.51465042  1  0  -0.546264  0  0.977488  0  0  -0.4743  0  1.256041  0  0  -0.496472  0  1.239808  0  0  -0.213725  -0.457975  0  1.266539  0
Br  Br55  1  0.20456753  0.15074568  0.76382928  1  0  -0.561368  0  0.918616  0  0  -0.495109  0  1.190914  0  0  -0.517094  0  1.174484  0  0  -0.240973  -0.479178  0  1.202358  0
Br  Br56  1  0.79520496  0.84919535  0.23620256  1  0  -0.561308  0  0.919397  0  0  -0.495102  0  1.191869  0  0  -0.517062  0  1.175436  0  0  -0.240874  -0.479188  0  1.20336  0
N  N57  1  0.46284390  0.59616868  0.26679990  1  0  -0.357917  0  3.244574  0  0  -0.280126  0  3.489787  0  0  -0.301372  0  3.51045  0  0  -0.309449  -0.265022  0  3.474925  0
N  N58  1  0.53716793  0.40385260  0.73318550  1  0  -0.35803  0  3.244752  0  0  -0.280179  0  3.490022  0  0  -0.301442  0  3.510691  0  0  -0.309614  -0.265067  0  3.47516  0
N  N59  1  0.27644668  0.73728837  0.14341960  1  0  -0.358226  0  3.20458  0  0  -0.284704  0  3.4559  0  0  -0.30565  0  3.475295  0  0  -0.308242  -0.270582  0  3.441724  0
N  N60  1  0.72352646  0.26270225  0.85659547  1  0  -0.358358  0  3.2047  0  0  -0.284619  0  3.455823  0  0  -0.305551  0  3.47514  0  0  -0.308063  -0.270503  0  3.441677  0
O  O61  1  0.48178237  0.17779920  0.10081694  1  0  -0.239202  0  2.339409  0  0  -0.156455  0  2.570771  0  0  -0.176403  0  2.573719  0  0  -0.173942  -0.142498  0  2.568167  0
O  O62  1  0.51829831  0.82221466  0.89918030  1  0  -0.239292  0  2.339756  0  0  -0.15609  0  2.570872  0  0  -0.17603  0  2.573823  0  0  -0.173947  -0.14213  0  2.568254  0
O  O63  1  0.01946774  0.54746966  0.77557542  1  0  -0.231584  0  2.348775  0  0  -0.153358  0  2.584911  0  0  -0.173628  0  2.588672  0  0  -0.170438  -0.140012  0  2.581879  0
O  O64  1  0.98060797  0.45254957  0.22438113  1  0  -0.230976  0  2.349256  0  0  -0.152792  0  2.585472  0  0  -0.173071  0  2.589255  0  0  -0.170155  -0.139395  0  2.582369  0
