# generated using pymatgen
data_AgH4C7BrO3
_symmetry_space_group_name_H-M   'P 1'
_cell_length_a   7.21637109
_cell_length_b   8.21066950
_cell_length_c   12.87521080
_cell_angle_alpha   89.99985100
_cell_angle_beta   94.08835741
_cell_angle_gamma   90.00004118
_symmetry_Int_Tables_number   1
_chemical_formula_structural   AgH4C7BrO3
_chemical_formula_sum   'Ag4 H16 C28 Br4 O12'
_cell_volume   760.93089177
_cell_formula_units_Z   4
loop_
 _symmetry_equiv_pos_site_id
 _symmetry_equiv_pos_as_xyz
  1  'x, y, z'
loop_
 _atom_site_type_symbol
 _atom_site_label
 _atom_site_symmetry_multiplicity
 _atom_site_fract_x
 _atom_site_fract_y
 _atom_site_fract_z
 _atom_site_occupancy
 _atom_site_hle17_bader_spin_density
 _atom_site_hle17_ddec_charge
 _atom_site_hle17_ddec_spin_density
 _atom_site_hle17_ddec_sum_bond_order
 _atom_site_hle17_magmom
 _atom_site_hse06_10hf_bader_spin_density
 _atom_site_hse06_10hf_ddec_charge
 _atom_site_hse06_10hf_ddec_spin_density
 _atom_site_hse06_10hf_ddec_sum_bond_order
 _atom_site_hse06_10hf_magmom
 _atom_site_hse06_bader_spin_density
 _atom_site_hse06_ddec_charge
 _atom_site_hse06_ddec_spin_density
 _atom_site_hse06_ddec_sum_bond_order
 _atom_site_hse06_magmom
 _atom_site_pbe_bader_spin_density
 _atom_site_pbe_cm5_charge
 _atom_site_pbe_ddec_charge
 _atom_site_pbe_ddec_spin_density
 _atom_site_pbe_ddec_sum_bond_order
 _atom_site_pbe_magmom
Ag  Ag0  1  0.54382089  0.47138535  0.10594575  1  0  0.556736  0  1.464974  0  0  0.435874  0  1.935515  0  0  0.47039  0  1.876464  0  0  0.390885  0.411846  0  1.976179  0
Ag  Ag1  1  0.95617181  0.97138794  0.39405503  1  0  0.556731  0  1.464991  0  0  0.435856  0  1.935596  0  0  0.470368  0  1.876547  0  0  0.39091  0.411834  0  1.976273  0
Ag  Ag2  1  0.45616905  0.52861413  0.89405497  1  0  0.556675  0  1.465044  0  0  0.435823  0  1.9356  0  0  0.470335  0  1.876552  0  0  0.390883  0.4118  0  1.976268  0
Ag  Ag3  1  0.04383626  0.02861520  0.60594185  1  0  0.55673  0  1.464949  0  0  0.43585  0  1.935544  0  0  0.470362  0  1.876495  0  0  0.390887  0.41183  0  1.976216  0
H  H4  1  0.54717241  0.73272907  0.29326087  1  0  0.110997  0  0.96075  0  0  0.118408  0  1.026931  0  0  0.122289  0  1.024699  0  0  0.099902  0.115604  0  1.028763  0
H  H5  1  0.95281870  0.23272627  0.20674101  1  0  0.111022  0  0.960766  0  0  0.11844  0  1.026928  0  0  0.12232  0  1.024698  0  0  0.099913  0.115633  0  1.028762  0
H  H6  1  0.45282179  0.26726554  0.70673460  1  0  0.110961  0  0.960755  0  0  0.118366  0  1.026939  0  0  0.122247  0  1.024708  0  0  0.099891  0.115561  0  1.028768  0
H  H7  1  0.04717950  0.76726347  0.79326475  1  0  0.111028  0  0.960771  0  0  0.118431  0  1.026949  0  0  0.122312  0  1.024719  0  0  0.099907  0.115626  0  1.028779  0
H  H8  1  0.55518788  0.91389303  0.44689902  1  0  0.094624  0  0.98584  0  0  0.101972  0  1.055659  0  0  0.104946  0  1.053111  0  0  0.09299  0.09979  0  1.057585  0
H  H9  1  0.94481451  0.41388720  0.05310151  1  0  0.094658  0  0.985844  0  0  0.101954  0  1.055704  0  0  0.104927  0  1.053158  0  0  0.092992  0.099771  0  1.057623  0
H  H10  1  0.44481192  0.08611011  0.55309360  1  0  0.094652  0  0.985841  0  0  0.102024  0  1.055627  0  0  0.104999  0  1.053083  0  0  0.092984  0.099841  0  1.057551  0
H  H11  1  0.05518921  0.58610863  0.94690682  1  0  0.094621  0  0.985851  0  0  0.101997  0  1.055636  0  0  0.104976  0  1.053079  0  0  0.09297  0.099816  0  1.057555  0
H  H12  1  0.81456832  0.52960370  0.63565701  1  0  0.112793  0  0.951423  0  0  0.124368  0  1.013121  0  0  0.127871  0  1.009973  0  0  0.100189  0.121805  0  1.015475  0
H  H13  1  0.68543640  0.02959769  0.86434342  1  0  0.112886  0  0.951332  0  0  0.124469  0  1.012998  0  0  0.127979  0  1.009853  0  0  0.100213  0.121901  0  1.015363  0
H  H14  1  0.18542860  0.47040674  0.36434170  1  0  0.112799  0  0.95137  0  0  0.124389  0  1.01304  0  0  0.127895  0  1.009896  0  0  0.100194  0.121823  0  1.015397  0
H  H15  1  0.31457304  0.97040544  0.13565508  1  0  0.112829  0  0.951378  0  0  0.124406  0  1.013055  0  0  0.127913  0  1.009915  0  0  0.100187  0.121844  0  1.015414  0
H  H16  1  0.72491270  0.32544071  0.31793654  1  0  0.386622  0  0.902501  0  0  0.357371  0  0.977825  0  0  0.369574  0  0.965199  0  0  0.298623  0.348819  0  0.986532  0
H  H17  1  0.77508122  0.82543677  0.18206764  1  0  0.386625  0  0.902542  0  0  0.357514  0  0.977615  0  0  0.36972  0  0.964982  0  0  0.298682  0.348963  0  0.986325  0
H  H18  1  0.27508971  0.67455633  0.68206629  1  0  0.386662  0  0.902411  0  0  0.357444  0  0.977691  0  0  0.369646  0  0.965067  0  0  0.298672  0.348895  0  0.986393  0
H  H19  1  0.22491714  0.17455540  0.81792803  1  0  0.386672  0  0.902416  0  0  0.357367  0  0.977836  0  0  0.369568  0  0.965223  0  0  0.298599  0.348817  0  0.986531  0
C  C20  1  0.67721776  0.53090373  0.37690918  1  0  0.348579  0  3.754336  0  0  0.332315  0  4.008725  0  0  0.347475  0  4.023108  0  0  0.09139  0.322001  0  3.998917  0
C  C21  1  0.82277873  0.03090243  0.12309483  1  0  0.348697  0  3.754118  0  0  0.33236  0  4.008705  0  0  0.347521  0  4.023088  0  0  0.091376  0.322057  0  3.998881  0
C  C22  1  0.32278886  0.46909819  0.62309152  1  0  0.348515  0  3.754479  0  0  0.332257  0  4.008846  0  0  0.347432  0  4.023207  0  0  0.091376  0.321945  0  3.999035  0
C  C23  1  0.17722095  0.96908853  0.87690555  1  0  0.348828  0  3.754072  0  0  0.332497  0  4.008524  0  0  0.347657  0  4.022898  0  0  0.091482  0.322173  0  3.998728  0
C  C24  1  0.60793544  0.69017211  0.36825240  1  0  -0.163641  0  3.696305  0  0  -0.180944  0  3.947772  0  0  -0.187721  0  3.966097  0  0  -0.10427  -0.176658  0  3.935691  0
C  C25  1  0.89206114  0.19016715  0.13175290  1  0  -0.163668  0  3.696341  0  0  -0.180957  0  3.947852  0  0  -0.187733  0  3.966175  0  0  -0.10425  -0.176685  0  3.935772  0
C  C26  1  0.39206845  0.30983103  0.63174507  1  0  -0.163584  0  3.696385  0  0  -0.18087  0  3.947836  0  0  -0.187652  0  3.966159  0  0  -0.104266  -0.176583  0  3.935745  0
C  C27  1  0.10793986  0.80982259  0.86825143  1  0  -0.163788  0  3.696447  0  0  -0.181019  0  3.947841  0  0  -0.187795  0  3.966165  0  0  -0.104275  -0.176734  0  3.935762  0
C  C28  1  0.61248062  0.79155830  0.45496963  1  0  -0.104847  0  3.817054  0  0  -0.124854  0  4.074383  0  0  -0.12312  0  4.092403  0  0  -0.10202  -0.125692  0  4.062154  0
C  C29  1  0.88752026  0.29155492  0.04503259  1  0  -0.104809  0  3.817012  0  0  -0.124737  0  4.074328  0  0  -0.123006  0  4.092356  0  0  -0.101951  -0.125568  0  4.062087  0
C  C30  1  0.38752471  0.20844849  0.54502479  1  0  -0.104786  0  3.817043  0  0  -0.124838  0  4.074352  0  0  -0.123102  0  4.092361  0  0  -0.101959  -0.125674  0  4.06212  0
C  C31  1  0.11248211  0.70844213  0.95497335  1  0  -0.10486  0  3.816947  0  0  -0.124906  0  4.074293  0  0  -0.123171  0  4.092302  0  0  -0.102033  -0.125746  0  4.062074  0
C  C32  1  0.68468704  0.73210743  0.55139626  1  0  0.05209  0  3.743552  0  0  0.064837  0  4.019035  0  0  0.063705  0  4.042006  0  0  -0.032877  0.065254  0  4.003547  0
C  C33  1  0.81531361  0.23210601  0.94860753  1  0  0.052104  0  3.743555  0  0  0.064811  0  4.019067  0  0  0.063679  0  4.042037  0  0  -0.032882  0.065236  0  4.003549  0
C  C34  1  0.31531971  0.26789814  0.44859667  1  0  0.05189  0  3.743544  0  0  0.064681  0  4.018978  0  0  0.063547  0  4.041953  0  0  -0.032955  0.065093  0  4.003493  0
C  C35  1  0.18468598  0.76789469  0.05139829  1  0  0.052148  0  3.743402  0  0  0.064902  0  4.018878  0  0  0.063773  0  4.041847  0  0  -0.032841  0.065306  0  4.003413  0
C  C36  1  0.75535271  0.57563663  0.56135639  1  0  -0.080284  0  3.744186  0  0  -0.115777  0  3.997605  0  0  -0.112442  0  4.016882  0  0  -0.090262  -0.117662  0  3.984485  0
C  C37  1  0.74465062  0.07563156  0.93864623  1  0  -0.080442  0  3.744085  0  0  -0.115893  0  3.997518  0  0  -0.112569  0  4.016809  0  0  -0.090304  -0.117781  0  3.984411  0
C  C38  1  0.24465255  0.42437260  0.43864269  1  0  -0.080221  0  3.744036  0  0  -0.115737  0  3.997417  0  0  -0.11241  0  4.016704  0  0  -0.090256  -0.117618  0  3.984295  0
C  C39  1  0.25535320  0.92436792  0.06135589  1  0  -0.080449  0  3.744086  0  0  -0.115948  0  3.997491  0  0  -0.112628  0  4.016781  0  0  -0.090299  -0.117835  0  3.984382  0
C  C40  1  0.75295970  0.47266347  0.47445702  1  0  -0.18159  0  3.724522  0  0  -0.159167  0  3.960287  0  0  -0.172696  0  3.983499  0  0  -0.031363  -0.150436  0  3.944817  0
C  C41  1  0.74704400  0.97265529  0.02555124  1  0  -0.181614  0  3.724231  0  0  -0.159237  0  3.960117  0  0  -0.172768  0  3.983333  0  0  -0.031358  -0.150512  0  3.944646  0
C  C42  1  0.24705106  0.52734210  0.52554541  1  0  -0.181572  0  3.72445  0  0  -0.159127  0  3.960148  0  0  -0.172654  0  3.983347  0  0  -0.031355  -0.150395  0  3.944674  0
C  C43  1  0.25295708  0.02733811  0.97444843  1  0  -0.18149  0  3.724165  0  0  -0.159028  0  3.959906  0  0  -0.172542  0  3.983098  0  0  -0.031307  -0.150298  0  3.944439  0
C  C44  1  0.83080568  0.30521062  0.48625829  1  0  0.653942  0  3.891083  0  0  0.599672  0  4.176848  0  0  0.635414  0  4.173308  0  0  0.204229  0.57542  0  4.178327  0
C  C45  1  0.66919939  0.80520731  0.01374332  1  0  0.654127  0  3.890754  0  0  0.599866  0  4.176571  0  0  0.635603  0  4.173038  0  0  0.204307  0.575622  0  4.178051  0
C  C46  1  0.16919955  0.69479373  0.51374235  1  0  0.654019  0  3.890849  0  0  0.599769  0  4.176585  0  0  0.63551  0  4.173049  0  0  0.204325  0.575521  0  4.178066  0
C  C47  1  0.33079892  0.19479217  0.98625545  1  0  0.654169  0  3.890597  0  0  0.599875  0  4.17638  0  0  0.63561  0  4.172845  0  0  0.204371  0.575636  0  4.177853  0
Br  Br48  1  0.68631817  0.86693663  0.67251070  1  0  -0.022938  0  1.393559  0  0  -0.006486  0  1.69308  0  0  -0.010893  0  1.679062  0  0  0.079439  -0.003395  0  1.703055  0
Br  Br49  1  0.81366311  0.36694544  0.82749355  1  0  -0.022924  0  1.393513  0  0  -0.006463  0  1.693059  0  0  -0.010866  0  1.679032  0  0  0.079441  -0.003376  0  1.703025  0
Br  Br50  1  0.31367743  0.13307504  0.32748406  1  0  -0.022885  0  1.393691  0  0  -0.006441  0  1.693182  0  0  -0.010846  0  1.679164  0  0  0.07946  -0.003346  0  1.703155  0
Br  Br51  1  0.18631140  0.63307109  0.17251580  1  0  -0.022929  0  1.393598  0  0  -0.006488  0  1.693129  0  0  -0.010896  0  1.679107  0  0  0.079425  -0.003395  0  1.703107  0
O  O52  1  0.66963946  0.43416758  0.29156792  1  0  -0.533334  0  2.201136  0  0  -0.470626  0  2.445971  0  0  -0.493737  0  2.433306  0  0  -0.354349  -0.454158  0  2.454173  0
O  O53  1  0.83034761  0.93416599  0.20843500  1  0  -0.533446  0  2.201087  0  0  -0.470813  0  2.445923  0  0  -0.493908  0  2.433209  0  0  -0.354455  -0.454346  0  2.454116  0
O  O54  1  0.33036025  0.56583191  0.70843014  1  0  -0.533272  0  2.20116  0  0  -0.470633  0  2.446027  0  0  -0.493742  0  2.433342  0  0  -0.354387  -0.454166  0  2.454228  0
O  O55  1  0.16965071  0.06582497  0.79156299  1  0  -0.533498  0  2.200854  0  0  -0.470727  0  2.44573  0  0  -0.493837  0  2.433051  0  0  -0.354409  -0.454248  0  2.453929  0
O  O56  1  0.82200891  0.21592087  0.40270387  1  0  -0.636105  0  2.135925  0  0  -0.552875  0  2.397214  0  0  -0.585143  0  2.385597  0  0  -0.324541  -0.530502  0  2.404472  0
O  O57  1  0.67799463  0.71591723  0.09730249  1  0  -0.636198  0  2.135691  0  0  -0.553066  0  2.396991  0  0  -0.585333  0  2.385372  0  0  -0.324618  -0.530694  0  2.404242  0
O  O58  1  0.17799629  0.78408105  0.59729910  1  0  -0.636174  0  2.135821  0  0  -0.552992  0  2.397125  0  0  -0.585258  0  2.385508  0  0  -0.324592  -0.530618  0  2.404376  0
O  O59  1  0.32200092  0.28407860  0.90269461  1  0  -0.636285  0  2.135642  0  0  -0.553067  0  2.396985  0  0  -0.585334  0  2.385377  0  0  -0.324638  -0.5307  0  2.404232  0
O  O60  1  0.89962934  0.26136263  0.57459252  1  0  -0.593661  0  2.134785  0  0  -0.524093  0  2.408996  0  0  -0.555918  0  2.401198  0  0  -0.317979  -0.502064  0  2.413611  0
O  O61  1  0.60038104  0.76135761  0.92541321  1  0  -0.5937  0  2.134785  0  0  -0.524104  0  2.408968  0  0  -0.555932  0  2.401182  0  0  -0.317987  -0.50205  0  2.413503  0
O  O62  1  0.10037726  0.73864294  0.42540973  1  0  -0.593689  0  2.134809  0  0  -0.524116  0  2.409  0  0  -0.555947  0  2.401215  0  0  -0.318031  -0.502065  0  2.413553  0
O  O63  1  0.39961173  0.23864309  0.07458453  1  0  -0.593751  0  2.134804  0  0  -0.524136  0  2.40899  0  0  -0.555963  0  2.401204  0  0  -0.318024  -0.502083  0  2.413519  0
