# generated using pymatgen
data_ZnH33C45N2O10F9
_symmetry_space_group_name_H-M   'P 1'
_cell_length_a   16.67001737
_cell_length_b   16.55368725
_cell_length_c   27.67694288
_cell_angle_alpha   90.14900673
_cell_angle_beta   88.05636830
_cell_angle_gamma   86.01045483
_symmetry_Int_Tables_number   1
_chemical_formula_structural   ZnH33C45N2O10F9
_chemical_formula_sum   'Zn2 H66 C90 N4 O20 F18'
_cell_volume   7614.47444562
_cell_formula_units_Z   2
loop_
 _symmetry_equiv_pos_site_id
 _symmetry_equiv_pos_as_xyz
  1  'x, y, z'
loop_
 _atom_site_type_symbol
 _atom_site_label
 _atom_site_symmetry_multiplicity
 _atom_site_fract_x
 _atom_site_fract_y
 _atom_site_fract_z
 _atom_site_occupancy
 _atom_site_pbe_bader_charge
 _atom_site_pbe_bader_spin_density
 _atom_site_pbe_cm5_charge
 _atom_site_pbe_ddec_charge
 _atom_site_pbe_ddec_spin_density
 _atom_site_pbe_ddec_sum_bond_order
 _atom_site_pbe_magmom
Zn  Zn0  1  0.59275083  0.49873366  0.48727541  1  1.33614  0  0.693338  0.916218  0  2.248914  0
Zn  Zn1  1  0.40531613  0.49374958  0.49753205  1  1.346846  0  0.701205  0.922121  0  2.353834  0
H  H2  1  0.40938824  0.34417164  0.25909898  1  0.09908  0  0.123511  0.160011  0  0.959676  0
H  H3  1  0.60279518  0.63039523  0.71849510  1  0.115588  0  0.123766  0.159765  0  0.959198  0
H  H4  1  0.42961630  0.24569008  0.48360964  1  0.116419  0  0.120549  0.15267  0  0.969118  0
H  H5  1  0.59122672  0.72616274  0.55289191  1  0.100535  0  0.114414  0.148428  0  0.985642  0
H  H6  1  0.38465433  0.00099413  0.55157851  1  0.123001  0  0.096138  0.097368  0  1.066782  0
H  H7  1  0.55029458  0.99822213  0.59799599  1  0.096729  0  0.099112  0.106955  0  1.032287  0
H  H8  1  0.13250071  0.38365089  0.55177643  1  0.090415  0  0.106073  0.131165  0  1.0357  0
H  H9  1  0.86838782  0.55182201  0.41145036  1  0.108427  0  0.106485  0.13019  0  1.035791  0
H  H10  1  0.87608974  0.49589083  0.56382543  1  0.079392  0  0.104872  0.128177  0  1.053313  0
H  H11  1  0.11860761  0.59339852  0.45844351  1  0.110477  0  0.103677  0.130388  0  1.057046  0
H  H12  1  0.60917251  0.08949307  0.69329537  1  0.034862  0  0.106532  0.076638  0  0.954129  0
H  H13  1  0.50961903  0.10684930  0.67199929  1  0.054638  0  0.094169  0.054224  0  0.990328  0
H  H14  1  0.62640162  0.23955260  0.68815235  1  0.044006  0  0.094185  0.094276  0  0.969794  0
H  H15  1  0.52567550  0.25616241  0.67066611  1  0.014049  0  0.086915  0.081248  0  0.990272  0
H  H16  1  0.47666828  0.19861776  0.75013597  1  0.02707  0  0.080332  0.102483  0  1.009205  0
H  H17  1  0.53707986  0.28121620  0.75970138  1  0.064301  0  0.083579  0.120911  0  1.019346  0
H  H18  1  0.57800880  0.18053551  0.76759106  1  -0.007113  0  0.081265  0.102771  0  1.009334  0
H  H19  1  0.21791989  0.95416870  0.53547233  1  0.052143  0  0.105377  0.073946  0  0.958032  0
H  H20  1  0.27369169  0.90881844  0.58348988  1  0.040035  0  0.095847  0.055869  0  0.981974  0
H  H21  1  0.19879563  0.81364302  0.50313873  1  0.020742  0  0.091159  0.087982  0  0.978177  0
H  H22  1  0.24480659  0.77146158  0.55470761  1  0.041945  0  0.092611  0.090617  0  0.97273  0
H  H23  1  0.13605490  0.84674431  0.60845870  1  0.01589  0  0.084504  0.107663  0  1.00463  0
H  H24  1  0.09464190  0.77994582  0.56740872  1  0.029004  0  0.086851  0.11397  0  1.001176  0
H  H25  1  0.08954561  0.88544985  0.55574081  1  0.024344  0  0.08427  0.105967  0  1.007014  0
H  H26  1  0.29299218  0.69105588  0.40983113  1  0.112681  0  0.11341  0.091793  0  0.970369  0
H  H27  1  0.19115689  0.67782643  0.42696290  1  0.026236  0  0.098472  0.05628  0  0.988763  0
H  H28  1  0.29919789  0.56256154  0.36131900  1  0.072212  0  0.096221  0.101438  0  0.978058  0
H  H29  1  0.19621058  0.55168822  0.37484050  1  -0.001749  0  0.088019  0.080071  0  0.985388  0
H  H30  1  0.15962990  0.68519129  0.33334187  1  0.018873  0  0.081917  0.101511  0  1.01185  0
H  H31  1  0.21495480  0.61641973  0.29316806  1  0.047558  0  0.092277  0.126568  0  0.992655  0
H  H32  1  0.26327893  0.69633961  0.31996967  1  0.023316  0  0.088894  0.115255  0  0.995392  0
H  H33  1  0.69867884  0.47735452  0.64200728  1  0.081413  0  0.110001  0.083849  0  0.971717  0
H  H34  1  0.79256998  0.51413023  0.62347674  1  0.043551  0  0.099455  0.057649  0  0.983824  0
H  H35  1  0.74422975  0.34000946  0.60899272  1  0.088979  0  0.096846  0.106332  0  0.993776  0
H  H36  1  0.84070380  0.37320986  0.59523678  1  0.040527  0  0.088226  0.082737  0  0.990926  0
H  H37  1  0.85814221  0.40422769  0.68407904  1  0.026586  0  0.082044  0.1023  0  1.010663  0
H  H38  1  0.83889569  0.30132354  0.67506774  1  0.04242  0  0.090009  0.118015  0  0.997372  0
H  H39  1  0.76086072  0.37103198  0.69776403  1  0.034716  0  0.089292  0.121401  0  1.001511  0
H  H40  1  0.68700999  0.53845464  0.34115185  1  0.08556  0  0.111672  0.085499  0  0.968941  0
H  H41  1  0.79080542  0.52790563  0.35482117  1  0.055454  0  0.100579  0.059364  0  0.984046  0
H  H42  1  0.67667187  0.67906232  0.37521521  1  0.062  0  0.102338  0.107063  0  0.958611  0
H  H43  1  0.78100685  0.67230155  0.38544028  1  0.023293  0  0.089998  0.081767  0  0.984329  0
H  H44  1  0.80976921  0.64965761  0.29498775  1  0.010321  0  0.082914  0.104008  0  1.007706  0
H  H45  1  0.75464295  0.74346668  0.30711036  1  0.039198  0  0.091481  0.120427  0  0.995442  0
H  H46  1  0.70452517  0.65998808  0.28570953  1  0.037017  0  0.08741  0.113762  0  1.006039  0
H  H47  1  0.32131826  0.25405822  0.54866771  1  0.072184  0  0.105084  0.075947  0  1.008839  0
H  H48  1  0.21725357  0.28254476  0.54286921  1  0.043786  0  0.101422  0.061228  0  0.989612  0
H  H49  1  0.31540673  0.31475295  0.63203301  1  0.088844  0  0.096204  0.101571  0  0.983845  0
H  H50  1  0.20998203  0.33248288  0.62894532  1  0.026747  0  0.090135  0.082002  0  0.977193  0
H  H51  1  0.19759760  0.18096612  0.61662518  1  0.024352  0  0.084236  0.106442  0  1.006288  0
H  H52  1  0.24541062  0.20059192  0.67132456  1  -0.007885  0  0.089173  0.116301  0  0.999497  0
H  H53  1  0.30368417  0.16465812  0.61983202  1  0.025648  0  0.086535  0.114117  0  1.008844  0
H  H54  1  0.45796067  0.24825746  0.99459579  1  0.053796  0  0.098376  0.061543  0  0.966649  0
H  H55  1  0.50600219  0.20239178  0.04562960  1  0.059532  0  0.098892  0.065747  0  0.995753  0
H  H56  1  0.56549358  0.17843957  0.94010397  1  0.032626  0  0.097544  0.093132  0  0.962487  0
H  H57  1  0.60966612  0.13157723  0.99101627  1  0.00747  0  0.09974  0.096311  0  0.957199  0
H  H58  1  0.48093528  0.06125401  0.00891239  1  0.036289  0  0.088482  0.11327  0  1.000202  0
H  H59  1  0.52130549  0.03674859  0.95015669  1  0.035105  0  0.093275  0.122736  0  0.994286  0
H  H60  1  0.43741421  0.10824794  0.95749690  1  0.033043  0  0.086113  0.106893  0  1.010782  0
H  H61  1  0.33008491  0.78877665  0.99706498  1  0.078033  0  0.105432  0.078436  0  0.968058  0
H  H62  1  0.33142777  0.76126273  0.93487001  1  0.078797  0  0.104081  0.071787  0  0.986225  0
H  H63  1  0.44247241  0.87755117  0.98182508  1  0.025782  0  0.093742  0.088872  0  0.970579  0
H  H64  1  0.44607714  0.85171264  0.91962444  1  0.035538  0  0.090585  0.086873  0  0.99248  0
H  H65  1  0.30276192  0.91103889  0.91219380  1  0.03509  0  0.089906  0.116832  0  0.994669  0
H  H66  1  0.36621978  0.98430586  0.93314826  1  0.025449  0  0.089185  0.116348  0  1.01654  0
H  H67  1  0.29964043  0.93842889  0.97439795  1  0.034523  0  0.087223  0.110842  0  1.001509  0
C  C68  1  0.53357431  0.34865029  0.51126499  1  1.618564  0  0.217295  0.620123  0  4.166726  0
C  C69  1  0.49856770  0.64801779  0.49302505  1  1.604075  0  0.213337  0.61726  0  4.177683  0
C  C70  1  0.48316554  0.51701802  0.58509185  1  1.650182  0  0.213274  0.626485  0  4.194591  0
C  C71  1  0.47997025  0.47272918  0.40178366  1  1.666165  0  0.219088  0.636619  0  4.183624  0
C  C72  1  0.58449401  0.47485181  0.80966852  1  1.343292  0  0.241008  0.461384  0  4.102977  0
C  C73  1  0.40400938  0.51983882  0.17386826  1  1.346447  0  0.239683  0.453684  0  4.09473  0
C  C74  1  0.48959531  0.60064746  0.81405049  1  1.329955  0  0.241402  0.464133  0  4.089095  0
C  C75  1  0.50434948  0.39854306  0.16903457  1  1.34362  0  0.241661  0.456912  0  4.089789  0
C  C76  1  0.56345289  0.58562395  0.70584750  1  0.10697  0  -0.095681  -0.281056  0  4.001752  0
C  C77  1  0.43444827  0.39663653  0.27499309  1  0.079003  0  -0.094695  -0.272859  0  3.988389  0
C  C78  1  0.54780453  0.57953797  0.65712150  1  0.415663  0  0.107047  0.292154  0  4.057151  0
C  C79  1  0.44310706  0.40148033  0.32457837  1  0.489652  0  0.104998  0.292068  0  4.059248  0
C  C80  1  0.46046209  0.47393079  0.67201866  1  0.528851  0  0.10478  0.193287  0  4.069121  0
C  C81  1  0.50153768  0.52793124  0.31737606  1  0.482914  0  0.098694  0.178196  0  4.081027  0
C  C82  1  0.47505173  0.47856931  0.72114234  1  0.551226  0  0.089126  0.086034  0  4.070228  0
C  C83  1  0.49402206  0.52488385  0.26743888  1  0.556406  0  0.087809  0.0863  0  4.081557  0
C  C84  1  0.52645458  0.53429229  0.73803914  1  0.392146  0  0.082124  0.124211  0  4.101474  0
C  C85  1  0.45999329  0.45949744  0.24612984  1  0.405304  0  0.081717  0.116411  0  4.080585  0
C  C86  1  0.52648023  0.52625288  0.89041642  1  -0.04197  0  -0.002031  0.049879  0  4.028801  0
C  C87  1  0.46920001  0.47614311  0.09325689  1  0.025696  0  -0.000917  0.049913  0  4.024918  0
C  C88  1  0.57925744  0.47105592  0.86289316  1  0.086466  0  -0.019314  -0.169449  0  4.003924  0
C  C89  1  0.41477361  0.52919223  0.12102772  1  0.100494  0  -0.018247  -0.1663  0  4.001843  0
C  C90  1  0.62677377  0.41450149  0.88819586  1  0.549458  0  0.112614  0.186963  0  4.066547  0
C  C91  1  0.36936334  0.58783566  0.09595255  1  0.558789  0  0.11313  0.188399  0  4.064724  0
C  C92  1  0.48939881  0.59496678  0.86726097  1  0.169089  0  -0.020567  -0.172672  0  4.023358  0
C  C93  1  0.50492798  0.40597390  0.11585547  1  0.086862  0  -0.020615  -0.172251  0  4.012553  0
C  C94  1  0.49622323  0.52458807  0.63862938  1  0.119993  0  -0.018931  -0.211734  0  3.950589  0
C  C95  1  0.47625324  0.46636936  0.34729163  1  0.126785  0  -0.020344  -0.21464  0  3.970796  0
C  C96  1  0.53238957  0.43045198  0.01483248  1  -0.001014  0  -0.001636  -0.020145  0  3.958985  0
C  C97  1  0.46524598  0.57539801  0.96886124  1  0.03013  0  -0.005502  -0.030387  0  3.940995  0
C  C98  1  0.44579010  0.55858960  0.01949116  1  0.033925  0  -0.001805  -0.027153  0  3.976328  0
C  C99  1  0.55295786  0.44766590  0.96465473  1  0.081424  0  -0.003537  -0.031532  0  3.989774  0
C  C100  1  0.48508346  0.49010824  0.04303427  1  0.069468  0  0.000452  0.006598  0  3.936484  0
C  C101  1  0.51317826  0.51554673  0.94110119  1  -0.028134  0  0.000546  0.009392  0  3.949124  0
C  C102  1  0.54834611  0.35328474  0.03531311  1  0.613383  0  0.085283  0.102809  0  4.060448  0
C  C103  1  0.44606940  0.65157491  0.94714215  1  0.640083  0  0.089775  0.108821  0  4.067518  0
C  C104  1  0.54023141  0.34497037  0.08605575  1  0.493754  0  0.113708  0.191038  0  4.036444  0
C  C105  1  0.45447131  0.65729947  0.89619331  1  0.463326  0  0.11178  0.185586  0  4.027511  0
C  C106  1  0.61596518  0.40562633  0.93838780  1  0.516316  0  0.100971  0.134468  0  4.051853  0
C  C107  1  0.38249185  0.59926715  0.04615676  1  0.505604  0  0.098939  0.130812  0  4.047035  0
C  C108  1  0.52794922  0.26420687  0.53002816  1  0.066416  0  -0.018462  -0.08747  0  3.993216  0
C  C109  1  0.48167654  0.73161105  0.51346474  1  0.050759  0  -0.020706  -0.094475  0  3.990389  0
C  C110  1  0.46655444  0.22000090  0.51218798  1  0.063102  0  -0.100818  -0.228199  0  4.044895  0
C  C111  1  0.53588962  0.76202473  0.54540293  1  0.108519  0  -0.099275  -0.2226  0  4.02211  0
C  C112  1  0.45262404  0.14535009  0.53103642  1  0.3406  0  0.09013  0.231667  0  4.060719  0
C  C113  1  0.51836142  0.83650988  0.56715585  1  0.418639  0  0.091958  0.242496  0  4.047006  0
C  C114  1  0.49753699  0.10808305  0.56832243  1  0.068446  0  -0.02628  -0.085876  0  4.057441  0
C  C115  1  0.44937396  0.88733435  0.55770374  1  -0.005807  0  -0.02632  -0.081516  0  4.057233  0
C  C116  1  0.55777730  0.15486228  0.58729353  1  0.533242  0  0.075524  0.109147  0  4.059162  0
C  C117  1  0.39271041  0.85396437  0.52726962  1  0.522125  0  0.074882  0.106818  0  4.049692  0
C  C118  1  0.57290208  0.23026898  0.56735041  1  0.485988  0  0.091925  0.150733  0  4.053743  0
C  C119  1  0.41024144  0.77834449  0.50557424  1  0.484288  0  0.092877  0.156844  0  4.048606  0
C  C120  1  0.49604009  0.02314107  0.58102577  1  -0.036666  0  -0.098752  -0.110925  0  3.990653  0
C  C121  1  0.43949801  0.97371846  0.56645009  1  -0.015455  0  -0.09981  -0.109155  0  4.006193  0
C  C122  1  0.23639234  0.54356163  0.47683143  1  1.020943  0  0.226097  0.442247  0  4.068737  0
C  C123  1  0.76007801  0.49851534  0.53093311  1  1.062177  0  0.228385  0.447143  0  4.05359  0
C  C124  1  0.15252146  0.54641001  0.47770965  1  0.086326  0  -0.120055  -0.343143  0  3.972911  0
C  C125  1  0.84337485  0.50475833  0.53092021  1  0.061666  0  -0.119372  -0.342945  0  3.969596  0
C  C126  1  0.11452808  0.48845781  0.50545699  1  0.026461  0  -0.004421  0.122716  0  4.117636  0
C  C127  1  0.88284845  0.52286198  0.48720668  1  0.052391  0  -0.004875  0.120375  0  4.120748  0
C  C128  1  0.16102385  0.42865636  0.52998936  1  -0.016937  0  -0.121184  -0.345076  0  3.964213  0
C  C129  1  0.83869669  0.53675601  0.44539373  1  0.03907  0  -0.120356  -0.340936  0  3.969035  0
C  C130  1  0.24478376  0.42945456  0.52584719  1  1.120503  0  0.225049  0.442243  0  4.070295  0
C  C131  1  0.75605372  0.52784233  0.44890841  1  1.057014  0  0.224221  0.437102  0  4.075446  0
C  C132  1  0.02736830  0.48867104  0.51029204  1  0.516274  0  0.092013  0.110622  0  3.999504  0
C  C133  1  0.96975896  0.52667185  0.48328823  1  0.488157  0  0.093394  0.115724  0  3.994381  0
C  C134  1  0.56996242  0.13055928  0.67182949  1  0.394891  0  -0.064125  0.036293  0  3.884405  0
C  C135  1  0.56625681  0.21638334  0.69219168  1  0.016218  0  -0.172267  -0.142537  0  3.981331  0
C  C136  1  0.53775592  0.21928570  0.74533173  1  -0.085596  0  -0.245018  -0.347627  0  3.980309  0
C  C137  1  0.25534847  0.90009299  0.54595764  1  0.411545  0  -0.063504  0.036271  0  3.890285  0
C  C138  1  0.20857564  0.82461417  0.54166012  1  -0.00803  0  -0.171586  -0.143425  0  3.985177  0
C  C139  1  0.12791994  0.83472761  0.56987778  1  -0.068148  0  -0.24226  -0.34745  0  3.987946  0
C  C140  1  0.24865498  0.64568226  0.41505462  1  0.381963  0  -0.055901  0.039109  0  3.853061  0
C  C141  1  0.24114717  0.59673208  0.36898445  1  -0.011906  0  -0.169364  -0.139276  0  3.974533  0
C  C142  1  0.21832585  0.65169269  0.32658914  1  -0.064375  0  -0.240709  -0.348757  0  3.977574  0
C  C143  1  0.74994919  0.46781630  0.61614774  1  0.373515  0  -0.057217  0.041581  0  3.864159  0
C  C144  1  0.78821179  0.38203702  0.62038539  1  -0.047342  0  -0.170369  -0.149083  0  3.97142  0
C  C145  1  0.81286368  0.36382394  0.67218165  1  -0.084764  0  -0.2418  -0.348856  0  3.978064  0
C  C146  1  0.73241953  0.55994163  0.36497874  1  0.352061  0  -0.056883  0.039091  0  3.869712  0
C  C147  1  0.73502723  0.65145530  0.36157176  1  -0.005541  0  -0.167635  -0.142026  0  3.979772  0
C  C148  1  0.75201413  0.67751162  0.30947632  1  -0.061971  0  -0.24057  -0.349676  0  3.982556  0
C  C149  1  0.27193318  0.29707614  0.56137779  1  0.399592  0  -0.057998  0.042474  0  3.851405  0
C  C150  1  0.26170162  0.29221048  0.61604173  1  -0.054413  0  -0.167177  -0.139786  0  3.975584  0
C  C151  1  0.25138230  0.20485798  0.63180408  1  -0.027041  0  -0.241659  -0.349045  0  3.97717  0
C  C152  1  0.51588122  0.22311092  0.00829747  1  0.375234  0  -0.063535  0.031005  0  3.873477  0
C  C153  1  0.55199731  0.15455761  0.97632527  1  0.048802  0  -0.162476  -0.123273  0  3.975148  0
C  C154  1  0.49476614  0.08652720  0.97310384  1  -0.094176  0  -0.239314  -0.353881  0  3.978439  0
C  C155  1  0.36837230  0.78151948  0.96401145  1  0.356978  0  -0.063422  0.030033  0  3.856211  0
C  C156  1  0.40566302  0.86034661  0.95168480  1  -0.008538  0  -0.1704  -0.139632  0  3.992993  0
C  C157  1  0.33987015  0.92717469  0.94239479  1  -0.068424  0  -0.239788  -0.348897  0  3.967047  0
N  N158  1  0.53683133  0.53867969  0.78907565  1  -1.178766  0  -0.23582  -0.216798  0  3.595057  0
N  N159  1  0.45491654  0.45818386  0.19459399  1  -1.18742  0  -0.233225  -0.194238  0  3.561247  0
N  N160  1  0.28134791  0.48691516  0.50072807  1  -1.245824  0  -0.330195  -0.403128  0  3.423512  0
N  N161  1  0.71780673  0.50873190  0.49048403  1  -1.243967  0  -0.326857  -0.402063  0  3.410656  0
O  O162  1  0.60159868  0.37678640  0.50354881  1  -1.138214  0  -0.316601  -0.536617  0  2.264317  0
O  O163  1  0.43743029  0.60816865  0.48724647  1  -1.169152  0  -0.318609  -0.569254  0  2.427814  0
O  O164  1  0.46493084  0.38420612  0.50458363  1  -1.174866  0  -0.31689  -0.566289  0  2.412948  0
O  O165  1  0.57180155  0.62295819  0.48523318  1  -1.160624  0  -0.321621  -0.548131  0  2.272791  0
O  O166  1  0.54701526  0.51345626  0.55925376  1  -1.145841  0  -0.30455  -0.555199  0  2.394984  0
O  O167  1  0.41205168  0.47357344  0.42351006  1  -1.147436  0  -0.30762  -0.538008  0  2.315307  0
O  O168  1  0.41137590  0.51422661  0.57198515  1  -1.135921  0  -0.317057  -0.541938  0  2.260407  0
O  O169  1  0.54887765  0.47766086  0.41875370  1  -1.15418  0  -0.307988  -0.552866  0  2.329331  0
O  O170  1  0.62404925  0.42557394  0.78365509  1  -1.093177  0  -0.272306  -0.433357  0  2.09178  0
O  O171  1  0.35711079  0.56282414  0.19950911  1  -1.076274  0  -0.27232  -0.426608  0  2.085863  0
O  O172  1  0.54510128  0.34671203  0.19063241  1  -1.080562  0  -0.274416  -0.424838  0  2.075171  0
O  O173  1  0.44983139  0.65217999  0.79163043  1  -1.083629  0  -0.275102  -0.425949  0  2.069738  0
O  O174  1  0.60567778  0.12437455  0.62324441  1  -1.061609  0  -0.206624  -0.22671  0  2.510687  0
O  O175  1  0.32542001  0.89966735  0.51351699  1  -1.064153  0  -0.205408  -0.223749  0  2.524344  0
O  O176  1  0.28098381  0.59620392  0.45365953  1  -1.069509  0  -0.153413  -0.189339  0  2.586731  0
O  O177  1  0.71431781  0.48291985  0.56988544  1  -1.059351  0  -0.150765  -0.183981  0  2.561005  0
O  O178  1  0.70558802  0.53467877  0.41228568  1  -1.060101  0  -0.153085  -0.190031  0  2.573617  0
O  O179  1  0.29703331  0.37484279  0.54538522  1  -1.059682  0  -0.154737  -0.192185  0  2.543959  0
O  O180  1  0.57139863  0.28762428  0.00730695  1  -1.06553  0  -0.187875  -0.209433  0  2.592943  0
O  O181  1  0.42928758  0.71703511  0.97575046  1  -1.050549  0  -0.179359  -0.189739  0  2.580024  0
F  F182  1  0.41165461  0.41739131  0.65740708  1  -0.621847  0  -0.083408  -0.111161  0  1.386649  0
F  F183  1  0.53317335  0.59364725  0.33649698  1  -0.619671  0  -0.084394  -0.105854  0  1.354776  0
F  F184  1  0.35622576  0.75319105  0.47419786  1  -0.633775  0  -0.088012  -0.119727  0  1.443958  0
F  F185  1  0.63114468  0.27209133  0.58708918  1  -0.637546  0  -0.090465  -0.123507  0  1.408342  0
F  F186  1  0.57334496  0.86380229  0.59792692  1  -0.636158  0  -0.106307  -0.146738  0  1.32715  0
F  F187  1  0.39250028  0.10578197  0.51058398  1  -0.639632  0  -0.09886  -0.141576  0  1.355713  0
F  F188  1  0.99528430  0.57066714  0.44461394  1  -0.625626  0  -0.082252  -0.108292  0  1.380555  0
F  F189  1  0.00089478  0.44023033  0.54668642  1  -0.629276  0  -0.084036  -0.110133  0  1.384246  0
F  F190  1  0.43869051  0.42870790  0.75257279  1  -0.624871  0  -0.096312  -0.115069  0  1.361308  0
F  F191  1  0.52038674  0.58579513  0.23974316  1  -0.624447  0  -0.099394  -0.116246  0  1.363802  0
F  F192  1  0.68601400  0.36715296  0.86655397  1  -0.603018  0  -0.074367  -0.089835  0  1.386228  0
F  F193  1  0.30942353  0.63468841  0.11729282  1  -0.605  0  -0.074851  -0.089817  0  1.387149  0
F  F194  1  0.41877651  0.33942079  0.35225688  1  -0.625025  0  -0.103368  -0.138601  0  1.308064  0
F  F195  1  0.58403824  0.63074992  0.62648787  1  -0.632696  0  -0.088905  -0.126874  0  1.362026  0
F  F196  1  0.56710724  0.27318002  0.10430116  1  -0.608912  0  -0.069725  -0.091773  0  1.405132  0
F  F197  1  0.43154894  0.72890946  0.87597259  1  -0.615122  0  -0.062681  -0.089086  0  1.438517  0
F  F198  1  0.67261364  0.35796629  0.96004853  1  -0.612563  0  -0.078058  -0.094137  0  1.432714  0
F  F199  1  0.32642431  0.64866186  0.02486228  1  -0.621495  0  -0.076955  -0.103419  0  1.448349  0
