# generated using pymatgen
data_Zr6H25C50Cl5O34
_symmetry_space_group_name_H-M   'P 1'
_cell_length_a   14.78288125
_cell_length_b   14.78673541
_cell_length_c   14.81151758
_cell_angle_alpha   60.30977402
_cell_angle_beta   59.94969117
_cell_angle_gamma   60.09468762
_symmetry_Int_Tables_number   1
_chemical_formula_structural   Zr6H25C50Cl5O34
_chemical_formula_sum   'Zr6 H25 C50 Cl5 O34'
_cell_volume   2295.44697788
_cell_formula_units_Z   1
loop_
 _symmetry_equiv_pos_site_id
 _symmetry_equiv_pos_as_xyz
  1  'x, y, z'
loop_
 _atom_site_type_symbol
 _atom_site_label
 _atom_site_symmetry_multiplicity
 _atom_site_fract_x
 _atom_site_fract_y
 _atom_site_fract_z
 _atom_site_occupancy
 _atom_site_pbe_bader_charge
 _atom_site_pbe_bader_spin_density
 _atom_site_pbe_cm5_charge
 _atom_site_pbe_ddec_charge
 _atom_site_pbe_ddec_spin_density
 _atom_site_pbe_ddec_sum_bond_order
 _atom_site_pbe_magmom
Zr  Zr0  1  0.87963184  0.88170257  0.61840497  1  2.637583  0  1.628268  2.369987  0  2.758244  0
Zr  Zr1  1  0.12013284  0.11778200  0.38198191  1  2.63299  0  1.631162  2.376464  0  2.772238  0
Zr  Zr2  1  0.11805325  0.88143736  0.61845181  1  2.628948  0  1.626841  2.373883  0  2.755708  0
Zr  Zr3  1  0.88065355  0.12008343  0.37983173  1  2.638854  0  1.629012  2.372597  0  2.755589  0
Zr  Zr4  1  0.11918389  0.88138929  0.37870093  1  2.636749  0  1.627288  2.377011  0  2.74826  0
Zr  Zr5  1  0.87970317  0.12131566  0.61842137  1  2.636216  0  1.627376  2.377263  0  2.747704  0
H  H6  1  0.09262448  0.71908814  0.59288177  1  0.607109  0  0.331432  0.422195  0  0.858885  0
H  H7  1  0.09510952  0.09373468  0.21791085  1  0.59627  0  0.332006  0.424531  0  0.854233  0
H  H8  1  0.09372313  0.09396824  0.59418490  1  0.593958  0  0.332573  0.425098  0  0.851209  0
H  H9  1  0.71706229  0.09546175  0.59331669  1  0.592002  0  0.331136  0.422636  0  0.856571  0
H  H10  1  0.85031360  0.58533940  0.64145066  1  0.111619  0  0.111017  0.117036  0  0.995155  0
H  H11  1  0.14486146  0.59023864  0.35501698  1  0.116719  0  0.109539  0.126911  0  1.01025  0
H  H12  1  0.85890874  0.41458824  0.63504510  1  0.098979  0  0.110308  0.117018  0  1.000943  0
H  H13  1  0.58436320  0.85169326  0.92148730  1  0.101071  0  0.110825  0.116666  0  0.995505  0
H  H14  1  0.59520575  0.14018255  0.91472649  1  0.140246  0  0.109039  0.126097  0  1.012227  0
H  H15  1  0.41584312  0.85803030  0.09223752  1  0.094639  0  0.109589  0.115941  0  1.002682  0
H  H16  1  0.14111665  0.85167400  0.08225546  1  0.106917  0  0.113487  0.122144  0  0.983805  0
H  H17  1  0.85230081  0.14303379  0.09243554  1  0.141253  0  0.110785  0.12708  0  1.00458  0
H  H18  1  0.13367916  0.85928871  0.91317440  1  0.124606  0  0.111342  0.11897  0  1.000235  0
H  H19  1  0.58208458  0.42511877  0.64108200  1  0.092307  0  0.113418  0.121558  0  0.98393  0
H  H20  1  0.59333313  0.41224411  0.35192664  1  0.113176  0  0.110926  0.127207  0  1.00557  0
H  H21  1  0.41289419  0.59402712  0.63330315  1  0.136102  0  0.110768  0.118144  0  1.001768  0
H  H22  1  0.74278424  0.62811212  0.95927640  1  0.043222  0  0.092349  0.099616  0  0.994302  0
H  H23  1  0.83000243  0.54288061  0.87351706  1  0.03817  0  0.091767  0.09808  0  0.993218  0
H  H24  1  0.83000876  0.37355993  0.04227832  1  0.041388  0  0.091311  0.098894  0  0.994991  0
H  H25  1  0.74267343  0.45883214  0.12799653  1  0.043444  0  0.091802  0.100396  0  0.995888  0
H  H26  1  0.58342520  0.14151983  0.35147755  1  0.09986  0  0.113005  0.121895  0  0.984499  0
H  H27  1  0.59282291  0.85359629  0.64115933  1  0.076305  0  0.111481  0.129337  0  0.998044  0
H  H28  1  0.41367248  0.13324621  0.35981429  1  0.136556  0  0.107912  0.112887  0  1.01484  0
H  H29  1  0.14917083  0.35053010  0.15523449  1  0.636969  0  0.304005  0.345866  0  0.980178  0
H  H30  1  0.14769544  0.65815467  0.84868552  1  0.64075  0  0.308821  0.35113  0  0.970665  0
C  C31  1  0.99458898  0.70069121  0.49719947  1  1.574637  0  0.237972  0.639886  0  4.095176  0
C  C32  1  0.30814340  0.99890809  0.19980807  1  1.563055  0  0.235623  0.651768  0  4.092819  0
C  C33  1  0.00074725  0.30632134  0.49475705  1  1.572057  0  0.235365  0.651668  0  4.093063  0
C  C34  1  0.69915501  0.99666193  0.80565730  1  1.54151  0  0.239431  0.641522  0  4.091584  0
C  C35  1  0.99548476  0.69944129  0.80668489  1  1.478786  0  0.233191  0.65519  0  4.091071  0
C  C36  1  0.69935366  0.99881488  0.49457046  1  1.564497  0  0.239192  0.643108  0  4.093872  0
C  C37  1  0.99661481  0.30709731  0.19821242  1  1.495459  0  0.23234  0.653589  0  4.087842  0
C  C38  1  0.30654990  0.99286680  0.50073686  1  1.567182  0  0.235397  0.650234  0  4.09362  0
C  C39  1  0.30587786  0.69974182  0.49293229  1  1.578012  0  0.236296  0.651823  0  4.088542  0
C  C40  1  0.99285409  0.00059047  0.80629291  1  1.581307  0  0.235817  0.651456  0  4.089544  0
C  C41  1  0.69940356  0.30805514  0.49734486  1  1.553187  0  0.238841  0.641432  0  4.095857  0
C  C42  1  0.99791612  0.99600846  0.19851990  1  1.57357  0  0.239654  0.642501  0  4.092999  0
C  C43  1  0.00485368  0.40677183  0.49196820  1  -0.009733  0  -0.014829  -0.098695  0  3.904824  0
C  C44  1  0.99664662  0.59862750  0.49729139  1  0.000906  0  -0.009663  -0.010092  0  3.96465  0
C  C45  1  0.08712933  0.45656709  0.41294033  1  0.043122  0  0.027929  0.146445  0  3.994566  0
C  C46  1  0.91581534  0.54906482  0.57765247  1  -0.027514  0  -0.081839  -0.100165  0  3.974139  0
C  C47  1  0.08180243  0.55187089  0.41614984  1  0.013865  0  -0.085799  -0.165053  0  3.953708  0
C  C48  1  0.92070793  0.45475320  0.57396681  1  -0.002504  0  -0.076628  -0.073897  0  3.968141  0
C  C49  1  0.40997108  0.00189036  0.09934937  1  -0.022822  0  -0.014327  -0.099163  0  3.907103  0
C  C50  1  0.59964270  0.99599830  0.90813735  1  0.005809  0  -0.010003  -0.011278  0  3.965763  0
C  C51  1  0.46164834  0.08228994  0.04830728  1  0.038089  0  0.027499  0.146024  0  3.994043  0
C  C52  1  0.54965565  0.91562956  0.95763218  1  -0.019984  0  -0.082322  -0.100871  0  3.972329  0
C  C53  1  0.55564215  0.07831956  0.95374870  1  0.008068  0  -0.085569  -0.163171  0  3.952872  0
C  C54  1  0.45641244  0.91940703  0.05184088  1  0.03025  0  -0.076904  -0.072717  0  3.966079  0
C  C55  1  0.98962275  0.00404029  0.90730838  1  0.045055  0  -0.013923  -0.096659  0  3.902285  0
C  C56  1  0.99645599  0.99693689  0.09780622  1  0.033799  0  -0.008914  -0.012409  0  3.96181  0
C  C57  1  0.90989977  0.08516159  0.95878198  1  0.031698  0  0.025761  0.144362  0  3.993552  0
C  C58  1  0.07666772  0.91650858  0.04737060  1  -0.062479  0  -0.079389  -0.095962  0  3.963426  0
C  C59  1  0.91399393  0.08063884  0.05305629  1  -0.077021  0  -0.086109  -0.163937  0  3.953384  0
C  C60  1  0.07230093  0.92090695  0.95377703  1  -0.010339  0  -0.074733  -0.072103  0  3.961271  0
C  C61  1  0.40736552  0.59890388  0.48929426  1  -0.01864  0  -0.01406  -0.097615  0  3.903036  0
C  C62  1  0.59844071  0.40912648  0.49600043  1  -0.0355  0  -0.009524  -0.013492  0  3.963406  0
C  C63  1  0.45928002  0.54614139  0.40943239  1  0.016235  0  0.02636  0.145709  0  3.99398  0
C  C64  1  0.54755674  0.45968323  0.57636532  1  -0.01789  0  -0.079634  -0.095232  0  3.962311  0
C  C65  1  0.55381627  0.45251964  0.41348784  1  0.071159  0  -0.085986  -0.164208  0  3.954194  0
C  C66  1  0.45375693  0.55309393  0.57197653  1  -0.013604  0  -0.074533  -0.071349  0  3.960123  0
C  C67  1  0.99673282  0.60065721  0.90515052  1  0.018503  0  -0.036919  -0.227576  0  4.027648  0
C  C68  1  0.99711530  0.40586264  0.09949328  1  0.038999  0  -0.037277  -0.22371  0  4.015884  0
C  C69  1  0.91712607  0.54881232  0.95569051  1  0.044203  0  -0.023699  0.047206  0  3.958422  0
C  C70  1  0.07938274  0.45549920  0.05002791  1  0.518901  0  0.088354  0.212728  0  4.008026  0
C  C71  1  0.91723106  0.45592920  0.04837187  1  -0.039208  0  -0.021855  0.050583  0  3.950829  0
C  C72  1  0.07910450  0.55188776  0.95402900  1  0.567079  0  0.08745  0.209939  0  4.01134  0
C  C73  1  0.81592644  0.55444045  0.94794869  1  0.020093  0  -0.152505  -0.188953  0  3.89237  0
C  C74  1  0.81595572  0.44783992  0.05423401  1  -0.029077  0  -0.152973  -0.19104  0  3.887894  0
C  C75  1  0.40767622  0.98979336  0.50389142  1  0.070084  0  -0.013755  -0.096638  0  3.903989  0
C  C76  1  0.59845326  0.99721758  0.49578630  1  0.029867  0  -0.00932  -0.01408  0  3.967199  0
C  C77  1  0.45888622  0.91046432  0.58436614  1  -0.015169  0  0.025882  0.144873  0  3.998182  0
C  C78  1  0.54821200  0.07711392  0.41600814  1  -0.000556  0  -0.080469  -0.096467  0  3.964716  0
C  C79  1  0.55345126  0.91481277  0.57933589  1  0.052684  0  -0.086418  -0.16314  0  3.955236  0
C  C80  1  0.45438882  0.07245915  0.42081629  1  -0.088552  0  -0.074941  -0.070937  0  3.961594  0
Cl  Cl81  1  0.19862984  0.40819243  0.30850918  1  -0.162227  0  0.006594  -0.052065  0  1.533486  0
Cl  Cl82  1  0.41661352  0.19027274  0.09337118  1  -0.178192  0  0.005722  -0.053156  0  1.529507  0
Cl  Cl83  1  0.80333810  0.19459755  0.91306462  1  -0.186831  0  -0.001981  -0.069912  0  1.504672  0
Cl  Cl84  1  0.41341462  0.58856896  0.30311365  1  -0.186949  0  -0.002099  -0.070398  0  1.503025  0
Cl  Cl85  1  0.41224190  0.80442985  0.69362642  1  -0.181699  0  -0.003439  -0.06991  0  1.49523  0
O  O86  1  0.91796026  0.73908166  0.57495884  1  -1.190013  0  -0.352965  -0.615003  0  2.277562  0
O  O87  1  0.26566973  0.07366120  0.24283559  1  -1.180543  0  -0.365248  -0.627103  0  2.381948  0
O  O88  1  0.07629585  0.26323518  0.42012571  1  -1.181202  0  -0.364223  -0.627118  0  2.381423  0
O  O89  1  0.73692164  0.92069688  0.76540456  1  -1.17558  0  -0.354219  -0.616756  0  2.277092  0
O  O90  1  0.07393771  0.74005539  0.76513591  1  -1.193129  0  -0.360198  -0.639046  0  2.324985  0
O  O91  1  0.73737723  0.07652514  0.41868451  1  -1.187038  0  -0.352325  -0.615836  0  2.269366  0
O  O92  1  0.92093447  0.26596046  0.23837382  1  -1.18096  0  -0.351204  -0.60032  0  2.264434  0
O  O93  1  0.26381181  0.91818056  0.57537709  1  -1.181557  0  -0.364954  -0.626184  0  2.380517  0
O  O94  1  0.26419539  0.74220127  0.41760441  1  -1.171202  0  -0.362946  -0.624039  0  2.372609  0
O  O95  1  0.91870873  0.07634598  0.76355930  1  -1.182167  0  -0.361704  -0.622668  0  2.377003  0
O  O96  1  0.73732397  0.26906291  0.57489441  1  -1.178873  0  -0.352668  -0.616496  0  2.267525  0
O  O97  1  0.07601137  0.92001484  0.23591326  1  -1.181004  0  -0.35275  -0.616665  0  2.267733  0
O  O98  1  0.07065928  0.92265736  0.76860387  1  -1.174298  0  -0.349367  -0.617048  0  2.261474  0
O  O99  1  0.73923165  0.26736023  0.42131052  1  -1.174744  0  -0.35208  -0.614257  0  2.289034  0
O  O100  1  0.92153743  0.07256942  0.23870842  1  -1.180318  0  -0.353257  -0.615604  0  2.28902  0
O  O101  1  0.26683302  0.73597913  0.57215141  1  -1.179953  0  -0.348473  -0.614294  0  2.265175  0
O  O102  1  0.91992541  0.73960783  0.76607560  1  -1.173728  0  -0.343875  -0.595222  0  2.265948  0
O  O103  1  0.26866936  0.07102446  0.42410138  1  -1.17168  0  -0.346659  -0.610033  0  2.280076  0
O  O104  1  0.07458107  0.26608890  0.23854145  1  -1.186243  0  -0.350606  -0.625735  0  2.314725  0
O  O105  1  0.73886281  0.92291067  0.57093984  1  -1.183721  0  -0.354182  -0.614649  0  2.292422  0
O  O106  1  0.73782772  0.07419013  0.76507461  1  -1.180497  0  -0.351668  -0.610798  0  2.290623  0
O  O107  1  0.07064150  0.74099854  0.42013645  1  -1.178698  0  -0.352181  -0.612296  0  2.289829  0
O  O108  1  0.26917310  0.92280398  0.23515220  1  -1.177383  0  -0.347769  -0.613573  0  2.263796  0
O  O109  1  0.92242739  0.26943409  0.57222453  1  -1.189652  0  -0.348744  -0.61529  0  2.265121  0
O  O110  1  0.79744005  0.06865860  0.56632878  1  -1.221999  0  -0.692978  -1.069726  0  2.359631  0
O  O111  1  0.06673966  0.06728653  0.56748943  1  -1.222353  0  -0.696329  -1.066526  0  2.368178  0
O  O112  1  0.06770175  0.06699016  0.29794178  1  -1.22634  0  -0.695333  -1.070784  0  2.363688  0
O  O113  1  0.06593256  0.79915123  0.56626016  1  -1.234098  0  -0.694237  -1.067017  0  2.365637  0
O  O114  1  0.14852296  0.94991330  0.45024193  1  -1.194019  0  -0.793589  -1.146282  0  2.137939  0
O  O115  1  0.94995957  0.95123196  0.44945102  1  -1.198924  0  -0.789521  -1.14968  0  2.123515  0
O  O116  1  0.95038475  0.14916240  0.45015016  1  -1.197379  0  -0.792329  -1.150386  0  2.130264  0
O  O117  1  0.94916798  0.95178477  0.64794153  1  -1.198821  0  -0.790809  -1.14782  0  2.127058  0
O  O118  1  0.16148486  0.41647054  0.08892720  1  -1.123193  0  -0.349949  -0.425719  0  2.347986  0
O  O119  1  0.16086134  0.59205555  0.91442337  1  -1.138907  0  -0.349584  -0.410559  0  2.279541  0
