# generated using pymatgen
data_ZnH7C9(NO2)2
_symmetry_space_group_name_H-M   'P 1'
_cell_length_a   9.76914698
_cell_length_b   10.95571323
_cell_length_c   11.23922376
_cell_angle_alpha   89.37573517
_cell_angle_beta   90.02743337
_cell_angle_gamma   89.98142013
_symmetry_Int_Tables_number   1
_chemical_formula_structural   ZnH7C9(NO2)2
_chemical_formula_sum   'Zn2 H14 C18 N4 O8'
_cell_volume   1202.83973346
_cell_formula_units_Z   2
loop_
 _symmetry_equiv_pos_site_id
 _symmetry_equiv_pos_as_xyz
  1  'x, y, z'
loop_
 _atom_site_type_symbol
 _atom_site_label
 _atom_site_symmetry_multiplicity
 _atom_site_fract_x
 _atom_site_fract_y
 _atom_site_fract_z
 _atom_site_occupancy
 _atom_site_pbe_bader_charge
 _atom_site_pbe_bader_spin_density
 _atom_site_pbe_cm5_charge
 _atom_site_pbe_ddec_charge
 _atom_site_pbe_ddec_spin_density
 _atom_site_pbe_ddec_sum_bond_order
 _atom_site_pbe_magmom
Zn  Zn0  1  0.35965647  0.50013472  0.49991045  1  1.292836  0  0.670156  0.828923  0  2.397817  0
Zn  Zn1  1  0.65134117  0.50001823  0.50004140  1  1.283564  0  0.669229  0.840061  0  2.358875  0
H  H2  1  0.71011145  0.47981948  0.10890804  1  0.085363  0  0.103164  0.09791  0  0.995732  0
H  H3  1  0.14187863  0.62878122  0.63400287  1  0.114474  0  0.125112  0.120405  0  0.991188  0
H  H4  1  0.76874950  0.38211222  0.32287311  1  0.539524  0  0.305734  0.328592  0  0.984847  0
H  H5  1  0.92388360  0.31631782  0.28161788  1  0.437081  0  0.326226  0.32019  0  0.914666  0
H  H6  1  0.76887074  0.61715710  0.67769896  1  0.54062  0  0.305514  0.328327  0  0.985165  0
H  H7  1  0.92393458  0.68315244  0.71879982  1  0.436104  0  0.326319  0.319855  0  0.915672  0
H  H8  1  0.71000693  0.52018745  0.89108774  1  0.08413  0  0.10312  0.097853  0  0.995809  0
H  H9  1  0.40371030  0.54425685  0.09624385  1  0.072419  0  0.107587  0.125104  0  0.989554  0
H  H10  1  0.40353765  0.45620147  0.90372241  1  0.071998  0  0.107593  0.124988  0  0.989761  0
H  H11  1  0.71971456  0.88501656  0.50073979  1  0.111331  0  0.101106  0.106826  0  1.006501  0
H  H12  1  0.71964052  0.11514430  0.49793564  1  0.111904  0  0.100991  0.10674  0  1.006765  0
H  H13  1  0.28052174  0.11495886  0.49564146  1  0.11029  0  0.102108  0.10602  0  1.003081  0
H  H14  1  0.28063538  0.88525390  0.50511846  1  0.111514  0  0.101904  0.105904  0  1.002877  0
H  H15  1  0.14189590  0.37112414  0.36608591  1  0.114381  0  0.125001  0.120288  0  0.99099  0
C  C16  1  0.50037728  0.73557647  0.50597874  1  1.531128  0  0.214102  0.590515  0  4.170722  0
C  C17  1  0.62428425  0.06357537  0.49840200  1  0.056059  0  -0.087153  -0.097963  0  3.984296  0
C  C18  1  0.50014755  0.12785512  0.49625410  1  -0.047862  0  -0.015483  -0.024811  0  3.962089  0
C  C19  1  0.50025135  0.87230651  0.50347124  1  -0.050842  0  -0.016035  -0.024736  0  3.961619  0
C  C20  1  0.37603411  0.06356338  0.49762759  1  0.04145  0  -0.087202  -0.098585  0  3.986406  0
C  C21  1  0.37610580  0.93661030  0.50266949  1  -0.099811  0  -0.086662  -0.098316  0  3.985944  0
C  C22  1  0.93751353  0.42997559  0.42233788  1  0.934517  0  0.238822  0.436533  0  4.104587  0
C  C23  1  0.93754651  0.56961287  0.57802652  1  0.977863  0  0.238479  0.436139  0  4.105706  0
C  C24  1  0.08198737  0.42856374  0.42492201  1  0.582349  0  0.021013  -0.130333  0  3.919145  0
C  C25  1  0.08198245  0.57130600  0.57522147  1  0.579821  0  0.020636  -0.130865  0  3.920004  0
C  C26  1  0.50021001  0.26458867  0.49387654  1  1.528158  0  0.213779  0.590347  0  4.170011  0
C  C27  1  0.50601404  0.48983377  0.73405365  1  1.577272  0  0.209113  0.634506  0  4.180951  0
C  C28  1  0.50621707  0.51039097  0.26591692  1  1.577075  0  0.208931  0.634475  0  4.182848  0
C  C29  1  0.61234015  0.49801219  0.06458794  1  -0.179275  0  -0.076716  -0.030658  0  4.001649  0
C  C30  1  0.61226368  0.50214212  0.93541026  1  -0.036813  0  -0.076494  -0.03043  0  4.001636  0
C  C31  1  0.50242930  0.51840624  0.13428481  1  0.018298  0  -0.090227  -0.223259  0  3.881938  0
C  C32  1  0.50226582  0.48190611  0.86569990  1  0.020095  0  -0.090387  -0.223391  0  3.881996  0
C  C33  1  0.62433267  0.93659417  0.50065099  1  -0.112465  0  -0.087414  -0.098306  0  3.983779  0
N  N34  1  0.14966376  0.50002682  0.50000311  1  -1.264738  0  -0.312736  -0.112643  0  3.676413  0
N  N35  1  0.86601610  0.49979499  0.50019189  1  -1.222271  0  -0.326134  -0.394436  0  3.313439  0
N  N36  1  0.86847622  0.36097839  0.34341037  1  -1.239896  0  -0.569998  -0.619837  0  3.309821  0
N  N37  1  0.86852682  0.63834594  0.65712477  1  -1.282141  0  -0.56942  -0.618564  0  3.31075  0
O  O38  1  0.38775819  0.68225050  0.53050086  1  -1.172458  0  -0.318652  -0.550152  0  2.330907  0
O  O39  1  0.38756580  0.31797304  0.46933476  1  -1.172358  0  -0.318841  -0.550239  0  2.330472  0
O  O40  1  0.61342609  0.68262002  0.48264622  1  -1.1727  0  -0.320502  -0.552213  0  2.340832  0
O  O41  1  0.61324957  0.31747578  0.51732858  1  -1.173107  0  -0.320395  -0.552236  0  2.341862  0
O  O42  1  0.39438229  0.46680705  0.68057385  1  -1.160668  0  -0.316048  -0.542015  0  2.263877  0
O  O43  1  0.39461537  0.53348434  0.31934010  1  -1.160103  0  -0.316079  -0.542197  0  2.264928  0
O  O44  1  0.61921532  0.51873232  0.68319296  1  -1.197064  0  -0.321494  -0.57705  0  2.349088  0
O  O45  1  0.61939078  0.48134857  0.31685026  1  -1.197051  0  -0.321667  -0.577265  0  2.349838  0
