# generated using pymatgen
data_CdH14C18SN4O5
_symmetry_space_group_name_H-M   'P 1'
_cell_length_a   10.54969690
_cell_length_b   10.38297404
_cell_length_c   10.78279102
_cell_angle_alpha   108.02153503
_cell_angle_beta   109.96116509
_cell_angle_gamma   103.72324400
_symmetry_Int_Tables_number   1
_chemical_formula_structural   CdH14C18SN4O5
_chemical_formula_sum   'Cd2 H28 C36 S2 N8 O10'
_cell_volume   974.94411207
_cell_formula_units_Z   2
loop_
 _symmetry_equiv_pos_site_id
 _symmetry_equiv_pos_as_xyz
  1  'x, y, z'
loop_
 _atom_site_type_symbol
 _atom_site_label
 _atom_site_symmetry_multiplicity
 _atom_site_fract_x
 _atom_site_fract_y
 _atom_site_fract_z
 _atom_site_occupancy
 _atom_site_hle17_bader_spin_density
 _atom_site_hle17_ddec_charge
 _atom_site_hle17_ddec_spin_density
 _atom_site_hle17_ddec_sum_bond_order
 _atom_site_hle17_magmom
 _atom_site_hse06_10hf_bader_spin_density
 _atom_site_hse06_10hf_ddec_charge
 _atom_site_hse06_10hf_ddec_spin_density
 _atom_site_hse06_10hf_ddec_sum_bond_order
 _atom_site_hse06_10hf_magmom
 _atom_site_hse06_bader_spin_density
 _atom_site_hse06_ddec_charge
 _atom_site_hse06_ddec_spin_density
 _atom_site_hse06_ddec_sum_bond_order
 _atom_site_hse06_magmom
 _atom_site_pbe_bader_spin_density
 _atom_site_pbe_cm5_charge
 _atom_site_pbe_ddec_charge
 _atom_site_pbe_ddec_spin_density
 _atom_site_pbe_ddec_sum_bond_order
 _atom_site_pbe_magmom
Cd  Cd0  1  0.61012215  0.74623971  0.73066898  1  0  1.136765  0  1.712712  0  0  0.945661  0  2.162794  0  0  1.000293  0  2.11036  0  0  0.775932  0.905555  0  2.200392  0
Cd  Cd1  1  0.38987843  0.25375870  0.26933039  1  0  1.136769  0  1.712701  0  0  0.945666  0  2.162787  0  0  1.000298  0  2.110351  0  0  0.775926  0.905556  0  2.200378  0
H  H2  1  0.04235861  0.31223603  0.58284105  1  0  0.106488  0  0.962786  0  0  0.114024  0  1.029284  0  0  0.116513  0  1.029016  0  0  0.100148  0.112564  0  1.029016  0
H  H3  1  0.95764755  0.68776895  0.41716301  1  0  0.10651  0  0.962735  0  0  0.114016  0  1.029265  0  0  0.116512  0  1.02899  0  0  0.100131  0.11256  0  1.028998  0
H  H4  1  0.81995850  0.36798126  0.61623871  1  0  0.113027  0  0.934678  0  0  0.126572  0  0.989794  0  0  0.129571  0  0.988101  0  0  0.107471  0.124219  0  0.991364  0
H  H5  1  0.18004621  0.63202262  0.38376269  1  0  0.113028  0  0.9346  0  0  0.126576  0  0.989716  0  0  0.12957  0  0.988035  0  0  0.107488  0.124226  0  0.991286  0
H  H6  1  0.46127191  0.95772928  0.60437481  1  0  0.109063  0  0.943321  0  0  0.120124  0  0.998975  0  0  0.122413  0  0.998456  0  0  0.122084  0.118557  0  0.99926  0
H  H7  1  0.53872733  0.04226038  0.39562524  1  0  0.109141  0  0.94319  0  0  0.120209  0  0.998837  0  0  0.122498  0  0.998318  0  0  0.122126  0.118642  0  0.999123  0
H  H8  1  0.60209310  0.25705600  0.69994520  1  0  0.126336  0  0.975632  0  0  0.132903  0  1.041294  0  0  0.136875  0  1.037957  0  0  0.120883  0.130057  0  1.043758  0
H  H9  1  0.39789811  0.74293372  0.30005320  1  0  0.126258  0  0.975652  0  0  0.132865  0  1.041264  0  0  0.136837  0  1.037925  0  0  0.120856  0.130015  0  1.043732  0
H  H10  1  0.88891977  0.09572379  0.93347946  1  0  0.107401  0  0.946349  0  0  0.113274  0  1.017257  0  0  0.116192  0  1.013478  0  0  0.135103  0.111086  0  1.020023  0
H  H11  1  0.11108207  0.90427792  0.06652037  1  0  0.107403  0  0.946318  0  0  0.113277  0  1.017214  0  0  0.116194  0  1.013436  0  0  0.135091  0.111085  0  1.019984  0
H  H12  1  0.74313335  0.46818947  0.94918070  1  0  0.108791  0  0.940648  0  0  0.119753  0  1.000815  0  0  0.122213  0  1.000383  0  0  0.11045  0.118023  0  1.001227  0
H  H13  1  0.25686194  0.53180570  0.05081692  1  0  0.108799  0  0.940628  0  0  0.119787  0  1.000752  0  0  0.122252  0  1.000314  0  0  0.110463  0.118053  0  1.001177  0
H  H14  1  0.06070928  0.28330049  0.91010155  1  0  0.102561  0  0.964497  0  0  0.111415  0  1.028825  0  0  0.113531  0  1.029019  0  0  0.106921  0.109845  0  1.028894  0
H  H15  1  0.93928355  0.71669358  0.08989310  1  0  0.102572  0  0.964564  0  0  0.111446  0  1.028868  0  0  0.11356  0  1.029067  0  0  0.106934  0.109875  0  1.02894  0
H  H16  1  0.50049845  0.58187316  0.92246066  1  0  0.101825  0  0.976387  0  0  0.111589  0  1.037238  0  0  0.113601  0  1.036977  0  0  0.115055  0.109959  0  1.03774  0
H  H17  1  0.49950604  0.41812745  0.07754341  1  0  0.101826  0  0.976463  0  0  0.111593  0  1.037303  0  0  0.113631  0  1.037011  0  0  0.115063  0.109962  0  1.037806  0
H  H18  1  0.65305560  0.66435537  0.22192637  1  0  0.127861  0  1.003642  0  0  0.132866  0  1.071054  0  0  0.136904  0  1.068017  0  0  0.119959  0.129992  0  1.07315  0
H  H19  1  0.34694998  0.33565072  0.77807783  1  0  0.127896  0  1.003539  0  0  0.132896  0  1.070948  0  0  0.13694  0  1.0679  0  0  0.12  0.130024  0  1.073041  0
H  H20  1  0.86260728  0.97922257  0.10726741  1  0  0.104683  0  0.95653  0  0  0.108301  0  1.031712  0  0  0.111821  0  1.026774  0  0  0.131974  0.105709  0  1.035124  0
H  H21  1  0.13739512  0.02077802  0.89273042  1  0  0.104698  0  0.956558  0  0  0.108307  0  1.03174  0  0  0.111834  0  1.026795  0  0  0.131969  0.105714  0  1.035153  0
H  H22  1  0.74806415  0.84804914  0.44073096  1  0  0.12125  0  0.936672  0  0  0.135136  0  0.988993  0  0  0.137944  0  0.987734  0  0  0.116316  0.133009  0  0.990104  0
H  H23  1  0.25194095  0.15195582  0.55926904  1  0  0.121249  0  0.936703  0  0  0.135162  0  0.988987  0  0  0.137971  0  0.987729  0  0  0.116309  0.133033  0  0.990099  0
H  H24  1  0.06397458  0.02370240  0.30405281  1  0  0.113174  0  0.972872  0  0  0.120593  0  1.040402  0  0  0.123354  0  1.039366  0  0  0.106694  0.118399  0  1.041632  0
H  H25  1  0.93602793  0.97630369  0.69594668  1  0  0.113205  0  0.972876  0  0  0.12061  0  1.040415  0  0  0.12337  0  1.039381  0  0  0.106712  0.118415  0  1.041641  0
H  H26  1  0.56970794  0.61508233  0.43060066  1  0  0.41945  0  0.889818  0  0  0.386166  0  0.958543  0  0  0.397598  0  0.941865  0  0  0.280474  0.377917  0  0.970611  0
H  H27  1  0.43029006  0.38491721  0.56939914  1  0  0.419401  0  0.889885  0  0  0.386104  0  0.958633  0  0  0.397533  0  0.941959  0  0  0.280451  0.377849  0  0.97071  0
H  H28  1  0.41395725  0.58197864  0.42258886  1  0  0.422073  0  0.88075  0  0  0.390031  0  0.94736  0  0  0.401274  0  0.930839  0  0  0.286115  0.381867  0  0.959416  0
H  H29  1  0.58603989  0.41801871  0.57740908  1  0  0.422126  0  0.880674  0  0  0.390093  0  0.947268  0  0  0.401334  0  0.930752  0  0  0.286143  0.381925  0  0.959331  0
C  C30  1  0.30085959  0.56212713  0.67126538  1  0  0.657795  0  3.974006  0  0  0.603627  0  4.275748  0  0  0.638523  0  4.267281  0  0  0.19569  0.579622  0  4.280588  0
C  C31  1  0.69914498  0.43787896  0.32873849  1  0  0.657845  0  3.973776  0  0  0.603723  0  4.275452  0  0  0.638616  0  4.266995  0  0  0.195761  0.579716  0  4.280301  0
C  C32  1  0.16157067  0.54774703  0.68022838  1  0  -0.142184  0  3.728263  0  0  -0.122661  0  3.99369  0  0  -0.12894  0  4.013568  0  0  -0.026024  -0.118196  0  3.97958  0
C  C33  1  0.83843348  0.45225797  0.31977503  1  0  -0.142036  0  3.728118  0  0  -0.122503  0  3.993479  0  0  -0.128784  0  4.013362  0  0  -0.025915  -0.118055  0  3.979401  0
C  C34  1  0.04309703  0.42109312  0.63255703  1  0  -0.083608  0  3.755738  0  0  -0.112713  0  4.020426  0  0  -0.112568  0  4.039535  0  0  -0.099995  -0.112149  0  4.006052  0
C  C35  1  0.95690769  0.57891077  0.36744531  1  0  -0.083788  0  3.755826  0  0  -0.112861  0  4.020499  0  0  -0.112722  0  4.039604  0  0  -0.10006  -0.112301  0  4.006145  0
C  C36  1  0.92539182  0.45097979  0.65077849  1  0  -0.071195  0  3.742801  0  0  -0.102889  0  4.007678  0  0  -0.101452  0  4.025483  0  0  -0.098227  -0.103066  0  3.99496  0
C  C37  1  0.07460801  0.54902193  0.34922069  1  0  -0.07105  0  3.742845  0  0  -0.102714  0  4.007729  0  0  -0.101282  0  4.025534  0  0  -0.098175  -0.102902  0  3.995011  0
C  C38  1  0.95675692  0.60013630  0.71487319  1  0  -0.154565  0  3.74229  0  0  -0.135561  0  4.010497  0  0  -0.143056  0  4.031743  0  0  -0.030971  -0.131189  0  3.996971  0
C  C39  1  0.04324374  0.39986760  0.28512599  1  0  -0.154579  0  3.742313  0  0  -0.135666  0  4.010621  0  0  -0.143158  0  4.031864  0  0  -0.03098  -0.131263  0  3.997053  0
C  C40  1  0.86095695  0.67417362  0.74649869  1  0  0.654187  0  3.969599  0  0  0.603598  0  4.262428  0  0  0.638628  0  4.25499  0  0  0.188588  0.579621  0  4.266681  0
C  C41  1  0.13903955  0.32582480  0.25349566  1  0  0.654202  0  3.969686  0  0  0.60366  0  4.262485  0  0  0.63869  0  4.255049  0  0  0.188625  0.579676  0  4.266737  0
C  C42  1  0.57085960  0.03129581  0.68758906  1  0  0.011806  0  3.753099  0  0  -0.021042  0  4.012654  0  0  -0.018922  0  4.033488  0  0  0.001006  -0.022355  0  3.998093  0
C  C43  1  0.42913693  0.96869719  0.31241389  1  0  0.011688  0  3.753061  0  0  -0.021164  0  4.012637  0  0  -0.019048  0  4.033475  0  0  0.000946  -0.022479  0  3.998079  0
C  C44  1  0.63863785  0.17958491  0.73545689  1  0  -0.064826  0  3.656516  0  0  -0.103259  0  3.91181  0  0  -0.102418  0  3.929714  0  0  0.001261  -0.10359  0  3.899791  0
C  C45  1  0.36135607  0.82040919  0.26454369  1  0  -0.06474  0  3.656374  0  0  -0.103163  0  3.911672  0  0  -0.10232  0  3.929578  0  0  0.001269  -0.103496  0  3.899656  0
C  C46  1  0.79141052  0.09523824  0.85437191  1  0  0.164781  0  3.649403  0  0  0.100964  0  3.921343  0  0  0.11518  0  3.933544  0  0  0.142881  0.091693  0  3.912858  0
C  C47  1  0.20858821  0.90475800  0.14562715  1  0  0.164788  0  3.64938  0  0  0.100999  0  3.921339  0  0  0.115215  0  3.933545  0  0  0.142865  0.091729  0  3.912857  0
C  C48  1  0.89063960  0.36126240  0.92159593  1  0  0.166173  0  3.788292  0  0  0.157609  0  4.038405  0  0  0.16163  0  4.061849  0  0  0.096344  0.154954  0  4.023059  0
C  C49  1  0.10935569  0.63873276  0.07840170  1  0  0.166204  0  3.788415  0  0  0.157716  0  4.038484  0  0  0.161737  0  4.061928  0  0  0.096361  0.15506  0  4.023136  0
C  C50  1  0.85519113  0.48246490  0.97015167  1  0  -0.107682  0  3.71656  0  0  -0.131495  0  3.972174  0  0  -0.133827  0  3.992692  0  0  -0.079474  -0.130339  0  3.958696  0
C  C51  1  0.14480218  0.51753029  0.02984718  1  0  -0.107789  0  3.716535  0  0  -0.131635  0  3.972134  0  0  -0.13397  0  3.992652  0  0  -0.079517  -0.13048  0  3.958651  0
C  C52  1  0.03479542  0.37832840  0.95092836  1  0  -0.113547  0  3.723649  0  0  -0.133604  0  3.976787  0  0  -0.136977  0  3.998544  0  0  -0.081332  -0.13126  0  3.962227  0
C  C53  1  0.96519987  0.62166676  0.04906927  1  0  -0.113627  0  3.723873  0  0  -0.133705  0  3.976964  0  0  -0.137075  0  3.99872  0  0  -0.081335  -0.131359  0  3.962404  0
C  C54  1  0.59729800  0.67726539  0.00570536  1  0  -0.00237  0  3.76037  0  0  -0.032966  0  4.021324  0  0  -0.031327  0  4.041872  0  0  -0.007456  -0.033941  0  4.007773  0
C  C55  1  0.40270402  0.32273413  0.99429573  1  0  -0.002403  0  3.760496  0  0  -0.033008  0  4.02145  0  0  -0.031393  0  4.041996  0  0  -0.007434  -0.03398  0  4.007901  0
C  C56  1  0.66836675  0.71756139  0.15275003  1  0  -0.071627  0  3.656325  0  0  -0.111706  0  3.914248  0  0  -0.110679  0  3.932322  0  0  -0.002597  -0.11243  0  3.902319  0
C  C57  1  0.33163759  0.28244142  0.84725558  1  0  -0.071573  0  3.656346  0  0  -0.111642  0  3.914281  0  0  -0.110619  0  3.932356  0  0  -0.002619  -0.112369  0  3.90235  0
C  C58  1  0.78290439  0.88146131  0.09408189  1  0  0.158842  0  3.642461  0  0  0.099115  0  3.911183  0  0  0.112961  0  3.922533  0  0  0.139725  0.090456  0  3.902803  0
C  C59  1  0.21709620  0.11853712  0.90591842  1  0  0.158803  0  3.642279  0  0  0.099081  0  3.911018  0  0  0.112922  0  3.922358  0  0  0.139743  0.090422  0  3.90264  0
C  C60  1  0.89383192  0.92654901  0.35565307  1  0  0.168712  0  3.792271  0  0  0.159097  0  4.04158  0  0  0.163754  0  4.064576  0  0  0.093837  0.155653  0  4.026469  0
C  C61  1  0.10616859  0.07345709  0.64434671  1  0  0.168677  0  3.792245  0  0  0.159131  0  4.041473  0  0  0.163786  0  4.064468  0  0  0.093853  0.155688  0  4.026357  0
C  C62  1  0.85824801  0.91431224  0.46630796  1  0  -0.117309  0  3.720418  0  0  -0.135434  0  3.966312  0  0  -0.137464  0  3.984986  0  0  -0.080893  -0.134217  0  3.954309  0
C  C63  1  0.14175508  0.08569274  0.53369139  1  0  -0.117294  0  3.720419  0  0  -0.135456  0  3.966288  0  0  -0.137487  0  3.984964  0  0  -0.080906  -0.134236  0  3.954278  0
C  C64  1  0.03544254  0.01242232  0.38924306  1  0  -0.135498  0  3.737173  0  0  -0.156728  0  3.989596  0  0  -0.160009  0  4.010503  0  0  -0.08751  -0.154879  0  3.976365  0
C  C65  1  0.96455996  0.98758375  0.61075550  1  0  -0.135541  0  3.737305  0  0  -0.156775  0  3.989704  0  0  -0.160057  0  4.010611  0  0  -0.087536  -0.154923  0  3.976468  0
S  S66  1  0.12940850  0.70291047  0.74976580  1  0  0.155737  0  2.624269  0  0  0.15004  0  2.940153  0  0  0.150029  0  2.948549  0  0  0.093105  0.150785  0  2.934557  0
S  S67  1  0.87059015  0.29709344  0.25023180  1  0  0.155668  0  2.62427  0  0  0.149993  0  2.940182  0  0  0.149981  0  2.948577  0  0  0.093061  0.150735  0  2.934583  0
N  N68  1  0.66688180  0.98068112  0.76224338  1  0  -0.378738  0  3.276663  0  0  -0.299613  0  3.561068  0  0  -0.32096  0  3.577543  0  0  -0.35855  -0.284644  0  3.549051  0
N  N69  1  0.33311895  0.01931510  0.23775632  1  0  -0.378732  0  3.276675  0  0  -0.299615  0  3.561075  0  0  -0.320957  0  3.57755  0  0  -0.358501  -0.284641  0  3.549051  0
N  N70  1  0.77886533  0.21866710  0.84105570  1  0  -0.090202  0  3.614787  0  0  -0.001454  0  3.826786  0  0  -0.015806  0  3.852524  0  0  -0.224774  0.007737  0  3.809766  0
N  N71  1  0.22112998  0.78132807  0.15894287  1  0  -0.090173  0  3.614701  0  0  -0.001538  0  3.826809  0  0  -0.015892  0  3.852551  0  0  -0.22475  0.007653  0  3.809788  0
N  N72  1  0.66948556  0.77969022  0.97077737  1  0  -0.377558  0  3.241759  0  0  -0.305984  0  3.524723  0  0  -0.325717  0  3.540819  0  0  -0.351998  -0.292656  0  3.513511  0
N  N73  1  0.33051791  0.22031039  0.02922544  1  0  -0.377482  0  3.24165  0  0  -0.30589  0  3.524589  0  0  -0.325622  0  3.540695  0  0  -0.351951  -0.292566  0  3.51338  0
N  N74  1  0.78633921  0.84772001  0.20806746  1  0  -0.087048  0  3.602175  0  0  0.003001  0  3.81225  0  0  -0.011681  0  3.837809  0  0  -0.225705  0.012645  0  3.794942  0
N  N75  1  0.21366390  0.15228499  0.79193376  1  0  -0.087131  0  3.602143  0  0  0.002883  0  3.812257  0  0  -0.011797  0  3.837816  0  0  -0.225843  0.012528  0  3.794944  0
O  O76  1  0.51122460  0.66285028  0.47058608  1  0  -0.845221  0  1.830584  0  0  -0.782598  0  2.017209  0  0  -0.804937  0  1.982705  0  0  -0.595817  -0.766936  0  2.041922  0
O  O77  1  0.48877239  0.33714927  0.52941340  1  0  -0.845217  0  1.830543  0  0  -0.782585  0  2.017157  0  0  -0.804922  0  1.982659  0  0  -0.595831  -0.766915  0  2.041878  0
O  O78  1  0.37568074  0.68873254  0.68887981  1  0  -0.644431  0  2.002458  0  0  -0.576439  0  2.255053  0  0  -0.604259  0  2.241681  0  0  -0.341448  -0.556647  0  2.263331  0
O  O79  1  0.62432120  0.31127465  0.31112075  1  0  -0.644568  0  2.002448  0  0  -0.576588  0  2.255032  0  0  -0.604406  0  2.241661  0  0  -0.341546  -0.556793  0  2.263307  0
O  O80  1  0.33601507  0.45130137  0.64950171  1  0  -0.647962  0  1.980926  0  0  -0.588465  0  2.208335  0  0  -0.613335  0  2.197373  0  0  -0.32311  -0.57016  0  2.215669  0
O  O81  1  0.66399138  0.54870692  0.35050435  1  0  -0.647924  0  1.980704  0  0  -0.588483  0  2.208133  0  0  -0.613355  0  2.197179  0  0  -0.32314  -0.570168  0  2.215446  0
O  O82  1  0.91063757  0.81242594  0.81470965  1  0  -0.650167  0  1.886359  0  0  -0.599081  0  2.117415  0  0  -0.623555  0  2.107747  0  0  -0.339305  -0.58205  0  2.123574  0
O  O83  1  0.08936099  0.18757250  0.18528908  1  0  -0.650161  0  1.886344  0  0  -0.599077  0  2.117387  0  0  -0.623555  0  2.107726  0  0  -0.339306  -0.582049  0  2.123549  0
O  O84  1  0.72634791  0.59069277  0.69905252  1  0  -0.672999  0  2.057469  0  0  -0.591741  0  2.30212  0  0  -0.62288  0  2.291132  0  0  -0.332803  -0.569185  0  2.309569  0
O  O85  1  0.27364871  0.40930344  0.30093936  1  0  -0.672997  0  2.057593  0  0  -0.591758  0  2.302237  0  0  -0.622895  0  2.291248  0  0  -0.332829  -0.569202  0  2.309689  0
