# generated using pymatgen
data_AgH12C7SNO3
_symmetry_space_group_name_H-M   'P 1'
_cell_length_a   4.76490373
_cell_length_b   8.37045527
_cell_length_c   13.87235318
_cell_angle_alpha   83.91914230
_cell_angle_beta   80.11611226
_cell_angle_gamma   73.53217446
_symmetry_Int_Tables_number   1
_chemical_formula_structural   AgH12C7SNO3
_chemical_formula_sum   'Ag2 H24 C14 S2 N2 O6'
_cell_volume   521.75751198
_cell_formula_units_Z   2
loop_
 _symmetry_equiv_pos_site_id
 _symmetry_equiv_pos_as_xyz
  1  'x, y, z'
loop_
 _atom_site_type_symbol
 _atom_site_label
 _atom_site_symmetry_multiplicity
 _atom_site_fract_x
 _atom_site_fract_y
 _atom_site_fract_z
 _atom_site_occupancy
 _atom_site_hle17_bader_spin_density
 _atom_site_hle17_ddec_charge
 _atom_site_hle17_ddec_spin_density
 _atom_site_hle17_ddec_sum_bond_order
 _atom_site_hle17_magmom
 _atom_site_hse06_10hf_bader_spin_density
 _atom_site_hse06_10hf_ddec_charge
 _atom_site_hse06_10hf_ddec_spin_density
 _atom_site_hse06_10hf_ddec_sum_bond_order
 _atom_site_hse06_10hf_magmom
 _atom_site_hse06_bader_spin_density
 _atom_site_hse06_ddec_charge
 _atom_site_hse06_ddec_spin_density
 _atom_site_hse06_ddec_sum_bond_order
 _atom_site_hse06_magmom
 _atom_site_pbe_bader_spin_density
 _atom_site_pbe_cm5_charge
 _atom_site_pbe_ddec_charge
 _atom_site_pbe_ddec_spin_density
 _atom_site_pbe_ddec_sum_bond_order
 _atom_site_pbe_magmom
Ag  Ag0  1  0.11737171  0.64136126  0.43163579  1  0  0.435872  0  1.585414  0  0  0.312954  0  2.069026  0  0  0.346523  0  2.010727  0  0  0.363795  0.289229  0  2.109693  0
Ag  Ag1  1  0.18676909  0.35778294  0.56883065  1  0  0.434791  0  1.590551  0  0  0.312367  0  2.074189  0  0  0.345818  0  2.015943  0  0  0.364368  0.288681  0  2.114847  0
H  H2  1  0.73375663  0.23725983  0.30877571  1  0  0.088764  0  0.925818  0  0  0.097849  0  0.988439  0  0  0.099766  0  0.987593  0  0  0.119339  0.096349  0  0.989296  0
H  H3  1  0.28320908  0.76146381  0.69160529  1  0  0.088913  0  0.926005  0  0  0.098777  0  0.987603  0  0  0.100777  0  0.986678  0  0  0.119477  0.097218  0  0.988522  0
H  H4  1  0.96200637  0.98112095  0.39628814  1  0  0.082595  0  0.947968  0  0  0.099593  0  1.015612  0  0  0.101261  0  1.013924  0  0  0.090751  0.098313  0  1.016914  0
H  H5  1  0.33970712  0.01832330  0.60356129  1  0  0.083578  0  0.948264  0  0  0.100349  0  1.015582  0  0  0.10201  0  1.013873  0  0  0.091101  0.099087  0  1.016888  0
H  H6  1  0.01605541  0.94617464  0.26949482  1  0  0.068851  0  0.958694  0  0  0.084796  0  1.025951  0  0  0.08543  0  1.026491  0  0  0.089569  0.084222  0  1.025739  0
H  H7  1  0.23340380  0.05312309  0.73029043  1  0  0.06894  0  0.960055  0  0  0.08457  0  1.027281  0  0  0.085223  0  1.02775  0  0  0.089327  0.083987  0  1.027126  0
H  H8  1  0.47004863  0.98852751  0.39072171  1  0  0.110061  0  0.921666  0  0  0.131956  0  0.9722  0  0  0.132749  0  0.972733  0  0  0.106504  0.131266  0  0.971994  0
H  H9  1  0.84818033  0.01413246  0.60779681  1  0  0.111097  0  0.921359  0  0  0.132483  0  0.972225  0  0  0.133379  0  0.972622  0  0  0.106366  0.131736  0  0.972107  0
H  H10  1  0.53957965  0.99108306  0.26015726  1  0  0.103176  0  0.944406  0  0  0.11949  0  1.003882  0  0  0.120836  0  1.003848  0  0  0.100734  0.118456  0  1.003994  0
H  H11  1  0.79357644  0.00968608  0.73839038  1  0  0.102485  0  0.944427  0  0  0.11879  0  1.003621  0  0  0.120021  0  1.003755  0  0  0.100601  0.117797  0  1.003685  0
H  H12  1  0.33537094  0.73698623  0.18969814  1  0  0.117951  0  0.957723  0  0  0.14002  0  1.014812  0  0  0.140781  0  1.015542  0  0  0.095662  0.139447  0  1.014339  0
H  H13  1  0.26986892  0.25484741  0.81164269  1  0  0.118395  0  0.960879  0  0  0.141282  0  1.01691  0  0  0.142066  0  1.017666  0  0  0.096299  0.14068  0  1.016435  0
H  H14  1  0.56054757  0.53471934  0.21906798  1  0  0.149861  0  0.946249  0  0  0.169352  0  1.00285  0  0  0.170925  0  1.003257  0  0  0.104707  0.168165  0  1.002646  0
H  H15  1  0.29818164  0.46221656  0.78170320  1  0  0.15189  0  0.946737  0  0  0.171101  0  1.003282  0  0  0.17286  0  1.003477  0  0  0.104933  0.169768  0  1.003276  0
H  H16  1  0.73177527  0.69597860  0.16507412  1  0  0.121552  0  0.936603  0  0  0.144256  0  0.989564  0  0  0.145081  0  0.990263  0  0  0.09577  0.143574  0  0.989186  0
H  H17  1  0.58985237  0.30974436  0.83482386  1  0  0.121224  0  0.935554  0  0  0.144325  0  0.9881  0  0  0.145166  0  0.988809  0  0  0.095293  0.143626  0  0.987713  0
H  H18  1  0.07843173  0.18635600  0.97348873  1  0  0.131346  0  0.937581  0  0  0.151421  0  0.994039  0  0  0.154015  0  0.992837  0  0  0.098452  0.14956  0  0.994932  0
H  H19  1  0.24575999  0.81579950  0.02608963  1  0  0.130768  0  0.936906  0  0  0.151557  0  0.992563  0  0  0.154154  0  0.99138  0  0  0.098194  0.149704  0  0.993424  0
H  H20  1  0.31532841  0.28157377  0.02094133  1  0  0.133921  0  0.964008  0  0  0.149229  0  1.028744  0  0  0.152888  0  1.026259  0  0  0.095164  0.146559  0  1.030608  0
H  H21  1  0.62342851  0.71817239  0.97850691  1  0  0.133692  0  0.965724  0  0  0.148778  0  1.030855  0  0  0.152467  0  1.028298  0  0  0.09495  0.146037  0  1.032832  0
H  H22  1  0.95849609  0.40222978  0.99355310  1  0  0.132343  0  0.938866  0  0  0.153846  0  0.995592  0  0  0.15614  0  0.995156  0  0  0.099512  0.152204  0  0.995935  0
H  H23  1  0.35639936  0.59939191  0.00730585  1  0  0.132078  0  0.93849  0  0  0.153553  0  0.995137  0  0  0.155865  0  0.994679  0  0  0.099299  0.151899  0  0.99549  0
H  H24  1  0.29409238  0.25716856  0.18217471  1  0  0.310166  0  0.930589  0  0  0.290019  0  0.999913  0  0  0.298128  0  0.993251  0  0  0.303991  0.284326  0  1.004613  0
H  H25  1  0.73679739  0.74405129  0.81757051  1  0  0.30949  0  0.933142  0  0  0.288566  0  1.003465  0  0  0.296737  0  0.996716  0  0  0.303395  0.282815  0  1.008231  0
C  C26  1  0.07263285  0.29572906  0.36981912  1  0  0.627039  0  3.883055  0  0  0.579981  0  4.173212  0  0  0.613703  0  4.169315  0  0  0.197027  0.55695  0  4.17503  0
C  C27  1  0.74095290  0.70439351  0.63036513  1  0  0.628173  0  3.880934  0  0  0.581001  0  4.171599  0  0  0.614655  0  4.167745  0  0  0.197567  0.558007  0  4.173388  0
C  C28  1  0.97742143  0.19889101  0.29886709  1  0  0.044249  0  3.609177  0  0  0.028786  0  3.843836  0  0  0.027987  0  3.856958  0  0  0.011867  0.029357  0  3.834871  0
C  C29  1  0.47789311  0.80092910  0.70118385  1  0  0.04672  0  3.611574  0  0  0.02988  0  3.84687  0  0  0.02901  0  3.859909  0  0  0.011788  0.030474  0  3.837963  0
C  C30  1  0.08045365  0.00961105  0.32414594  1  0  -0.152018  0  3.710979  0  0  -0.203789  0  3.976051  0  0  -0.205284  0  3.990495  0  0  -0.169797  -0.202467  0  3.965814  0
C  C31  1  0.41549043  0.99008305  0.67551494  1  0  -0.156189  0  3.714794  0  0  -0.207006  0  3.978651  0  0  -0.208553  0  3.993186  0  0  -0.170529  -0.205605  0  3.968276  0
C  C32  1  0.41211923  0.94679858  0.32616448  1  0  -0.155486  0  3.627656  0  0  -0.191755  0  3.885175  0  0  -0.19229  0  3.898864  0  0  -0.153382  -0.191291  0  3.875655  0
C  C33  1  0.68546277  0.05423996  0.67292109  1  0  -0.155046  0  3.625217  0  0  -0.190918  0  3.881799  0  0  -0.19143  0  3.895383  0  0  -0.152766  -0.190494  0  3.872418  0
C  C34  1  0.54443074  0.66828748  0.21508804  1  0  -0.324948  0  3.613669  0  0  -0.398597  0  3.858715  0  0  -0.400055  0  3.86911  0  0  -0.227872  -0.397453  0  3.851591  0
C  C35  1  0.42433981  0.33069120  0.78551762  1  0  -0.326448  0  3.613205  0  0  -0.401034  0  3.857457  0  0  -0.402624  0  3.867668  0  0  -0.228588  -0.399724  0  3.850319  0
C  C36  1  0.93739112  0.24055312  0.12343695  1  0  0.625773  0  3.819844  0  0  0.589678  0  4.109735  0  0  0.617883  0  4.110232  0  0  0.232696  0.570699  0  4.108651  0
C  C37  1  0.30554087  0.75914991  0.87666866  1  0  0.626571  0  3.825674  0  0  0.590668  0  4.1145  0  0  0.618768  0  4.11511  0  0  0.233777  0.571733  0  4.113342  0
C  C38  1  0.08539783  0.28028883  0.02192658  1  0  -0.444892  0  3.68702  0  0  -0.520581  0  3.920866  0  0  -0.527021  0  3.923419  0  0  -0.24201  -0.515996  0  3.919007  0
C  C39  1  0.39243094  0.72048257  0.97809813  1  0  -0.443995  0  3.687475  0  0  -0.520201  0  3.920697  0  0  -0.526671  0  3.923231  0  0  -0.241577  -0.515576  0  3.918933  0
S  S40  1  0.54832644  0.72099617  0.33765852  1  0  0.096513  0  2.750328  0  0  0.143225  0  3.19103  0  0  0.134945  0  3.180317  0  0  0.003413  0.148954  0  3.198662  0
S  S41  1  0.60373734  0.28038966  0.66258942  1  0  0.096649  0  2.748384  0  0  0.143496  0  3.188629  0  0  0.135144  0  3.177937  0  0  0.003117  0.149277  0  3.196252  0
N  N42  1  0.08488157  0.24088440  0.19770943  1  0  -0.447251  0  3.309536  0  0  -0.390202  0  3.545482  0  0  -0.411911  0  3.555775  0  0  -0.419948  -0.375506  0  3.538216  0
N  N43  1  0.52666084  0.76014700  0.80230054  1  0  -0.445813  0  3.313633  0  0  -0.38767  0  3.549065  0  0  -0.409217  0  3.559141  0  0  -0.419155  -0.373007  0  3.541867  0
O  O44  1  0.21387388  0.40074691  0.33492344  1  0  -0.620005  0  2.043783  0  0  -0.559927  0  2.301909  0  0  -0.587903  0  2.291796  0  0  -0.330235  -0.540279  0  2.308077  0
O  O45  1  0.95168291  0.59945416  0.66543187  1  0  -0.622032  0  2.042368  0  0  -0.562068  0  2.30043  0  0  -0.590051  0  2.290419  0  0  -0.330897  -0.542434  0  2.306591  0
O  O46  1  0.99931865  0.25763200  0.46033306  1  0  -0.617467  0  2.090514  0  0  -0.546059  0  2.36434  0  0  -0.577867  0  2.353607  0  0  -0.338772  -0.523779  0  2.370829  0
O  O47  1  0.72066844  0.74234024  0.53985259  1  0  -0.618356  0  2.090613  0  0  -0.546812  0  2.36401  0  0  -0.578593  0  2.353307  0  0  -0.339108  -0.524575  0  2.370521  0
O  O48  1  0.69011942  0.21018080  0.13550566  1  0  -0.617168  0  1.933451  0  0  -0.575073  0  2.158708  0  0  -0.596181  0  2.150633  0  0  -0.326523  -0.560411  0  2.163809  0
O  O49  1  0.04022573  0.78783113  0.86478556  1  0  -0.618374  0  1.937966  0  0  -0.576302  0  2.163438  0  0  -0.597508  0  2.155448  0  0  -0.327645  -0.561562  0  2.168487  0
