# generated using pymatgen
data_Ho2PH13C11NO16
_symmetry_space_group_name_H-M   'P 1'
_cell_length_a   9.82399761
_cell_length_b   10.30680366
_cell_length_c   11.16130221
_cell_angle_alpha   96.64966713
_cell_angle_beta   90.96907005
_cell_angle_gamma   107.62379749
_symmetry_Int_Tables_number   1
_chemical_formula_structural   Ho2PH13C11NO16
_chemical_formula_sum   'Ho4 P2 H26 C22 N2 O32'
_cell_volume   1068.22481577
_cell_formula_units_Z   2
loop_
 _symmetry_equiv_pos_site_id
 _symmetry_equiv_pos_as_xyz
  1  'x, y, z'
loop_
 _atom_site_type_symbol
 _atom_site_label
 _atom_site_symmetry_multiplicity
 _atom_site_fract_x
 _atom_site_fract_y
 _atom_site_fract_z
 _atom_site_occupancy
 _atom_site_hle17_bader_spin_density
 _atom_site_hle17_ddec_charge
 _atom_site_hle17_ddec_spin_density
 _atom_site_hle17_ddec_sum_bond_order
 _atom_site_hle17_magmom
 _atom_site_hse06_10hf_bader_spin_density
 _atom_site_hse06_10hf_ddec_charge
 _atom_site_hse06_10hf_ddec_spin_density
 _atom_site_hse06_10hf_ddec_sum_bond_order
 _atom_site_hse06_10hf_magmom
 _atom_site_hse06_bader_spin_density
 _atom_site_hse06_ddec_charge
 _atom_site_hse06_ddec_spin_density
 _atom_site_hse06_ddec_sum_bond_order
 _atom_site_hse06_magmom
 _atom_site_pbe_bader_spin_density
 _atom_site_pbe_cm5_charge
 _atom_site_pbe_ddec_charge
 _atom_site_pbe_ddec_spin_density
 _atom_site_pbe_ddec_sum_bond_order
 _atom_site_pbe_magmom
Ho  Ho0  1  0.17344134  0.37935978  0.04978123  1  0  2.269999  0  1.62149  0  0  2.124544  0  2.094777  0  0  2.252362  0  1.901137  0  0  1.503917  2.091464  0  2.123161  0
Ho  Ho1  1  0.82655689  0.62063201  0.95021799  1  0  2.270011  0  1.621473  0  0  2.124571  0  2.094725  0  0  2.252371  0  1.901117  0  0  1.503914  2.091482  0  2.123125  0
Ho  Ho2  1  0.37527720  0.93677511  0.24405249  1  0  2.216055  0  1.703238  0  0  2.065529  0  2.19026  0  0  2.129134  0  2.116936  0  0  1.530761  2.030606  0  2.220233  0
Ho  Ho3  1  0.62472303  0.06321976  0.75594798  1  0  2.215973  0  1.703352  0  0  2.065378  0  2.19045  0  0  2.129025  0  2.117059  0  0  1.530802  2.030471  0  2.220413  0
P  P4  1  0.06139605  0.63499669  0.21177199  1  0  1.617152  0  4.877535  0  0  1.463677  0  5.383457  0  0  1.515415  0  5.347357  0  0  0.350926  1.427803  0  5.412848  0
P  P5  1  0.93860049  0.36499919  0.78822400  1  0  1.617254  0  4.877347  0  0  1.463762  0  5.383247  0  0  1.515506  0  5.347141  0  0  0.350966  1.427891  0  5.412644  0
H  H6  1  0.60294405  0.79794291  0.26130096  1  0  0.441273  0  0.801896  0  0  0.424984  0  0.853055  0  0  0.433994  0  0.842614  0  0  0.330691  0.418683  0  0.860399  0
H  H7  1  0.39705582  0.20206323  0.73869523  1  0  0.441272  0  0.801915  0  0  0.424981  0  0.853073  0  0  0.433991  0  0.842634  0  0  0.330676  0.418682  0  0.860416  0
H  H8  1  0.46005769  0.68170718  0.23088379  1  0  0.43669  0  0.860947  0  0  0.405692  0  0.925145  0  0  0.417588  0  0.907509  0  0  0.30042  0.397498  0  0.937255  0
H  H9  1  0.53994351  0.31829385  0.76911731  1  0  0.436703  0  0.860944  0  0  0.405704  0  0.925139  0  0  0.4176  0  0.907504  0  0  0.300426  0.397513  0  0.937246  0
H  H10  1  0.97614743  0.76451175  0.36411042  1  0  0.170315  0  0.891883  0  0  0.189664  0  0.932367  0  0  0.192058  0  0.931579  0  0  0.133948  0.188274  0  0.932494  0
H  H11  1  0.02385521  0.23549024  0.63588184  1  0  0.170352  0  0.891872  0  0  0.189664  0  0.932393  0  0  0.192063  0  0.931606  0  0  0.133925  0.188272  0  0.932522  0
H  H12  1  0.07323609  0.67161520  0.43025412  1  0  0.157014  0  0.932243  0  0  0.168898  0  0.989831  0  0  0.171795  0  0.988815  0  0  0.117095  0.166752  0  0.990717  0
H  H13  1  0.92676646  0.32838992  0.56974562  1  0  0.157044  0  0.932297  0  0  0.168912  0  0.989879  0  0  0.171811  0  0.988864  0  0  0.117081  0.166765  0  0.990762  0
H  H14  1  0.78351218  0.49389767  0.20887399  1  0  0.31593  0  0.888062  0  0  0.293201  0  0.954349  0  0  0.301949  0  0.947209  0  0  0.326543  0.286855  0  0.959698  0
H  H15  1  0.21648527  0.50610441  0.79112802  1  0  0.31595  0  0.888025  0  0  0.293199  0  0.954335  0  0  0.301944  0  0.947198  0  0  0.326516  0.286854  0  0.959686  0
H  H16  1  0.88632991  0.60525152  0.58223446  1  0  0.139436  0  0.922419  0  0  0.148894  0  0.976884  0  0  0.152973  0  0.97531  0  0  0.121424  0.145946  0  0.978123  0
H  H17  1  0.11367699  0.39476078  0.41776610  1  0  0.139479  0  0.922394  0  0  0.148916  0  0.976875  0  0  0.153007  0  0.975286  0  0  0.121421  0.145966  0  0.978113  0
H  H18  1  0.90790228  0.20165015  0.16283926  1  0  0.441076  0  0.795911  0  0  0.428137  0  0.838797  0  0  0.436068  0  0.83168  0  0  0.342418  0.42256  0  0.844663  0
H  H19  1  0.09209523  0.79834883  0.83715975  1  0  0.441101  0  0.795887  0  0  0.428161  0  0.838773  0  0  0.436091  0  0.831658  0  0  0.342427  0.422586  0  0.84464  0
H  H20  1  0.87795052  0.14759113  0.02170222  1  0  0.454556  0  0.836146  0  0  0.421787  0  0.900229  0  0  0.434266  0  0.882246  0  0  0.306179  0.413139  0  0.91276  0
H  H21  1  0.12204397  0.85240170  0.97829701  1  0  0.454499  0  0.836247  0  0  0.421815  0  0.900201  0  0  0.434295  0  0.882216  0  0  0.306187  0.413166  0  0.912732  0
H  H22  1  0.31263971  0.67924422  0.00061749  1  0  0.438912  0  0.856489  0  0  0.408766  0  0.919979  0  0  0.42002  0  0.903676  0  0  0.302484  0.401083  0  0.931195  0
H  H23  1  0.68736356  0.32075372  0.99938246  1  0  0.438882  0  0.856572  0  0  0.408737  0  0.920035  0  0  0.419991  0  0.90373  0  0  0.302473  0.401054  0  0.93125  0
H  H24  1  0.15931556  0.64431497  0.94228455  1  0  0.433129  0  0.866569  0  0  0.402988  0  0.930201  0  0  0.413923  0  0.914437  0  0  0.305038  0.395078  0  0.941995  0
H  H25  1  0.84068798  0.35568710  0.05771940  1  0  0.433195  0  0.866504  0  0  0.403054  0  0.930113  0  0  0.41399  0  0.91435  0  0  0.305102  0.395143  0  0.941909  0
H  H26  1  0.56983973  0.33402379  0.23582618  1  0  0.115147  0  0.929495  0  0  0.121668  0  0.99209  0  0  0.125066  0  0.988438  0  0  0.136731  0.119212  0  0.994471  0
H  H27  1  0.43015969  0.66598140  0.76418065  1  0  0.115195  0  0.929332  0  0  0.121665  0  0.991978  0  0  0.125065  0  0.988325  0  0  0.136716  0.119218  0  0.994346  0
H  H28  1  0.65474624  0.44303646  0.62219465  1  0  0.120093  0  0.924244  0  0  0.129914  0  0.981869  0  0  0.132972  0  0.978824  0  0  0.126113  0.127672  0  0.98395  0
H  H29  1  0.34525755  0.55697590  0.37781211  1  0  0.120129  0  0.924178  0  0  0.129942  0  0.981807  0  0  0.132996  0  0.978766  0  0  0.126111  0.127695  0  0.983886  0
H  H30  1  0.48783825  0.30190437  0.44574319  1  0  0.133339  0  0.931261  0  0  0.139799  0  0.990394  0  0  0.143664  0  0.989128  0  0  0.123151  0.136975  0  0.991554  0
H  H31  1  0.51216250  0.69810492  0.55426408  1  0  0.133339  0  0.931358  0  0  0.139792  0  0.9905  0  0  0.143657  0  0.989233  0  0  0.12314  0.136967  0  0.991659  0
C  C32  1  0.20532683  0.09093156  0.09292821  1  0  0.555714  0  3.940629  0  0  0.511192  0  4.239394  0  0  0.540735  0  4.235513  0  0  0.211659  0.490958  0  4.245023  0
C  C33  1  0.79467002  0.90906229  0.90707118  1  0  0.555726  0  3.940853  0  0  0.511169  0  4.239605  0  0  0.540714  0  4.235722  0  0  0.211706  0.490936  0  4.245233  0
C  C34  1  0.24525449  0.17787540  0.21903230  1  0  0.557197  0  3.959302  0  0  0.515612  0  4.25878  0  0  0.545256  0  4.254338  0  0  0.20885  0.495251  0  4.264897  0
C  C35  1  0.75473893  0.82212053  0.78096989  1  0  0.557256  0  3.959075  0  0  0.51578  0  4.258409  0  0  0.545428  0  4.253954  0  0  0.208959  0.49542  0  4.26453  0
C  C36  1  0.42614054  0.95910053  0.52230243  1  0  0.560012  0  3.944678  0  0  0.519356  0  4.241716  0  0  0.549002  0  4.234488  0  0  0.208701  0.499154  0  4.246969  0
C  C37  1  0.57386162  0.04089747  0.47770556  1  0  0.560168  0  3.944492  0  0  0.519471  0  4.241565  0  0  0.549116  0  4.234338  0  0  0.208801  0.499269  0  4.246817  0
C  C38  1  0.52408241  0.07776369  0.02370795  1  0  0.566329  0  3.929688  0  0  0.518924  0  4.231839  0  0  0.549069  0  4.223458  0  0  0.215035  0.498156  0  4.238104  0
C  C39  1  0.47592701  0.92224033  0.97628379  1  0  0.566379  0  3.929676  0  0  0.519047  0  4.231726  0  0  0.549189  0  4.223344  0  0  0.215057  0.498274  0  4.237999  0
C  C40  1  0.98996173  0.66180117  0.35987928  1  0  -0.53926  0  3.667627  0  0  -0.560417  0  3.90966  0  0  -0.570163  0  3.912728  0  0  -0.155502  -0.553269  0  3.906373  0
C  C41  1  0.01003986  0.33820086  0.64011745  1  0  -0.539339  0  3.667644  0  0  -0.560431  0  3.909721  0  0  -0.570188  0  3.912805  0  0  -0.155464  -0.553279  0  3.90644  0
C  C42  1  0.85299576  0.56180468  0.38864264  1  0  0.346346  0  3.65534  0  0  0.33352  0  3.903593  0  0  0.345212  0  3.922575  0  0  0.150757  0.325637  0  3.890191  0
C  C43  1  0.14700441  0.43820249  0.61135546  1  0  0.346451  0  3.65527  0  0  0.333549  0  3.903593  0  0  0.345244  0  3.922577  0  0  0.150773  0.325661  0  3.890197  0
C  C44  1  0.81448035  0.54488441  0.50689747  1  0  -0.164284  0  3.647528  0  0  -0.183302  0  3.901933  0  0  -0.193362  0  3.921927  0  0  -0.067782  -0.17683  0  3.888302  0
C  C45  1  0.18552320  0.45512379  0.49310170  1  0  -0.164359  0  3.647369  0  0  -0.183323  0  3.901791  0  0  -0.193393  0  3.92178  0  0  -0.067791  -0.17685  0  3.888162  0
C  C46  1  0.63201332  0.39340512  0.31642391  1  0  0.174343  0  3.563805  0  0  0.130673  0  3.820142  0  0  0.140475  0  3.83394  0  0  0.08016  0.124268  0  3.810588  0
C  C47  1  0.36798647  0.60660106  0.68357945  1  0  0.174225  0  3.56375  0  0  0.130625  0  3.820039  0  0  0.140426  0  3.833836  0  0  0.080088  0.124216  0  3.810487  0
C  C48  1  0.68327057  0.45335939  0.52918723  1  0  0.050859  0  3.639438  0  0  0.027425  0  3.89498  0  0  0.035031  0  3.910345  0  0  -0.035803  0.022735  0  3.884516  0
C  C49  1  0.31673022  0.54664988  0.47081645  1  0  0.050841  0  3.639308  0  0  0.02741  0  3.894872  0  0  0.035015  0  3.91024  0  0  -0.03578  0.022725  0  3.884403  0
C  C50  1  0.48507224  0.45580284  0.93744431  1  0  0.557325  0  3.924035  0  0  0.513317  0  4.222087  0  0  0.542805  0  4.220792  0  0  0.215219  0.493415  0  4.226952  0
C  C51  1  0.51492097  0.54418586  0.06255089  1  0  0.557288  0  3.924073  0  0  0.513339  0  4.22206  0  0  0.542827  0  4.220768  0  0  0.215252  0.493434  0  4.226925  0
C  C52  1  0.59046898  0.37595206  0.43274471  1  0  -0.10565  0  3.67869  0  0  -0.121394  0  3.939683  0  0  -0.130762  0  3.961336  0  0  -0.062996  -0.11542  0  3.925275  0
C  C53  1  0.40953079  0.62405721  0.56725896  1  0  -0.105618  0  3.678816  0  0  -0.121371  0  3.939794  0  0  -0.130737  0  3.961446  0  0  -0.062956  -0.11539  0  3.925374  0
N  N54  1  0.75895332  0.48472825  0.29808019  1  0  -0.258933  0  3.410163  0  0  -0.18636  0  3.623783  0  0  -0.20255  0  3.637384  0  0  -0.332189  -0.175373  0  3.61421  0
N  N55  1  0.24104413  0.51527689  0.70192032  1  0  -0.258991  0  3.410108  0  0  -0.186381  0  3.623742  0  0  -0.202569  0  3.637341  0  0  -0.332144  -0.175396  0  3.61418  0
O  O56  1  0.17208890  0.14770317  0.00790426  1  0  -0.637922  0  2.023287  0  0  -0.597404  0  2.263581  0  0  -0.628725  0  2.250419  0  0  -0.367583  -0.583113  0  2.270586  0
O  O57  1  0.82791943  0.85229476  0.99209761  1  0  -0.637924  0  2.023163  0  0  -0.597412  0  2.263461  0  0  -0.62873  0  2.250298  0  0  -0.36762  -0.58312  0  2.270465  0
O  O58  1  0.22668634  0.29482127  0.22790576  1  0  -0.668064  0  2.044545  0  0  -0.625764  0  2.294406  0  0  -0.659629  0  2.283565  0  0  -0.373634  -0.609625  0  2.299711  0
O  O59  1  0.77330336  0.70516649  0.77210002  1  0  -0.668089  0  2.044465  0  0  -0.625834  0  2.294272  0  0  -0.659702  0  2.283431  0  0  -0.373628  -0.609691  0  2.299579  0
O  O60  1  0.21192060  0.96874718  0.08651284  1  0  -0.667135  0  2.113886  0  0  -0.610173  0  2.346547  0  0  -0.636675  0  2.336503  0  0  -0.339967  -0.592249  0  2.351771  0
O  O61  1  0.78807392  0.03124257  0.91348608  1  0  -0.667174  0  2.114309  0  0  -0.610162  0  2.346981  0  0  -0.63667  0  2.336939  0  0  -0.33998  -0.59224  0  2.352204  0
O  O62  1  0.29370865  0.12612130  0.30120234  1  0  -0.663214  0  2.015139  0  0  -0.618638  0  2.253798  0  0  -0.642683  0  2.242332  0  0  -0.378837  -0.602872  0  2.260101  0
O  O63  1  0.70627906  0.87386338  0.69880219  1  0  -0.663234  0  2.0151  0  0  -0.618677  0  2.253704  0  0  -0.642726  0  2.242227  0  0  -0.378938  -0.602914  0  2.260012  0
O  O64  1  0.20653015  0.74351315  0.21927854  1  0  -0.965432  0  2.044603  0  0  -0.888651  0  2.331691  0  0  -0.917358  0  2.309128  0  0  -0.509551  -0.869649  0  2.345348  0
O  O65  1  0.79347489  0.25647757  0.78071806  1  0  -0.965559  0  2.044744  0  0  -0.888697  0  2.331777  0  0  -0.91741  0  2.30921  0  0  -0.509572  -0.869672  0  2.345397  0
O  O66  1  0.32391284  0.91004529  0.44364367  1  0  -0.651842  0  2.034469  0  0  -0.60814  0  2.275232  0  0  -0.632344  0  2.26427  0  0  -0.385377  -0.592137  0  2.281225  0
O  O67  1  0.67609316  0.08995161  0.55635535  1  0  -0.651829  0  2.034577  0  0  -0.608108  0  2.275359  0  0  -0.632316  0  2.264394  0  0  -0.385377  -0.592107  0  2.281349  0
O  O68  1  0.50310805  0.77163273  0.28205021  1  0  -0.88007  0  1.840182  0  0  -0.836005  0  2.026464  0  0  -0.855875  0  1.996686  0  0  -0.616043  -0.822916  0  2.04544  0
O  O69  1  0.49689315  0.22836830  0.71795089  1  0  -0.880083  0  1.84017  0  0  -0.836017  0  2.026494  0  0  -0.855891  0  1.996714  0  0  -0.616029  -0.822927  0  2.045469  0
O  O70  1  0.57950658  0.05277269  0.36601677  1  0  -0.673315  0  2.039993  0  0  -0.630602  0  2.283644  0  0  -0.655275  0  2.272558  0  0  -0.397315  -0.614849  0  2.290545  0
O  O71  1  0.42049658  0.94723146  0.63398917  1  0  -0.673232  0  2.040292  0  0  -0.630513  0  2.283924  0  0  -0.655193  0  2.272837  0  0  -0.397271  -0.614762  0  2.290826  0
O  O72  1  0.51609419  0.11139605  0.13483544  1  0  -0.65027  0  2.069203  0  0  -0.604775  0  2.316408  0  0  -0.629441  0  2.306694  0  0  -0.360693  -0.588897  0  2.322359  0
O  O73  1  0.48390840  0.88860904  0.86515982  1  0  -0.650292  0  2.069434  0  0  -0.604798  0  2.316601  0  0  -0.629475  0  2.306899  0  0  -0.360726  -0.588926  0  2.322563  0
O  O74  1  0.43226446  0.84051585  0.05421598  1  0  -0.666228  0  2.118632  0  0  -0.609561  0  2.360337  0  0  -0.635438  0  2.350012  0  0  -0.359949  -0.592702  0  2.36623  0
O  O75  1  0.56774897  0.15948820  0.94578214  1  0  -0.666184  0  2.118787  0  0  -0.609531  0  2.360553  0  0  -0.635417  0  2.350232  0  0  -0.359974  -0.592675  0  2.366442  0
O  O76  1  0.07329809  0.48913769  0.19014541  1  0  -0.979121  0  1.945306  0  0  -0.906802  0  2.224627  0  0  -0.94566  0  2.200614  0  0  -0.492838  -0.888504  0  2.238836  0
O  O77  1  0.92669035  0.51085512  0.80984919  1  0  -0.979046  0  1.945217  0  0  -0.90673  0  2.224551  0  0  -0.945584  0  2.200542  0  0  -0.492824  -0.888428  0  2.23876  0
O  O78  1  0.95307912  0.65566778  0.12129101  1  0  -0.977784  0  1.983395  0  0  -0.90017  0  2.261651  0  0  -0.939879  0  2.235496  0  0  -0.503595  -0.88131  0  2.275775  0
O  O79  1  0.04692138  0.34433737  0.87871047  1  0  -0.977812  0  1.983302  0  0  -0.900231  0  2.26162  0  0  -0.939945  0  2.235452  0  0  -0.503609  -0.881372  0  2.275744  0
O  O80  1  0.35956806  0.37753586  0.91142979  1  0  -0.648309  0  2.045207  0  0  -0.605721  0  2.290882  0  0  -0.637863  0  2.279519  0  0  -0.356448  -0.590365  0  2.296201  0
O  O81  1  0.64042379  0.62245488  0.08856379  1  0  -0.64834  0  2.045079  0  0  -0.605767  0  2.290726  0  0  -0.637908  0  2.279365  0  0  -0.35645  -0.590414  0  2.296045  0
O  O82  1  0.92739172  0.22977684  0.08306835  1  0  -0.878347  0  1.899303  0  0  -0.82464  0  2.090618  0  0  -0.853505  0  2.057546  0  0  -0.590342  -0.810651  0  2.110688  0
O  O83  1  0.07260686  0.77021597  0.91692919  1  0  -0.878336  0  1.89936  0  0  -0.824693  0  2.090585  0  0  -0.85356  0  2.057514  0  0  -0.590357  -0.810702  0  2.110659  0
O  O84  1  0.40863445  0.53042511  0.12933263  1  0  -0.669818  0  2.070998  0  0  -0.614225  0  2.31066  0  0  -0.649044  0  2.300355  0  0  -0.345335  -0.596803  0  2.315491  0
O  O85  1  0.59136178  0.46956667  0.87066385  1  0  -0.669884  0  2.070872  0  0  -0.614289  0  2.310594  0  0  -0.649111  0  2.30029  0  0  -0.345317  -0.596867  0  2.315424  0
O  O86  1  0.23222773  0.59985300  0.96195250  1  0  -0.923299  0  1.924713  0  0  -0.875533  0  2.123768  0  0  -0.904708  0  2.087638  0  0  -0.616543  -0.861766  0  2.146035  0
O  O87  1  0.76777416  0.40014700  0.03804851  1  0  -0.923332  0  1.924719  0  0  -0.87556  0  2.1238  0  0  -0.904731  0  2.087664  0  0  -0.616603  -0.861805  0  2.146086  0
