# generated using pymatgen
data_Co3H104C134(N4O)6
_symmetry_space_group_name_H-M   'P 1'
_cell_length_a   9.38278644
_cell_length_b   19.04645824
_cell_length_c   19.04387967
_cell_angle_alpha   117.36484060
_cell_angle_beta   99.44509029
_cell_angle_gamma   99.43885504
_symmetry_Int_Tables_number   1
_chemical_formula_structural   Co3H104C134(N4O)6
_chemical_formula_sum   'Co3 H104 C134 N24 O6'
_cell_volume   2867.98888148
_cell_formula_units_Z   1
loop_
 _symmetry_equiv_pos_site_id
 _symmetry_equiv_pos_as_xyz
  1  'x, y, z'
loop_
 _atom_site_type_symbol
 _atom_site_label
 _atom_site_symmetry_multiplicity
 _atom_site_fract_x
 _atom_site_fract_y
 _atom_site_fract_z
 _atom_site_occupancy
 _atom_site_pbe_bader_charge
 _atom_site_pbe_bader_spin_density
 _atom_site_pbe_cm5_charge
 _atom_site_pbe_ddec_charge
 _atom_site_pbe_ddec_spin_density
 _atom_site_pbe_ddec_sum_bond_order
 _atom_site_pbe_magmom
Co  Co0  1  0.50000071  0.99999996  0.49999949  1  1.115594  1.00488  0.668666  0.48853  1.100068  3.075202  0.997
Co  Co1  1  0.99999894  0.49999811  0.49999925  1  1.11348  1.00719  0.667525  0.487323  1.102227  3.07246  0.999
Co  Co2  1  0.50000018  0.50000159  0.99999820  1  1.113417  1.006735  0.668274  0.490495  1.102232  3.071176  0.998
H  H3  1  0.97921193  0.23090479  0.57208211  1  0.076018  7.1e-05  0.102765  0.122892  4.4e-05  1.015083  0.0
H  H4  1  0.40723141  0.42798655  0.65904846  1  0.084578  7.1e-05  0.102304  0.121582  4.1e-05  1.016071  0.0
H  H5  1  0.74836522  0.34096291  0.76886167  1  0.089528  7.7e-05  0.102701  0.122605  4.3e-05  1.014937  0.0
H  H6  1  0.02079019  0.76909370  0.42791558  1  0.076155  7e-05  0.102756  0.122889  4.4e-05  1.015115  0.0
H  H7  1  0.59276102  0.57200764  0.34095016  1  0.084388  7.1e-05  0.102301  0.121616  4.1e-05  1.016095  0.0
H  H8  1  0.25163597  0.65903805  0.23113551  1  0.089564  7.7e-05  0.102721  0.122592  4.3e-05  1.014956  0.0
H  H9  1  0.07710161  0.14464959  0.64081068  1  0.068955  3.7e-05  0.098937  0.112949  -6e-06  1.055186  0.0
H  H10  1  0.43653811  0.35917218  0.50407306  1  0.095301  5.5e-05  0.098604  0.113173  -3e-06  1.055016  0.0
H  H11  1  0.93228961  0.49596438  0.85504383  1  0.075879  5e-05  0.098337  0.112016  -4e-06  1.05609  0.0
H  H12  1  0.92290097  0.85535198  0.35918952  1  0.068974  3.7e-05  0.098916  0.112914  -6e-06  1.055273  0.0
H  H13  1  0.56345955  0.64082386  0.49592629  1  0.095341  5.5e-05  0.098591  0.113172  -3e-06  1.054943  0.0
H  H14  1  0.06771265  0.50403658  0.14495343  1  0.075824  5e-05  0.098309  0.111893  -4e-06  1.056104  0.0
H  H15  1  0.10715225  0.98444993  0.56689627  1  0.091235  -8.3e-05  0.099879  0.112971  -0.00013  1.043223  0.0
H  H16  1  0.54066575  0.43305155  0.41766888  1  0.089137  -8.3e-05  0.10013  0.112356  -0.000131  1.043467  0.0
H  H17  1  0.12248938  0.58219201  0.01518986  1  0.092639  -8.1e-05  0.100059  0.112462  -0.000127  1.043212  0.0
H  H18  1  0.89284755  0.01555471  0.43310564  1  0.091216  -8.3e-05  0.099847  0.112944  -0.00013  1.04323  0.0
H  H19  1  0.45933763  0.56694511  0.58233068  1  0.08904  -8.3e-05  0.100093  0.112302  -0.000131  1.043488  0.0
H  H20  1  0.87750565  0.41780526  0.98480827  1  0.092679  -8.1e-05  0.100097  0.112516  -0.000127  1.043164  0.0
H  H21  1  0.33786638  0.98881340  0.65582116  1  0.08342  -9.7e-05  0.107312  0.077399  -0.000135  1.020281  0.0
H  H22  1  0.68248985  0.34413659  0.33312023  1  0.068205  -9.8e-05  0.107763  0.077594  -0.000137  1.019927  0.0
H  H23  1  0.34892527  0.66682005  0.01103380  1  0.075663  -0.000101  0.108101  0.078318  -0.00014  1.019695  0.0
H  H24  1  0.66213250  0.01118940  0.34417930  1  0.083376  -9.7e-05  0.107299  0.0774  -0.000135  1.02025  0.0
H  H25  1  0.31751122  0.65585761  0.66687907  1  0.068395  -9.8e-05  0.107763  0.077517  -0.000137  1.019938  0.0
H  H26  1  0.65107673  0.33318029  0.98897208  1  0.07579  -0.000101  0.108095  0.078288  -0.00014  1.019723  0.0
H  H27  1  0.15490924  0.05156584  0.85321251  1  0.114822  -1.7e-05  0.116097  0.090729  -1.3e-05  1.003861  0.0
H  H28  1  0.30227353  0.14683655  0.19831738  1  0.140153  -1.6e-05  0.116074  0.090327  -1.3e-05  1.004162  0.0
H  H29  1  0.10353145  0.80171824  0.94859127  1  0.111985  -1.7e-05  0.115618  0.089713  -1.3e-05  1.003969  0.0
H  H30  1  0.84509057  0.94843450  0.14678847  1  0.114848  -1.7e-05  0.116111  0.090731  -1.3e-05  1.003823  0.0
H  H31  1  0.69772025  0.85316257  0.80167940  1  0.139419  -1.6e-05  0.116112  0.090385  -1.3e-05  1.004123  0.0
H  H32  1  0.89647638  0.19828087  0.05140874  1  0.111801  -1.7e-05  0.115639  0.089685  -1.3e-05  1.003952  0.0
H  H33  1  0.91573922  0.04931271  0.77187474  1  0.078816  0.0  0.103138  0.108324  -1e-05  1.047224  0.0
H  H34  1  0.14441286  0.22810337  0.27745394  1  0.073409  -0.0  0.101347  0.105679  -1e-05  1.048732  0.0
H  H35  1  0.86653625  0.72262610  0.95072432  1  0.078259  -0.0  0.101326  0.10645  -1e-05  1.049523  0.0
H  H36  1  0.08426121  0.95068886  0.22812738  1  0.079046  0.0  0.103134  0.108335  -1e-05  1.047212  0.0
H  H37  1  0.85558479  0.77189697  0.72254424  1  0.07366  -0.0  0.101354  0.105697  -1e-05  1.048754  0.0
H  H38  1  0.13346711  0.27737485  0.04927565  1  0.078298  -0.0  0.101321  0.106422  -1e-05  1.049584  0.0
H  H39  1  0.81831930  0.88403444  0.65403324  1  0.08011  4.1e-05  0.104755  0.12276  4e-06  1.018733  0.0
H  H40  1  0.16452753  0.34588493  0.23006167  1  0.079155  3.7e-05  0.105066  0.123178  2e-06  1.018962  0.0
H  H41  1  0.93446001  0.76973716  0.11587387  1  0.080751  3.9e-05  0.104776  0.123517  3e-06  1.01817  0.0
H  H42  1  0.18168530  0.11596897  0.34596953  1  0.080143  4.1e-05  0.104778  0.122815  4e-06  1.018687  0.0
H  H43  1  0.83547429  0.65411726  0.76993980  1  0.079142  3.7e-05  0.105056  0.123166  2e-06  1.018969  0.0
H  H44  1  0.06554164  0.23026257  0.88412330  1  0.080723  3.9e-05  0.104785  0.123529  3e-06  1.018186  0.0
H  H45  1  0.53509226  0.78774919  0.59951020  1  0.071455  1e-05  0.100698  0.11718  -2e-06  1.04527  0.0
H  H46  1  0.93597912  0.40058508  0.18834435  1  0.080347  8e-06  0.100674  0.116931  -4e-06  1.045583  0.0
H  H47  1  0.74766961  0.81162831  0.21231432  1  0.089018  1.3e-05  0.101563  0.118657  -2e-06  1.043514  0.0
H  H48  1  0.46491326  0.21225606  0.40049665  1  0.071594  1e-05  0.10069  0.117191  -1e-06  1.045202  0.0
H  H49  1  0.06402147  0.59941464  0.81165588  1  0.080344  8e-06  0.10067  0.116919  -4e-06  1.045602  0.0
H  H50  1  0.25233715  0.18837080  0.78768560  1  0.088758  1.3e-05  0.101576  0.118695  -2e-06  1.043472  0.0
H  H51  1  0.74956822  0.44275787  0.57048739  1  0.094459  0.002007  0.114192  0.082846  0.000647  1.018496  0.001
H  H52  1  0.17873045  0.42962795  0.87247406  1  0.097606  0.002016  0.114839  0.083671  0.000647  1.018747  0.001
H  H53  1  0.30635999  0.12743246  0.55700648  1  0.120078  0.001977  0.114608  0.083599  0.00063  1.018724  0.001
H  H54  1  0.25043283  0.55724062  0.42951231  1  0.094405  0.002007  0.11417  0.082819  0.000647  1.018493  0.001
H  H55  1  0.82126984  0.57037116  0.12752692  1  0.097543  0.002016  0.114857  0.083703  0.000647  1.018657  0.001
H  H56  1  0.69364334  0.87257280  0.44299180  1  0.120151  0.001977  0.114554  0.083582  0.00063  1.018735  0.001
H  H57  1  0.63704525  0.31806448  0.57702466  1  0.085118  0.001253  0.109649  0.122489  0.000512  0.988763  0.001
H  H58  1  0.05950003  0.42316523  0.74129090  1  0.067716  0.001274  0.108561  0.120903  0.000515  0.988431  0.001
H  H59  1  0.31837675  0.25868970  0.68166981  1  0.075363  0.001291  0.108257  0.119924  0.000524  0.987771  0.001
H  H60  1  0.36295611  0.68193463  0.42297641  1  0.085125  0.001253  0.109661  0.122496  0.000512  0.988768  0.001
H  H61  1  0.94049826  0.57683203  0.25871012  1  0.06769  0.001274  0.108551  0.12085  0.000515  0.988496  0.001
H  H62  1  0.68163014  0.74131617  0.31832956  1  0.075413  0.00129  0.108264  0.119946  0.000524  0.98772  0.001
H  H63  1  0.85312385  0.18214567  0.39510056  1  0.116724  0.001034  0.110093  0.122896  0.000422  0.995987  0.0
H  H64  1  0.45779343  0.60456297  0.78690484  1  0.07624  0.001051  0.109896  0.121462  0.000422  0.996378  0.0
H  H65  1  0.67079436  0.21298109  0.81759134  1  0.079598  0.001048  0.109965  0.122845  0.00042  0.99523  0.0
H  H66  1  0.14687582  0.81785221  0.60489981  1  0.116758  0.001034  0.110105  0.12292  0.000422  0.995953  0.0
H  H67  1  0.54220284  0.39543245  0.21309150  1  0.076172  0.001051  0.109873  0.121441  0.000422  0.996343  0.0
H  H68  1  0.32919990  0.78701679  0.18240754  1  0.080398  0.001048  0.109997  0.122875  0.00042  0.995193  0.0
H  H69  1  0.95906438  0.31275834  0.39708219  1  0.086674  0.001878  0.114538  0.07738  0.00054  1.035979  0.001
H  H70  1  0.56187115  0.60255667  0.91550999  1  0.088373  0.001893  0.115049  0.078333  0.00054  1.03602  0.001
H  H71  1  0.64628927  0.08434688  0.68701234  1  0.082199  0.001923  0.114347  0.077054  0.000556  1.034273  0.001
H  H72  1  0.04093497  0.68723893  0.60291629  1  0.08662  0.001877  0.114569  0.077452  0.00054  1.035987  0.001
H  H73  1  0.43812805  0.39744244  0.08448880  1  0.088431  0.001893  0.115024  0.078279  0.00054  1.036063  0.001
H  H74  1  0.35370867  0.91565408  0.31298457  1  0.08214  0.001923  0.114345  0.077076  0.000556  1.034259  0.001
H  H75  1  0.40998035  0.00002606  0.00009307  1  0.024703  0.0  0.098629  -0.052637  -0.0  1.113083  0.0
H  H76  1  0.59002054  0.99997428  0.99990800  1  0.025424  0.0  0.098631  -0.052635  -0.0  1.113104  0.0
H  H77  1  0.42648300  0.15836859  0.10344037  1  0.077549  -3e-06  0.092887  0.051028  -1e-06  1.032516  0.0
H  H78  1  0.32286367  0.89665164  0.05502556  1  0.043068  -3e-06  0.092424  0.050812  -2e-06  1.032443  0.0
H  H79  1  0.26788532  0.94514855  0.84170790  1  0.060201  -4e-06  0.092147  0.050757  -2e-06  1.033263  0.0
H  H80  1  0.57351542  0.84163114  0.89655864  1  0.077528  -3e-06  0.09288  0.051032  -1e-06  1.032523  0.0
H  H81  1  0.67714139  0.10335055  0.94497616  1  0.04311  -3e-06  0.09241  0.050762  -2e-06  1.03242  0.0
H  H82  1  0.73211589  0.05485240  0.15829505  1  0.06016  -4e-06  0.092189  0.050812  -2e-06  1.033227  0.0
H  H83  1  0.49312772  0.11678812  0.01440905  1  0.03342  -1e-06  0.093454  0.04643  -0.0  1.030259  0.0
H  H84  1  0.47859299  0.98559712  0.10240428  1  0.050673  -1e-06  0.093533  0.045001  -0.0  1.031534  0.0
H  H85  1  0.37632674  0.89775801  0.88323498  1  0.047502  -1e-06  0.09415  0.047503  -0.0  1.0291  0.0
H  H86  1  0.50686854  0.88321161  0.98558927  1  0.0334  -1e-06  0.093443  0.046415  -0.0  1.030273  0.0
H  H87  1  0.52141021  0.01440568  0.89759758  1  0.050723  -1e-06  0.093534  0.04502  -0.0  1.031538  0.0
H  H88  1  0.62367354  0.10224110  0.11676653  1  0.047641  -1e-06  0.094155  0.04751  -0.0  1.029119  0.0
H  H89  1  0.33679107  0.18381778  0.95542814  1  0.014447  -5.6e-05  0.087506  0.125406  -6.5e-05  1.016591  0.0
H  H90  1  0.38158226  0.04465442  0.22856581  1  0.062387  -5.5e-05  0.087073  0.125059  -6.5e-05  1.017596  0.0
H  H91  1  0.15322781  0.77164936  0.81620175  1  0.017106  -5.6e-05  0.087514  0.125235  -6.5e-05  1.016106  0.0
H  H92  1  0.66320303  0.81618194  0.04457158  1  0.014454  -5.6e-05  0.087528  0.125462  -6.5e-05  1.016485  0.0
H  H93  1  0.61841986  0.95534838  0.77143544  1  0.062455  -5.5e-05  0.087045  0.125027  -6.5e-05  1.017532  0.0
H  H94  1  0.84676923  0.22834975  0.18379792  1  0.017176  -5.6e-05  0.08752  0.125231  -6.5e-05  1.016127  0.0
H  H95  1  0.48016984  0.25339427  0.04757984  1  0.041283  2.6e-05  0.087975  0.121577  1.8e-05  1.037025  0.0
H  H96  1  0.43282693  0.95247375  0.20584776  1  0.050741  2.7e-05  0.088503  0.121845  1.8e-05  1.037328  0.0
H  H97  1  0.22709300  0.79431441  0.74669060  1  0.033394  2.6e-05  0.08796  0.120913  1.8e-05  1.036639  0.0
H  H98  1  0.51982534  0.74660545  0.95241944  1  0.041454  2.6e-05  0.087986  0.121611  1.8e-05  1.037061  0.0
H  H99  1  0.56717627  0.04752905  0.79415462  1  0.050676  2.7e-05  0.088482  0.121813  1.8e-05  1.037311  0.0
H  H100  1  0.77290712  0.20568654  0.25331016  1  0.03339  2.6e-05  0.087964  0.12091  1.8e-05  1.03664  0.0
H  H101  1  0.28913064  0.23169615  0.05029879  1  0.010486  1.1e-05  0.080156  0.106969  5e-06  1.04292  0.0
H  H102  1  0.23909111  0.94983581  0.18166313  1  0.013317  1.1e-05  0.080937  0.108006  5e-06  1.044325  0.0
H  H103  1  0.05754434  0.81853659  0.76827371  1  0.001572  1.1e-05  0.080773  0.108254  5e-06  1.042647  0.0
H  H104  1  0.71086393  0.76830235  0.94970092  1  0.010519  1.1e-05  0.080156  0.106971  5e-06  1.042921  0.0
H  H105  1  0.76091070  0.05016638  0.81833781  1  0.013292  1.2e-05  0.080924  0.107973  5e-06  1.04438  0.0
H  H106  1  0.94245331  0.18146376  0.23172657  1  0.00152  1.1e-05  0.080757  0.108235  5e-06  1.04267  0.0
C  C107  1  0.75871510  0.13590957  0.52767937  1  0.387002  -0.010604  0.085624  0.171404  -0.011081  4.069747  -0.007
C  C108  1  0.23106000  0.47233668  0.60833393  1  0.417609  -0.010618  0.086447  0.171463  -0.01113  4.070392  -0.007
C  C109  1  0.62266900  0.39162567  0.86386320  1  0.370253  -0.010594  0.08603  0.171857  -0.011044  4.069138  -0.007
C  C110  1  0.24128980  0.86409015  0.47231964  1  0.387383  -0.010605  0.085686  0.171532  -0.011082  4.069665  -0.007
C  C111  1  0.76893490  0.52765813  0.39166464  1  0.417059  -0.010617  0.08647  0.171508  -0.01113  4.070218  -0.007
C  C112  1  0.37733002  0.60837528  0.13613327  1  0.370306  -0.010594  0.085951  0.171752  -0.011044  4.069242  -0.007
C  C113  1  0.91618078  0.17610677  0.56927635  1  -0.123964  -0.005539  -0.110483  -0.190965  -0.005859  4.006378  -0.003
C  C114  1  0.34698994  0.43075952  0.60701744  1  -0.020198  -0.005546  -0.109478  -0.188028  -0.00592  4.004194  -0.003
C  C115  1  0.73996468  0.39297573  0.82363172  1  -0.115673  -0.005555  -0.110887  -0.190716  -0.005871  4.004936  -0.003
C  C116  1  0.08382195  0.82389296  0.43072143  1  -0.12445  -0.005539  -0.110519  -0.191049  -0.005858  4.006459  -0.003
C  C117  1  0.65300418  0.56923590  0.39298135  1  -0.019699  -0.005547  -0.109449  -0.188046  -0.00592  4.004199  -0.003
C  C118  1  0.26003650  0.60702522  0.17636546  1  -0.115768  -0.005555  -0.110913  -0.190728  -0.005871  4.004971  -0.003
C  C119  1  0.96573920  0.13248967  0.60352985  1  0.004163  -0.006574  -0.110429  -0.188169  -0.006976  4.0082  -0.004
C  C120  1  0.36240182  0.39646347  0.52915025  1  -0.138427  -0.00668  -0.111128  -0.190572  -0.007008  4.006312  -0.004
C  C121  1  0.83306869  0.47085376  0.86720108  1  -0.037677  -0.006545  -0.10866  -0.186056  -0.006927  4.007713  -0.004
C  C122  1  0.03426308  0.86751129  0.39646951  1  0.004158  -0.006575  -0.110423  -0.188136  -0.006977  4.008289  -0.004
C  C123  1  0.63759585  0.60353257  0.47084911  1  -0.138435  -0.00668  -0.111166  -0.190663  -0.007008  4.006303  -0.004
C  C124  1  0.16693250  0.52914719  0.13279609  1  -0.037481  -0.006545  -0.108655  -0.185893  -0.006927  4.007716  -0.004
C  C125  1  0.83869861  0.06575763  0.58298850  1  0.370967  -0.009147  0.08333  0.164459  -0.009391  4.063523  -0.006
C  C126  1  0.25593586  0.41698560  0.48288309  1  0.376752  -0.0092  0.083904  0.166189  -0.009447  4.062829  -0.006
C  C127  1  0.77275243  0.51708632  0.93395869  1  0.388652  -0.009148  0.083336  0.164015  -0.009403  4.064339  -0.006
C  C128  1  0.16130181  0.93424394  0.41701047  1  0.370853  -0.009146  0.083274  0.164354  -0.009391  4.063498  -0.006
C  C129  1  0.74406211  0.58301105  0.51711553  1  0.376888  -0.0092  0.083925  0.166225  -0.009447  4.062837  -0.006
C  C130  1  0.22724767  0.48291463  0.06603787  1  0.38903  -0.009148  0.083441  0.164032  -0.009403  4.064533  -0.006
C  C131  1  0.84415523  0.01031215  0.61152212  1  0.016845  -0.006179  -0.0048  -0.084701  -0.006835  3.980438  -0.003
C  C132  1  0.23298957  0.38847640  0.39889815  1  0.020957  -0.006208  -0.004529  -0.085587  -0.00688  3.98266  -0.003
C  C133  1  0.83372828  0.60105168  0.98946455  1  0.022822  -0.006105  -0.006215  -0.084715  -0.00677  3.984484  -0.003
C  C134  1  0.15584766  0.98969004  0.38847943  1  0.016933  -0.00618  -0.004759  -0.084649  -0.006836  3.980576  -0.003
C  C135  1  0.76700932  0.61152210  0.60110086  1  0.02088  -0.006208  -0.004522  -0.085601  -0.006879  3.982648  -0.003
C  C136  1  0.16627152  0.39894866  0.01053275  1  0.021977  -0.006107  -0.006203  -0.084624  -0.006771  3.984468  -0.003
C  C137  1  0.98945871  0.01576644  0.66176439  1  -0.038595  -1.7e-05  0.008336  0.121359  -1.6e-05  3.995949  0.0
C  C138  1  0.32810233  0.33822579  0.35408702  1  -0.048842  -1.9e-05  0.006985  0.118784  -1.6e-05  3.998428  0.0
C  C139  1  0.97356880  0.64584057  0.98400527  1  -0.04741  -1.3e-05  0.008311  0.120866  -1.1e-05  3.998223  0.0
C  C140  1  0.01054402  0.98423759  0.33823800  1  -0.035674  -1.7e-05  0.008318  0.12133  -1.6e-05  3.996057  0.0
C  C141  1  0.67189518  0.66177209  0.64591212  1  -0.0489  -1.9e-05  0.006988  0.118732  -1.6e-05  3.998527  0.0
C  C142  1  0.02643317  0.35415977  0.01599431  1  -0.046943  -1.3e-05  0.008283  0.120774  -1.1e-05  3.998124  0.0
C  C143  1  0.11261302  0.00005577  0.63011347  1  -0.044534  -0.000305  -0.092566  -0.192384  -0.000337  3.944618  0.0
C  C144  1  0.48289764  0.36985713  0.37002471  1  -0.048127  -0.000311  -0.091672  -0.190179  -0.000342  3.944384  0.0
C  C145  1  0.11239908  0.62985955  0.99967791  1  -0.011262  -0.00032  -0.091658  -0.190162  -0.000352  3.944445  0.0
C  C146  1  0.88738817  0.99994949  0.36988883  1  -0.047404  -0.000305  -0.092551  -0.192391  -0.000337  3.944541  0.0
C  C147  1  0.51710358  0.63013953  0.62997469  1  -0.048122  -0.000311  -0.091643  -0.190048  -0.000342  3.944406  0.0
C  C148  1  0.88760012  0.37013956  0.00032246  1  -0.011248  -0.00032  -0.091656  -0.190149  -0.000352  3.944328  0.0
C  C149  1  0.24230249  0.00257320  0.68034149  1  0.505793  -1.7e-05  0.034731  0.081764  -3.9e-05  4.008148  0.0
C  C150  1  0.56241647  0.31964150  0.32230292  1  0.538927  -1.8e-05  0.03389  0.082134  -4e-05  4.009103  0.0
C  C151  1  0.23964411  0.67761897  0.99728445  1  0.471153  -2e-05  0.032721  0.080265  -4.3e-05  4.008895  0.0
C  C152  1  0.75769808  0.99743083  0.31966020  1  0.505833  -1.7e-05  0.034729  0.081792  -3.9e-05  4.008134  0.0
C  C153  1  0.43758413  0.68035392  0.67769638  1  0.538705  -1.8e-05  0.033809  0.082119  -4e-05  4.009058  0.0
C  C154  1  0.76035757  0.32238075  0.00271902  1  0.470869  -2e-05  0.032766  0.080368  -4.3e-05  4.008871  0.0
C  C155  1  0.14111091  0.03704751  0.78939704  1  0.461171  -4.5e-05  0.040377  0.085661  -3.3e-05  3.992266  0.0
C  C156  1  0.35224826  0.21063661  0.24765077  1  0.488442  -4.5e-05  0.041328  0.087214  -3.4e-05  3.98943  0.0
C  C157  1  0.10415627  0.75234761  0.96299798  1  0.473807  -4.6e-05  0.042101  0.090607  -3.5e-05  3.987373  0.0
C  C158  1  0.85889013  0.96295529  0.21060464  1  0.461189  -4.5e-05  0.040383  0.085715  -3.3e-05  3.992199  0.0
C  C159  1  0.64774786  0.78936066  0.75234745  1  0.489208  -4.5e-05  0.041337  0.087242  -3.4e-05  3.989365  0.0
C  C160  1  0.89585003  0.24765273  0.03700299  1  0.47435  -4.6e-05  0.042011  0.090615  -3.5e-05  3.987488  0.0
C  C161  1  0.00707344  0.03556468  0.74386872  1  -0.049954  -0.000316  -0.090257  -0.185972  -0.000323  3.951369  0.0
C  C162  1  0.26370220  0.25614686  0.29172801  1  -0.087197  -0.000313  -0.08791  -0.181415  -0.00032  3.951498  0.0
C  C163  1  0.97153328  0.70826950  0.96438885  1  -0.065288  -0.000295  -0.089231  -0.186448  -0.000302  3.953813  0.0
C  C164  1  0.99292760  0.96443812  0.25613297  1  -0.050137  -0.000316  -0.090257  -0.185986  -0.000323  3.951463  0.0
C  C165  1  0.73629591  0.74385225  0.70827069  1  -0.087433  -0.000313  -0.087931  -0.181461  -0.00032  3.951573  0.0
C  C166  1  0.02847224  0.29173145  0.03561129  1  -0.065451  -0.000295  -0.089245  -0.186447  -0.000302  3.953859  0.0
C  C167  1  0.71625807  0.95073613  0.59659982  1  0.396134  -0.009071  0.083584  0.160635  -0.009311  4.054287  -0.006
C  C168  1  0.12005876  0.40346559  0.35425886  1  0.389232  -0.009172  0.084635  0.161104  -0.009406  4.056773  -0.006
C  C169  1  0.76556570  0.64568477  0.04919885  1  0.37849  -0.009174  0.085602  0.160902  -0.009393  4.058444  -0.006
C  C170  1  0.28374451  0.04926544  0.40340089  1  0.396057  -0.00907  0.083679  0.16083  -0.00931  4.054348  -0.006
C  C171  1  0.87994121  0.59653291  0.64574076  1  0.389216  -0.009172  0.084635  0.161108  -0.009407  4.056819  -0.006
C  C172  1  0.23443271  0.35431495  0.95079911  1  0.378511  -0.009173  0.085525  0.160743  -0.009392  4.058354  -0.006
C  C173  1  0.71924344  0.88885570  0.62012991  1  -0.11896  -0.006695  -0.104615  -0.182736  -0.007047  4.006858  -0.004
C  C174  1  0.09951847  0.37991940  0.26883353  1  -0.080785  -0.006708  -0.105832  -0.183597  -0.007094  4.008062  -0.004
C  C175  1  0.83059261  0.73105778  0.11112349  1  -0.077542  -0.006701  -0.105184  -0.183454  -0.007097  4.005369  -0.004
C  C176  1  0.28075946  0.11114649  0.37987321  1  -0.11881  -0.006695  -0.104645  -0.182882  -0.007047  4.006921  -0.004
C  C177  1  0.90048212  0.62008033  0.73116723  1  -0.080593  -0.006707  -0.105854  -0.183629  -0.007094  4.008048  -0.004
C  C178  1  0.16940874  0.26894134  0.88887443  1  -0.077496  -0.006701  -0.105196  -0.183392  -0.007096  4.005349  -0.004
C  C179  1  0.57627331  0.83986316  0.59209930  1  0.014297  -0.005395  -0.106144  -0.185127  -0.005811  4.000251  -0.003
C  C180  1  0.98464451  0.40801602  0.24787747  1  -0.049439  -0.005505  -0.106431  -0.184706  -0.005875  4.002239  -0.003
C  C181  1  0.73671378  0.75207600  0.16021043  1  -0.042824  -0.005494  -0.107159  -0.186349  -0.005865  3.999465  -0.003
C  C182  1  0.42373021  0.16014025  0.40790549  1  0.013745  -0.005396  -0.106196  -0.185208  -0.005811  4.000293  -0.003
C  C183  1  0.01535577  0.59198309  0.75212299  1  -0.049627  -0.005506  -0.106392  -0.184625  -0.005875  4.002196  -0.003
C  C184  1  0.26328819  0.24792434  0.83978862  1  -0.042582  -0.005493  -0.107175  -0.186441  -0.005864  3.999507  -0.003
C  C185  1  0.48543068  0.87134235  0.55087328  1  0.331268  -0.010777  0.087139  0.171312  -0.011182  4.061367  -0.007
C  C186  1  0.93498795  0.44926204  0.32056741  1  0.382719  -0.010773  0.086417  0.17016  -0.011247  4.063431  -0.007
C  C187  1  0.61436277  0.67944492  0.12879022  1  0.370025  -0.010822  0.086853  0.170512  -0.01128  4.063845  -0.007
C  C188  1  0.51457191  0.12865922  0.44912849  1  0.331575  -0.010776  0.087191  0.171393  -0.011181  4.061266  -0.007
C  C189  1  0.06501141  0.55073523  0.67943212  1  0.382657  -0.010773  0.08642  0.170079  -0.011247  4.06338  -0.007
C  C190  1  0.38563873  0.32055665  0.87120883  1  0.36995  -0.010822  0.086811  0.170474  -0.01128  4.063866  -0.007
C  C191  1  0.77059306  0.38397588  0.53270095  1  0.483679  -0.000939  0.04437  0.093541  -0.001858  3.960701  -0.001
C  C192  1  0.23752408  0.46735398  0.85142375  1  0.49891  -0.000984  0.045009  0.093357  -0.001858  3.958211  -0.001
C  C193  1  0.38620059  0.14850600  0.61579854  1  0.452325  -0.000991  0.045167  0.092986  -0.001936  3.962414  -0.001
C  C194  1  0.22940799  0.61602262  0.46729928  1  0.483682  -0.000941  0.044401  0.093558  -0.001858  3.96053  -0.001
C  C195  1  0.76247481  0.53264451  0.14857631  1  0.498918  -0.000983  0.044995  0.093391  -0.001858  3.958113  -0.001
C  C196  1  0.61380350  0.85149864  0.38419847  1  0.452134  -0.00099  0.045157  0.092845  -0.001935  3.962568  -0.001
C  C197  1  0.70797738  0.31460172  0.53616433  1  -0.021073  0.003774  -0.087931  -0.193747  0.001945  3.95943  0.003
C  C198  1  0.17136641  0.46392986  0.77860628  1  -0.044328  0.003781  -0.086002  -0.189401  0.00195  3.955666  0.003
C  C199  1  0.39287573  0.22135446  0.68516126  1  -0.005168  0.003724  -0.085774  -0.188885  0.001925  3.955242  0.003
C  C200  1  0.29202506  0.68539739  0.46383682  1  -0.020971  0.003774  -0.087896  -0.193626  0.001945  3.959443  0.003
C  C201  1  0.82863157  0.53606679  0.22139285  1  -0.044392  0.003781  -0.085983  -0.189335  0.00195  3.95575  0.003
C  C202  1  0.60712915  0.77864957  0.31483657  1  -0.004871  0.003723  -0.085759  -0.188775  0.001924  3.955207  0.003
C  C203  1  0.66771884  0.16457469  0.48739212  1  0.071965  -0.00616  -0.004694  -0.087195  -0.006964  3.997151  -0.003
C  C204  1  0.18003166  0.51254381  0.67719794  1  0.024595  -0.006289  -0.005762  -0.088632  -0.007044  4.000432  -0.003
C  C205  1  0.50284796  0.32276632  0.83520448  1  0.065843  -0.006232  -0.004885  -0.086803  -0.007042  3.997615  -0.003
C  C206  1  0.33228498  0.83542504  0.51260837  1  0.072132  -0.006158  -0.004712  -0.087183  -0.006961  3.997032  -0.003
C  C207  1  0.81996354  0.48745162  0.32279989  1  0.024327  -0.006289  -0.005708  -0.088628  -0.007044  4.000346  -0.003
C  C208  1  0.49715354  0.67723525  0.16479405  1  0.065843  -0.006232  -0.004849  -0.08676  -0.007041  3.997558  -0.003
C  C209  1  0.73671643  0.23997080  0.48653578  1  -0.062537  -0.003164  0.015775  0.133668  -0.003184  4.007189  -0.002
C  C210  1  0.24977254  0.51342355  0.75349194  1  -0.018263  -0.003177  0.015917  0.131743  -0.0032  4.007199  -0.002
C  C211  1  0.49633484  0.24646453  0.75979237  1  -0.031079  -0.003148  0.014196  0.131347  -0.003174  4.006981  -0.002
C  C212  1  0.26328493  0.76002831  0.51346476  1  -0.062375  -0.003164  0.015751  0.133506  -0.003184  4.007305  -0.002
C  C213  1  0.75022373  0.48657187  0.24650597  1  -0.017653  -0.003176  0.015881  0.131703  -0.003199  4.007193  -0.002
C  C214  1  0.50366696  0.75353766  0.24020647  1  -0.030859  -0.003146  0.014164  0.131291  -0.003172  4.00699  -0.002
C  C215  1  0.82910019  0.23903161  0.43561927  1  -0.039096  0.003736  -0.080246  -0.174629  0.0019  3.925396  0.003
C  C216  1  0.39318094  0.56416729  0.80335543  1  0.061643  0.003624  -0.081068  -0.172343  0.001897  3.923137  0.003
C  C217  1  0.58982668  0.19656086  0.76071748  1  -0.010496  0.003727  -0.079452  -0.1742  0.001913  3.924549  0.003
C  C218  1  0.17090117  0.76096750  0.56438127  1  -0.05677  0.00376  -0.080225  -0.174512  0.0019  3.925236  0.003
C  C219  1  0.60681641  0.43582814  0.19664152  1  0.0596  0.003624  -0.081037  -0.17228  0.001897  3.923063  0.003
C  C220  1  0.41016958  0.80343887  0.23927979  1  -0.01154  0.003727  -0.07946  -0.17413  0.001912  3.924514  0.003
C  C221  1  0.88763218  0.31147886  0.43641474  1  0.514925  -0.001727  0.046795  0.095088  -0.002576  3.955161  -0.001
C  C222  1  0.45098611  0.56336436  0.87500463  1  0.44409  -0.001677  0.047452  0.094381  -0.002596  3.952818  -0.002
C  C223  1  0.57597402  0.12488233  0.68828818  1  0.487741  -0.001607  0.047095  0.096226  -0.002501  3.950592  -0.001
C  C224  1  0.11236718  0.68851840  0.56358427  1  0.532586  -0.001751  0.046784  0.094958  -0.002576  3.95523  -0.001
C  C225  1  0.54901247  0.43663353  0.12499355  1  0.446438  -0.001677  0.047463  0.094427  -0.002595  3.952837  -0.002
C  C226  1  0.42402530  0.87511924  0.31170860  1  0.487745  -0.001606  0.04717  0.096227  -0.002499  3.95067  -0.001
C  C227  1  0.29181654  0.00005190  0.00008349  1  1.500858  1e-06  0.159527  0.448745  1e-06  4.077814  0.0
C  C228  1  0.70818296  0.99994783  0.99991718  1  1.500843  1e-06  0.159495  0.448709  0.0  4.077959  0.0
C  C229  1  0.39815957  0.13694100  0.03713104  1  0.37791  9e-06  -0.078244  0.086429  5e-06  3.912807  0.0
C  C230  1  0.36094194  0.96295436  0.09990392  1  0.391821  9e-06  -0.077763  0.089154  5e-06  3.911398  0.0
C  C231  1  0.26116532  0.90026883  0.86312562  1  0.374087  9e-06  -0.078927  0.084895  5e-06  3.914835  0.0
C  C232  1  0.60183855  0.86305811  0.96286819  1  0.378069  9e-06  -0.078223  0.086462  5e-06  3.912818  0.0
C  C233  1  0.63906203  0.03704783  0.90009772  1  0.391279  9e-06  -0.077784  0.089158  5e-06  3.911424  0.0
C  C234  1  0.73883558  0.09973151  0.13687703  1  0.373951  9e-06  -0.078942  0.08486  5e-06  3.914726  0.0
C  C235  1  0.37350218  0.20529580  0.02141856  1  -0.024282  1e-06  -0.25015  -0.384352  -1.6e-05  3.951775  0.0
C  C236  1  0.35222628  0.97867521  0.18401474  1  -0.077609  0.0  -0.250626  -0.385221  -1.6e-05  3.95411  0.0
C  C237  1  0.16833517  0.81616815  0.79474144  1  -0.003572  0.0  -0.250265  -0.383574  -1.6e-05  3.950162  0.0
C  C238  1  0.62649130  0.79470270  0.97857949  1  -0.024491  1e-06  -0.250185  -0.384468  -1.6e-05  3.951774  0.0
C  C239  1  0.64777662  0.02132698  0.81598628  1  -0.077376  0.0  -0.250565  -0.38513  -1.6e-05  3.954065  0.0
C  C240  1  0.83166357  0.18383219  0.20525946  1  -0.00361  1e-06  -0.250259  -0.383518  -1.6e-05  3.950218  0.0
N  N241  1  0.57136198  0.93985582  0.55450949  1  -1.126675  -0.002376  -0.348098  -0.315397  -0.00261  3.47209  0.0
N  N242  1  0.01723702  0.44560124  0.38546314  1  -1.116243  -0.002558  -0.347622  -0.314732  -0.002765  3.473911  0.0
N  N243  1  0.63161159  0.61454209  0.06017653  1  -1.118599  -0.002502  -0.348623  -0.31607  -0.002728  3.474063  0.0
N  N244  1  0.42863999  0.06014452  0.44549008  1  -1.126665  -0.002375  -0.348103  -0.315367  -0.002609  3.472038  0.0
N  N245  1  0.98276157  0.55439664  0.61453662  1  -1.11617  -0.002558  -0.347577  -0.314651  -0.002766  3.473881  0.0
N  N246  1  0.36838790  0.38545764  0.93982047  1  -1.118515  -0.002504  -0.348561  -0.315968  -0.002729  3.473946  0.0
N  N247  1  0.71191577  0.06818949  0.53608286  1  -1.110298  -0.002451  -0.344133  -0.310446  -0.0025  3.45876  0.001
N  N248  1  0.17597077  0.46391340  0.53217815  1  -1.140219  -0.00243  -0.343224  -0.308819  -0.002472  3.458249  0.001
N  N249  1  0.64359686  0.46776864  0.93159255  1  -1.13614  -0.00241  -0.344866  -0.312383  -0.00247  3.458604  0.001
N  N250  1  0.28808697  0.93181024  0.46391597  1  -1.110266  -0.002452  -0.34413  -0.310443  -0.0025  3.458794  0.001
N  N251  1  0.82402721  0.53608325  0.46782151  1  -1.140275  -0.00243  -0.343283  -0.308833  -0.002472  3.458143  0.001
N  N252  1  0.35640433  0.53223231  0.06840410  1  -1.136239  -0.002409  -0.344876  -0.312368  -0.00247  3.458686  0.001
N  N253  1  0.25824008  0.02029164  0.75856980  1  -1.210085  -0.000202  -0.324718  -0.272467  -0.000188  3.319446  0.0
N  N254  1  0.50018700  0.24144917  0.26174131  1  -1.223655  -0.000209  -0.32679  -0.276092  -0.000195  3.319996  0.0
N  N255  1  0.23799451  0.73823075  0.97971827  1  -1.185286  -0.00019  -0.324999  -0.27493  -0.000174  3.317969  0.0
N  N256  1  0.74175988  0.97971116  0.24143128  1  -1.210175  -0.000202  -0.324697  -0.272499  -0.000188  3.319461  0.0
N  N257  1  0.49980959  0.75854687  0.73825744  1  -1.223527  -0.000209  -0.326742  -0.276064  -0.000194  3.319934  0.0
N  N258  1  0.76200994  0.26177021  0.02028599  1  -1.185423  -0.00019  -0.325004  -0.274994  -0.000174  3.318041  0.0
N  N259  1  0.85967588  0.38301876  0.48393215  1  -1.212083  0.071221  -0.30669  -0.215  0.038012  3.524367  0.062
N  N260  1  0.37548164  0.51597832  0.89913195  1  -1.221633  0.071279  -0.309279  -0.217863  0.038072  3.525135  0.062
N  N261  1  0.47638897  0.10075799  0.61675267  1  -1.200041  0.071273  -0.30889  -0.217489  0.03809  3.529569  0.062
N  N262  1  0.14032379  0.61697912  0.51606768  1  -1.2123  0.071219  -0.306766  -0.215062  0.03801  3.524459  0.062
N  N263  1  0.62451725  0.48402018  0.10086759  1  -1.222001  0.071273  -0.309282  -0.217991  0.03807  3.525115  0.062
N  N264  1  0.52361405  0.89924666  0.38324425  1  -1.200257  0.071273  -0.308913  -0.217527  0.03809  3.529802  0.062
O  O265  1  0.26500897  0.06782684  0.99429783  1  -1.038191  -2e-06  -0.229403  -0.299264  0.0  2.408669  0.0
O  O266  1  0.27069024  0.00584244  0.07364720  1  -1.045127  -2e-06  -0.22947  -0.300464  -0.0  2.407354  0.0
O  O267  1  0.19720893  0.92651201  0.93230102  1  -1.051896  -2e-06  -0.228998  -0.300291  -1e-06  2.411173  0.0
O  O268  1  0.73498915  0.93217227  0.00570193  1  -1.038331  -2e-06  -0.229423  -0.299287  0.0  2.408707  0.0
O  O269  1  0.72931235  0.99415913  0.92635457  1  -1.044841  -2e-06  -0.229407  -0.300408  -0.0  2.407365  0.0
O  O270  1  0.80279136  0.07348710  0.06770048  1  -1.051846  -2e-06  -0.22901  -0.300323  -1e-06  2.411022  0.0
