# generated using pymatgen
data_MoH8C10N2O3
_symmetry_space_group_name_H-M   'P 1'
_cell_length_a   7.33899284
_cell_length_b   8.53748170
_cell_length_c   8.53752641
_cell_angle_alpha   67.29140556
_cell_angle_beta   80.35687322
_cell_angle_gamma   80.35692757
_symmetry_Int_Tables_number   1
_chemical_formula_structural   MoH8C10N2O3
_chemical_formula_sum   'Mo2 H16 C20 N4 O6'
_cell_volume   483.37073507
_cell_formula_units_Z   2
loop_
 _symmetry_equiv_pos_site_id
 _symmetry_equiv_pos_as_xyz
  1  'x, y, z'
loop_
 _atom_site_type_symbol
 _atom_site_label
 _atom_site_symmetry_multiplicity
 _atom_site_fract_x
 _atom_site_fract_y
 _atom_site_fract_z
 _atom_site_occupancy
 _atom_site_pbe_bader_spin_density
 _atom_site_pbe_cm5_charge
 _atom_site_pbe_ddec_charge
 _atom_site_pbe_ddec_spin_density
 _atom_site_pbe_ddec_sum_bond_order
 _atom_site_pbe_magmom
Mo  Mo0  1  0.11295350  0.84253459  0.79336113  1  0  1.535817  2.020415  0  4.824536  0
Mo  Mo1  1  0.61295166  0.79336045  0.84253428  1  0  1.535842  2.020488  0  4.824413  0
H  H2  1  0.99447413  0.24247106  0.69249196  1  0  0.115992  0.084614  0  1.026734  0
H  H3  1  0.49447389  0.69249220  0.24247335  1  0  0.115994  0.084608  0  1.026675  0
H  H4  1  0.89825193  0.47117123  0.82002645  1  0  0.113683  0.119714  0  1.025188  0
H  H5  1  0.39825374  0.82002939  0.47117003  1  0  0.113694  0.11973  0  1.025201  0
H  H6  1  0.88267813  0.38436006  0.13467597  1  0  0.108722  0.104171  0  1.015226  0
H  H7  1  0.38268119  0.13468070  0.38435767  1  0  0.108721  0.104183  0  1.015223  0
H  H8  1  0.96748575  0.07686374  0.31434633  1  0  0.109142  0.128825  0  1.030984  0
H  H9  1  0.46749217  0.31434716  0.07686044  1  0  0.10919  0.128917  0  1.031  0
H  H10  1  0.00240055  0.82130533  0.44683619  1  0  0.111765  0.126911  0  1.033321  0
H  H11  1  0.50240482  0.44683354  0.82130812  1  0  0.111775  0.126915  0  1.033264  0
H  H12  1  0.09017923  0.51394967  0.58801376  1  0  0.10871  0.112541  0  1.029233  0
H  H13  1  0.59017988  0.58800910  0.51395203  1  0  0.108696  0.112531  0  1.029308  0
H  H14  1  0.17812880  0.32896240  0.40921350  1  0  0.107132  0.11488  0  1.02141  0
H  H15  1  0.67813111  0.40921436  0.32896188  1  0  0.107133  0.114885  0  1.021378  0
H  H16  1  0.19602181  0.47613958  0.08869340  1  0  0.116945  0.083616  0  1.02834  0
H  H17  1  0.69602575  0.08869350  0.47613610  1  0  0.116996  0.083662  0  1.028386  0
C  C18  1  0.98530245  0.21328204  0.82942472  1  0  0.049195  0.09682  0  3.940172  0
C  C19  1  0.48530644  0.82942633  0.21327962  1  0  0.049203  0.096889  0  3.94011  0
C  C20  1  0.93230224  0.33827416  0.90026968  1  0  -0.075  -0.105577  0  3.939329  0
C  C21  1  0.43230791  0.90027340  0.33827292  1  0  -0.074995  -0.105579  0  3.939282  0
C  C22  1  0.92368629  0.28861837  0.07675611  1  0  -0.063731  -0.017242  0  3.95055  0
C  C23  1  0.42368745  0.07675800  0.28861718  1  0  -0.063805  -0.017322  0  3.950564  0
C  C24  1  0.96724728  0.11737853  0.17656305  1  0  -0.077553  -0.161009  0  3.909376  0
C  C25  1  0.46725112  0.17656552  0.11737471  1  0  -0.077562  -0.161066  0  3.909297  0
C  C26  1  0.01412357  0.99827511  0.09632845  1  0  0.123066  0.185361  0  3.958469  0
C  C27  1  0.51413173  0.09632484  0.99827448  1  0  0.123046  0.185311  0  3.958413  0
C  C28  1  0.05615190  0.81359799  0.19144192  1  0  0.123139  0.175582  0  3.966152  0
C  C29  1  0.55615662  0.19143960  0.81359647  1  0  0.123135  0.175604  0  3.966327  0
C  C30  1  0.04489368  0.74241289  0.36992699  1  0  -0.070132  -0.136879  0  3.897522  0
C  C31  1  0.54489103  0.36992187  0.74241714  1  0  -0.070125  -0.136856  0  3.897463  0
C  C32  1  0.09195205  0.56751801  0.44982125  1  0  -0.064885  -0.017411  0  3.938684  0
C  C33  1  0.59195134  0.44982143  0.56751867  1  0  -0.064881  -0.017439  0  3.938665  0
C  C34  1  0.14522998  0.46697167  0.35078289  1  0  -0.083873  -0.136328  0  3.961152  0
C  C35  1  0.64523512  0.35078087  0.46697332  1  0  -0.083869  -0.136325  0  3.961182  0
C  C36  1  0.15380959  0.54680216  0.17361278  1  0  0.050887  0.106086  0  3.949112  0
C  C37  1  0.65381322  0.17361411  0.54679527  1  0  0.050903  0.106148  0  3.94906  0
N  N38  1  0.02382808  0.04781346  0.92476698  1  0  -0.329058  -0.286357  0  3.495803  0
N  N39  1  0.52383438  0.92476330  0.04781515  1  0  -0.32902  -0.286358  0  3.495841  0
N  N40  1  0.11074366  0.71554714  0.09605726  1  0  -0.325852  -0.284893  0  3.496606  0
N  N41  1  0.61074868  0.09605754  0.71554623  1  0  -0.325936  -0.285055  0  3.496656  0
O  O42  1  0.06632374  0.99622133  0.59515225  1  0  -0.544924  -0.720571  0  1.712495  0
O  O43  1  0.56631961  0.59515137  0.99622213  1  0  -0.544923  -0.720585  0  1.712522  0
O  O44  1  0.16777315  0.64791869  0.76782089  1  0  -0.533103  -0.689523  0  1.708118  0
O  O45  1  0.66776944  0.76782019  0.64791834  1  0  -0.533086  -0.689503  0  1.708058  0
O  O46  1  0.34762869  0.88607281  0.80776873  1  0  -0.606102  -0.903769  0  2.188301  0
O  O47  1  0.84762837  0.80776521  0.88607131  1  0  -0.606106  -0.90376  0  2.188249  0
