# generated using pymatgen
data_Cd2H22C35(N2O3)3
_symmetry_space_group_name_H-M   'P 1'
_cell_length_a   8.28476853
_cell_length_b   15.48763388
_cell_length_c   25.33121764
_cell_angle_alpha   90.00030476
_cell_angle_beta   89.99951256
_cell_angle_gamma   104.41758648
_symmetry_Int_Tables_number   1
_chemical_formula_structural   Cd2H22C35(N2O3)3
_chemical_formula_sum   'Cd8 H88 C140 N24 O36'
_cell_volume   3147.92361401
_cell_formula_units_Z   4
loop_
 _symmetry_equiv_pos_site_id
 _symmetry_equiv_pos_as_xyz
  1  'x, y, z'
loop_
 _atom_site_type_symbol
 _atom_site_label
 _atom_site_symmetry_multiplicity
 _atom_site_fract_x
 _atom_site_fract_y
 _atom_site_fract_z
 _atom_site_occupancy
 _atom_site_pbe_bader_charge
 _atom_site_pbe_bader_spin_density
 _atom_site_pbe_cm5_charge
 _atom_site_pbe_ddec_charge
 _atom_site_pbe_ddec_spin_density
 _atom_site_pbe_ddec_sum_bond_order
 _atom_site_pbe_magmom
Cd  Cd0  1  0.19046235  0.45001558  0.27988357  1  1.300412  0  0.771927  0.97149  0  2.067741  0
Cd  Cd1  1  0.30953724  0.54998031  0.77988559  1  1.300358  0  0.771926  0.971525  0  2.067654  0
Cd  Cd2  1  0.80953650  0.54998707  0.72011675  1  1.300377  0  0.771938  0.97155  0  2.067633  0
Cd  Cd3  1  0.69046509  0.45001699  0.22011552  1  1.300411  0  0.771935  0.971518  0  2.067655  0
Cd  Cd4  1  0.77180620  0.95172763  0.46917176  1  1.322927  0  0.797843  0.951857  0  2.13858  0
Cd  Cd5  1  0.72819099  0.04827583  0.96917277  1  1.322943  0  0.797853  0.95186  0  2.13852  0
Cd  Cd6  1  0.22819626  0.04827501  0.53082620  1  1.322947  0  0.797808  0.951835  0  2.138527  0
Cd  Cd7  1  0.27180715  0.95172282  0.03082992  1  1.322923  0  0.79782  0.951812  0  2.138556  0
H  H8  1  0.41231501  0.55498884  0.20559407  1  0.634789  0  0.286765  0.38087  0  0.966753  0
H  H9  1  0.08768505  0.44501665  0.70559558  1  0.635129  0  0.286791  0.38091  0  0.966694  0
H  H10  1  0.58768738  0.44501113  0.79440822  1  0.634826  0  0.286765  0.380877  0  0.966751  0
H  H11  1  0.91231557  0.55498466  0.29440672  1  0.634981  0  0.28678  0.380898  0  0.966703  0
H  H12  1  0.23901993  0.56360536  0.18333168  1  0.634512  0  0.2844  0.351318  0  0.999388  0
H  H13  1  0.26097292  0.43639135  0.68333307  1  0.633581  0  0.284428  0.351357  0  0.999333  0
H  H14  1  0.76098114  0.43638928  0.81666706  1  0.634533  0  0.284452  0.351292  0  0.999419  0
H  H15  1  0.73902522  0.56360730  0.31666804  1  0.633576  0  0.284402  0.351328  0  0.999379  0
H  H16  1  0.43988538  0.88096022  0.55523468  1  0.576742  0  0.311962  0.277068  0  1.013325  0
H  H17  1  0.06011575  0.11904176  0.05523472  1  0.576666  0  0.311987  0.27705  0  1.013396  0
H  H18  1  0.56011778  0.11904642  0.44476603  1  0.576694  0  0.311986  0.277046  0  1.013493  0
H  H19  1  0.93988208  0.88095622  0.94476560  1  0.57667  0  0.311982  0.276988  0  1.013557  0
H  H20  1  0.10057911  0.68047184  0.40886405  1  0.048084  0  0.099984  0.103926  0  0.997168  0
H  H21  1  0.39943217  0.31952272  0.90886981  1  0.047686  0  0.099985  0.103897  0  0.997181  0
H  H22  1  0.89943420  0.31953076  0.59113390  1  0.047831  0  0.099991  0.103888  0  0.997162  0
H  H23  1  0.60056110  0.68047327  0.09113090  1  0.047732  0  0.099977  0.103896  0  0.997158  0
H  H24  1  0.16663166  0.83169830  0.45034267  1  0.103111  0  0.103693  0.115077  0  1.010189  0
H  H25  1  0.33337414  0.16829718  0.95034813  1  0.103068  0  0.103659  0.115009  0  1.010212  0
H  H26  1  0.83337689  0.16830699  0.54965410  1  0.103204  0  0.103715  0.115063  0  1.010232  0
H  H27  1  0.66662331  0.83169746  0.04965141  1  0.103039  0  0.103655  0.115026  0  1.010188  0
H  H28  1  0.60413827  0.01021140  0.34349037  1  0.102163  0  0.099678  0.110129  0  1.031122  0
H  H29  1  0.89586720  0.98978733  0.84349791  1  0.1019  0  0.099755  0.110148  0  1.031038  0
H  H30  1  0.39587091  0.98979523  0.65650443  1  0.102058  0  0.099751  0.110189  0  1.031249  0
H  H31  1  0.10412752  0.01020665  0.15650202  1  0.102006  0  0.099748  0.110148  0  1.0312  0
H  H32  1  0.74658024  0.98313236  0.26176610  1  0.055593  0  0.100204  0.099108  0  0.996021  0
H  H33  1  0.75341897  0.01686392  0.76177642  1  0.055119  0  0.100195  0.09915  0  0.996047  0
H  H34  1  0.25343002  0.01686892  0.73822870  1  0.05499  0  0.100228  0.099124  0  0.996036  0
H  H35  1  0.24656617  0.98313276  0.23822548  1  0.05507  0  0.10023  0.099134  0  0.996117  0
H  H36  1  0.69183852  0.82986194  0.22393751  1  0.077524  0  0.09541  0.094164  0  1.05072  0
H  H37  1  0.80816793  0.17013478  0.72394580  1  0.077901  0  0.095365  0.094076  0  1.050605  0
H  H38  1  0.30816813  0.17013935  0.77605966  1  0.077862  0  0.095368  0.094059  0  1.050571  0
H  H39  1  0.19182292  0.82986122  0.27605610  1  0.077882  0  0.095393  0.094103  0  1.050568  0
H  H40  1  0.48992110  0.70525821  0.26624427  1  0.087324  0  0.102915  0.114777  0  1.03065  0
H  H41  1  0.01009112  0.29473555  0.76625143  1  0.087563  0  0.102993  0.114931  0  1.030605  0
H  H42  1  0.51008796  0.29474307  0.73375368  1  0.087349  0  0.102942  0.114863  0  1.03071  0
H  H43  1  0.98990722  0.70525842  0.23374811  1  0.087485  0  0.10297  0.114924  0  1.030555  0
H  H44  1  0.16316324  0.06225274  0.34216227  1  0.103332  0  0.10511  0.110098  0  0.998474  0
H  H45  1  0.33684186  0.93774547  0.84216309  1  0.103356  0  0.10512  0.110096  0  0.99849  0
H  H46  1  0.83683954  0.93775056  0.65783648  1  0.103243  0  0.105098  0.110107  0  0.998411  0
H  H47  1  0.66314721  0.06225186  0.15784197  1  0.103674  0  0.105123  0.110143  0  0.998403  0
H  H48  1  0.37110826  0.16689658  0.28532358  1  0.079532  0  0.105362  0.109336  0  0.994619  0
H  H49  1  0.12889552  0.83310333  0.78532544  1  0.07968  0  0.105387  0.109364  0  0.99461  0
H  H50  1  0.62890061  0.83310938  0.71467713  1  0.079514  0  0.105363  0.109375  0  0.994582  0
H  H51  1  0.87109660  0.16689534  0.21467923  1  0.079459  0  0.105354  0.109378  0  0.994567  0
H  H52  1  0.47427334  0.44869880  0.37367812  1  0.087377  0  0.104918  0.117887  0  1.013771  0
H  H53  1  0.02571485  0.55130365  0.87368053  1  0.08754  0  0.104899  0.117786  0  1.013816  0
H  H54  1  0.52571929  0.55130854  0.62632379  1  0.087286  0  0.104909  0.117811  0  1.013777  0
H  H55  1  0.97428025  0.44869367  0.12632256  1  0.087624  0  0.104907  0.117845  0  1.0138  0
H  H56  1  0.37106202  0.50333887  0.45621524  1  0.058819  0  0.095637  0.089272  0  1.037693  0
H  H57  1  0.12892417  0.49666138  0.95621680  1  0.058757  0  0.095668  0.089316  0  1.037567  0
H  H58  1  0.62893048  0.49666313  0.54378785  1  0.058878  0  0.095672  0.089337  0  1.037627  0
H  H59  1  0.87107182  0.50333527  0.04378629  1  0.058877  0  0.095658  0.089303  0  1.037689  0
H  H60  1  0.15511458  0.40080219  0.51011448  1  0.015596  0  0.093833  0.088376  0  1.006599  0
H  H61  1  0.34487638  0.59919623  0.01011489  1  0.015431  0  0.093858  0.088383  0  1.006595  0
H  H62  1  0.84488204  0.59919579  0.48988821  1  0.015572  0  0.093868  0.088406  0  1.006613  0
H  H63  1  0.65512532  0.40079974  0.98988741  1  0.015101  0  0.09392  0.088471  0  1.006548  0
H  H64  1  0.05528170  0.24203389  0.48544875  1  0.070455  0  0.097832  0.108913  0  1.037079  0
H  H65  1  0.44471490  0.75796449  0.98544949  1  0.070451  0  0.097818  0.108901  0  1.037063  0
H  H66  1  0.94471918  0.75796542  0.51455197  1  0.070468  0  0.097801  0.108886  0  1.037092  0
H  H67  1  0.55528648  0.24203081  0.01455281  1  0.070402  0  0.097798  0.108982  0  1.036953  0
H  H68  1  0.93697183  0.87342258  0.36053193  1  0.161017  0  0.1283  0.109008  0  0.972447  0
H  H69  1  0.56303026  0.12657759  0.86053563  1  0.161073  0  0.128303  0.109073  0  0.972427  0
H  H70  1  0.06303444  0.12657538  0.63946879  1  0.161035  0  0.128257  0.108992  0  0.972392  0
H  H71  1  0.43696776  0.87341571  0.13946824  1  0.139901  0  0.128317  0.109109  0  0.972312  0
H  H72  1  0.91452561  0.72683602  0.31245074  1  0.128455  0  0.118349  0.090032  0  1.042818  0
H  H73  1  0.58547971  0.27316320  0.81245367  1  0.12859  0  0.118343  0.090012  0  1.042915  0
H  H74  1  0.08547552  0.27316128  0.68755156  1  0.128419  0  0.118372  0.089996  0  1.042766  0
H  H75  1  0.41450677  0.72682613  0.18754784  1  0.128685  0  0.11832  0.090012  0  1.042855  0
H  H76  1  0.53232035  0.60131271  0.41291446  1  0.117219  0  0.124327  0.108947  0  1.009551  0
H  H77  1  0.96769371  0.39868504  0.91291318  1  0.117255  0  0.124333  0.108932  0  1.00957  0
H  H78  1  0.46767037  0.39869063  0.58708666  1  0.117388  0  0.124367  0.108937  0  1.009447  0
H  H79  1  0.03229962  0.60131362  0.08708438  1  0.117359  0  0.12437  0.108981  0  1.009549  0
H  H80  1  0.26343844  0.81537616  0.62533647  1  0.126818  0  0.1159  0.128593  0  0.98526  0
H  H81  1  0.23655647  0.18462422  0.12533504  1  0.126896  0  0.115893  0.128574  0  0.985273  0
H  H82  1  0.73656554  0.18462714  0.37466544  1  0.126934  0  0.115887  0.128547  0  0.985368  0
H  H83  1  0.76344409  0.81537441  0.87466410  1  0.126936  0  0.115884  0.128569  0  0.985271  0
H  H84  1  0.04693055  0.74005106  0.68949779  1  0.117864  0  0.120452  0.09321  0  0.99431  0
H  H85  1  0.45306095  0.25994568  0.18949720  1  0.117872  0  0.120377  0.093126  0  0.994431  0
H  H86  1  0.95307521  0.25995090  0.31050372  1  0.117939  0  0.12041  0.093147  0  0.994428  0
H  H87  1  0.54693897  0.74005163  0.81050194  1  0.117888  0  0.120389  0.093129  0  0.99441  0
H  H88  1  0.98553790  0.49631322  0.61523161  1  0.067158  0  0.115754  0.080164  0  1.005064  0
H  H89  1  0.51446152  0.50368559  0.11523499  1  0.067164  0  0.115773  0.080256  0  1.005016  0
H  H90  1  0.01446850  0.50369007  0.38476832  1  0.067308  0  0.115761  0.080295  0  1.00493  0
H  H91  1  0.48553180  0.49631307  0.88476731  1  0.067399  0  0.115775  0.080271  0  1.00504  0
H  H92  1  0.20606157  0.56038759  0.54821746  1  0.108739  0  0.111216  0.120696  0  1.002746  0
H  H93  1  0.29394308  0.43961634  0.04821986  1  0.108775  0  0.111251  0.120714  0  1.002716  0
H  H94  1  0.79394609  0.43961837  0.45178326  1  0.108707  0  0.111225  0.120673  0  1.002761  0
H  H95  1  0.70604968  0.56038366  0.95178205  1  0.10872  0  0.111234  0.120705  0  1.002728  0
C  C96  1  0.23633881  0.62755028  0.32302266  1  1.578787  0  0.201568  0.57077  0  4.251418  0
C  C97  1  0.26365558  0.37244720  0.82302976  1  1.576867  0  0.201695  0.570811  0  4.251573  0
C  C98  1  0.76367025  0.37245101  0.67697569  1  1.578417  0  0.201431  0.570619  0  4.251429  0
C  C99  1  0.73633140  0.62755081  0.17697214  1  1.577104  0  0.201655  0.570865  0  4.251374  0
C  C100  1  0.28873353  0.71749192  0.34909018  1  -0.056837  0  -0.006814  -0.049466  0  3.936124  0
C  C101  1  0.21127287  0.28250433  0.84909713  1  -0.056056  0  -0.006864  -0.049534  0  3.936089  0
C  C102  1  0.71127406  0.28251137  0.65090659  1  -0.056308  0  -0.006897  -0.049605  0  3.936078  0
C  C103  1  0.78872490  0.71749098  0.15090201  1  -0.056374  0  -0.006851  -0.049464  0  3.936134  0
C  C104  1  0.20011170  0.73377930  0.39268199  1  -0.034603  0  -0.098355  -0.127794  0  4.037177  0
C  C105  1  0.29989425  0.26621586  0.89268786  1  -0.034297  0  -0.0983  -0.127674  0  4.037166  0
C  C106  1  0.79989710  0.26622399  0.60731438  1  -0.03466  0  -0.098383  -0.127662  0  4.036952  0
C  C107  1  0.70009990  0.73377946  0.10731168  1  -0.034525  0  -0.098274  -0.127665  0  4.036989  0
C  C108  1  0.23671282  0.81857024  0.41608719  1  -0.019432  0  -0.090205  -0.093187  0  4.008531  0
C  C109  1  0.26329530  0.18142570  0.91609249  1  -0.019538  0  -0.090202  -0.093125  0  4.00859  0
C  C110  1  0.76329725  0.18143571  0.58390918  1  -0.01977  0  -0.090167  -0.093189  0  4.008681  0
C  C111  1  0.73670151  0.81856760  0.08390665  1  -0.019704  0  -0.090205  -0.093236  0  4.008726  0
C  C112  1  0.36292050  0.88772305  0.39669011  1  -0.024301  0  -0.023688  -0.100508  0  3.963197  0
C  C113  1  0.13708478  0.11227347  0.89669712  1  -0.02464  0  -0.023654  -0.10042  0  3.96335  0
C  C114  1  0.63708741  0.11228091  0.60330508  1  -0.024631  0  -0.023655  -0.1003  0  3.963312  0
C  C115  1  0.86291267  0.88772117  0.10330242  1  -0.024708  0  -0.023594  -0.10018  0  3.963156  0
C  C116  1  0.39830214  0.97271141  0.42768161  1  1.542366  0  0.210968  0.588328  0  4.182445  0
C  C117  1  0.10170698  0.02728727  0.92768685  1  1.542682  0  0.211085  0.588311  0  4.182505  0
C  C118  1  0.60170761  0.02729388  0.57231477  1  1.542835  0  0.211093  0.588376  0  4.182559  0
C  C119  1  0.89828870  0.97270871  0.07231347  1  1.543102  0  0.210993  0.588161  0  4.1825  0
C  C120  1  0.45432964  0.87449685  0.35072494  1  -0.058017  0  -0.006013  0.052781  0  3.96454  0
C  C121  1  0.04567704  0.12550007  0.85073145  1  -0.057719  0  -0.00612  0.052554  0  3.964666  0
C  C122  1  0.54567707  0.12550711  0.64927064  1  -0.058078  0  -0.00609  0.052508  0  3.964912  0
C  C123  1  0.95432251  0.87449389  0.14926690  1  -0.057626  0  -0.006113  0.052453  0  3.964799  0
C  C124  1  0.57465623  0.94425538  0.32576675  1  -0.018057  0  -0.093778  -0.129768  0  3.973323  0
C  C125  1  0.92534871  0.05574124  0.82577396  1  -0.017366  0  -0.093794  -0.12961  0  3.973072  0
C  C126  1  0.42535169  0.05574858  0.67422883  1  -0.018024  0  -0.093825  -0.129831  0  3.973605  0
C  C127  1  0.07464721  0.94425274  0.17422518  1  -0.01747  0  -0.093772  -0.129602  0  3.973414  0
C  C128  1  0.65522164  0.92861653  0.28043322  1  -0.054473  0  -0.092853  -0.079785  0  4.025277  0
C  C129  1  0.84478075  0.07137985  0.78044228  1  -0.055788  0  -0.092863  -0.079985  0  4.025207  0
C  C130  1  0.34478652  0.07138542  0.71956157  1  -0.05493  0  -0.092882  -0.079825  0  4.0251  0
C  C131  1  0.15520979  0.92861548  0.21955765  1  -0.055998  0  -0.092957  -0.08005  0  4.025412  0
C  C132  1  0.62370828  0.84204658  0.25874487  1  -0.063687  0  -0.097444  -0.086997  0  4.02312  0
C  C133  1  0.87629525  0.15795101  0.75875214  1  -0.062359  0  -0.09729  -0.086634  0  4.022765  0
C  C134  1  0.37629900  0.15795604  0.74125151  1  -0.062318  0  -0.097278  -0.086608  0  4.022674  0
C  C135  1  0.12369890  0.84204431  0.24124818  1  -0.061728  0  -0.097284  -0.086633  0  4.022711  0
C  C136  1  0.50921331  0.77251969  0.28211766  1  -0.034554  0  -0.093309  -0.137318  0  3.976055  0
C  C137  1  0.99079113  0.22747603  0.78212484  1  -0.036126  0  -0.093388  -0.137519  0  3.9763  0
C  C138  1  0.49079187  0.22748361  0.71787911  1  -0.035059  0  -0.093375  -0.137575  0  3.976342  0
C  C139  1  0.00920600  0.77251794  0.21787430  1  -0.034994  0  -0.093314  -0.137424  0  3.9761  0
C  C140  1  0.41804743  0.78700096  0.32732684  1  -0.022892  0  -0.009451  0.035871  0  3.97659  0
C  C141  1  0.08195770  0.21299650  0.82733472  1  -0.021533  0  -0.009486  0.035793  0  3.976764  0
C  C142  1  0.58195750  0.21300434  0.67266953  1  -0.022415  0  -0.009461  0.035922  0  3.976752  0
C  C143  1  0.91803879  0.78699614  0.17266442  1  -0.022679  0  -0.009628  0.035657  0  3.976912  0
C  C144  1  0.02332065  0.09368149  0.42987168  1  1.548579  0  0.201268  0.581697  0  4.183867  0
C  C145  1  0.47667763  0.90631991  0.92987280  1  1.548697  0  0.201238  0.581709  0  4.18376  0
C  C146  1  0.97667971  0.90632182  0.57012667  1  1.548677  0  0.201183  0.581482  0  4.183839  0
C  C147  1  0.52331626  0.09367742  0.07013068  1  1.548896  0  0.201394  0.581774  0  4.183762  0
C  C148  1  0.14882313  0.16133091  0.39924221  1  0.032613  0  -0.014745  -0.077422  0  3.937325  0
C  C149  1  0.35117765  0.83866898  0.89924307  1  0.032604  0  -0.014699  -0.077406  0  3.93737  0
C  C150  1  0.85117813  0.83867173  0.60075772  1  0.032565  0  -0.014716  -0.077381  0  3.937248  0
C  C151  1  0.64881865  0.16132834  0.10076001  1  0.032307  0  -0.014732  -0.07737  0  3.93723  0
C  C152  1  0.20894631  0.13201326  0.35329206  1  -0.083616  0  -0.084674  -0.086831  0  3.990629  0
C  C153  1  0.29105676  0.86798636  0.85329279  1  -0.083544  0  -0.084735  -0.086856  0  3.990799  0
C  C154  1  0.79105647  0.86799004  0.64670826  1  -0.083394  0  -0.084667  -0.08684  0  3.990575  0
C  C155  1  0.70893714  0.13201096  0.14671148  1  -0.08361  0  -0.084663  -0.086884  0  3.990567  0
C  C156  1  0.32504647  0.19063388  0.32145934  1  0.041807  0  -0.086055  -0.097509  0  3.998416  0
C  C157  1  0.17495677  0.80936690  0.82146138  1  0.041525  0  -0.086024  -0.097501  0  3.998508  0
C  C158  1  0.67496119  0.80937208  0.67854178  1  0.041456  0  -0.08605  -0.097555  0  3.99845  0
C  C159  1  0.82503712  0.19063042  0.17854289  1  0.041296  0  -0.086051  -0.097557  0  3.998453  0
C  C160  1  0.37856416  0.28024352  0.33416034  1  -0.100419  0  -0.010342  -0.06877  0  3.943831  0
C  C161  1  0.12143244  0.71975668  0.83416263  1  -0.10039  0  -0.010309  -0.06866  0  3.943856  0
C  C162  1  0.62143900  0.71976312  0.66583999  1  -0.100671  0  -0.010307  -0.068721  0  3.943858  0
C  C163  1  0.87856203  0.28023931  0.16584006  1  -0.100785  0  -0.010327  -0.068695  0  3.943728  0
C  C164  1  0.48314354  0.33966959  0.29390206  1  1.556971  0  0.205081  0.581742  0  4.180248  0
C  C165  1  0.01685553  0.66033104  0.79390445  1  1.557129  0  0.205015  0.581657  0  4.180412  0
C  C166  1  0.51685511  0.66033773  0.70609906  1  1.55646  0  0.205144  0.581773  0  4.180455  0
C  C167  1  0.98314376  0.33966493  0.20609864  1  1.556447  0  0.205108  0.581647  0  4.180608  0
C  C168  1  0.32435069  0.31315750  0.38205394  1  -0.042968  0  -0.006552  0.038489  0  3.963879  0
C  C169  1  0.17564510  0.68684364  0.88205519  1  -0.043516  0  -0.006583  0.03837  0  3.964056  0
C  C170  1  0.67564942  0.68684782  0.61794718  1  -0.042815  0  -0.006655  0.038437  0  3.963879  0
C  C171  1  0.82435362  0.31315367  0.11794750  1  -0.042814  0  -0.006684  0.038411  0  3.963822  0
C  C172  1  0.38365222  0.40345427  0.39837615  1  -0.015941  0  -0.093013  -0.132565  0  3.974242  0
C  C173  1  0.11633958  0.59654697  0.89837767  1  -0.015641  0  -0.093028  -0.132473  0  3.974331  0
C  C174  1  0.61634428  0.59655106  0.60162535  1  -0.015856  0  -0.092999  -0.132541  0  3.974221  0
C  C175  1  0.88365882  0.40344967  0.10162463  1  -0.016197  0  -0.092975  -0.132574  0  3.974232  0
C  C176  1  0.32554177  0.43400149  0.44392640  1  -0.046043  0  -0.094824  -0.075611  0  4.017269  0
C  C177  1  0.17444953  0.56599867  0.94392727  1  -0.046016  0  -0.094856  -0.075593  0  4.017129  0
C  C178  1  0.67445378  0.56600184  0.55607589  1  -0.045869  0  -0.094877  -0.075647  0  4.017317  0
C  C179  1  0.82554944  0.43399663  0.05607503  1  -0.045936  0  -0.094863  -0.075576  0  4.017259  0
C  C180  1  0.20387526  0.37577800  0.47480932  1  -0.016793  0  -0.098473  -0.084852  0  4.048937  0
C  C181  1  0.29611861  0.62422166  0.97481043  1  -0.016212  0  -0.098447  -0.084857  0  4.048771  0
C  C182  1  0.79612327  0.62422398  0.52519219  1  -0.017085  0  -0.098421  -0.084774  0  4.048957  0
C  C183  1  0.70388157  0.37577364  0.02519187  1  -0.016685  0  -0.098475  -0.084863  0  4.048868  0
C  C184  1  0.14658664  0.28735842  0.46106811  1  -0.02399  0  -0.100142  -0.139544  0  3.987981  0
C  C185  1  0.35340996  0.71264115  0.96106895  1  -0.024268  0  -0.100129  -0.139489  0  3.987831  0
C  C186  1  0.85341398  0.71264289  0.53893300  1  -0.023621  0  -0.100089  -0.139511  0  3.987999  0
C  C187  1  0.64659262  0.28735414  0.03893374  1  -0.023324  0  -0.100077  -0.139598  0  3.988038  0
C  C188  1  0.20665564  0.25256159  0.41518111  1  -0.016727  0  -0.005278  0.054689  0  3.942948  0
C  C189  1  0.29334267  0.74743906  0.91518223  1  -0.016803  0  -0.005321  0.054605  0  3.942986  0
C  C190  1  0.79334504  0.74744239  0.58481961  1  -0.01669  0  -0.005344  0.054592  0  3.942917  0
C  C191  1  0.70665782  0.25255691  0.08482046  1  -0.016727  0  -0.005355  0.054569  0  3.942989  0
C  C192  1  0.84885184  0.81187909  0.37260599  1  0.453898  0  0.068207  0.075424  0  3.915781  0
C  C193  1  0.65115207  0.18812047  0.87260886  1  0.453977  0  0.068254  0.075366  0  3.915826  0
C  C194  1  0.15115208  0.18812154  0.62739433  1  0.453956  0  0.068237  0.075459  0  3.915652  0
C  C195  1  0.34884506  0.81187350  0.12739265  1  0.475226  0  0.068189  0.075363  0  3.915695  0
C  C196  1  0.83458963  0.73134928  0.34590602  1  0.547593  0  0.058119  0.044596  0  3.923242  0
C  C197  1  0.66541490  0.26865013  0.84590832  1  0.54664  0  0.058146  0.044748  0  3.923313  0
C  C198  1  0.16540972  0.26864936  0.65409549  1  0.547847  0  0.058127  0.044691  0  3.923131  0
C  C199  1  0.33457557  0.73134253  0.15409240  1  0.546137  0  0.058138  0.044599  0  3.923207  0
C  C200  1  0.62635371  0.66120149  0.40210010  1  0.583166  0  0.065447  0.032058  0  3.889938  0
C  C201  1  0.87365553  0.33879822  0.90210007  1  0.583443  0  0.065537  0.032204  0  3.890187  0
C  C202  1  0.37363943  0.33880185  0.59790102  1  0.582902  0  0.065616  0.032278  0  3.889856  0
C  C203  1  0.12633957  0.66119910  0.09789867  1  0.583203  0  0.065517  0.032169  0  3.890031  0
C  C204  1  0.64222665  0.74101928  0.42984542  1  0.496909  0  0.133163  0.119649  0  3.998173  0
C  C205  1  0.85778016  0.25898193  0.92984636  1  0.49815  0  0.133164  0.119664  0  3.998181  0
C  C206  1  0.35776921  0.25898472  0.57015372  1  0.498033  0  0.133126  0.11962  0  3.998447  0
C  C207  1  0.14222160  0.74101671  0.07015278  1  0.498075  0  0.133157  0.119662  0  3.998173  0
C  C208  1  0.54076071  0.75040629  0.47559979  1  1.023004  0  0.2215  0.236785  0  4.092356  0
C  C209  1  0.95924350  0.24959451  0.97560081  1  1.022118  0  0.22145  0.236734  0  4.092275  0
C  C210  1  0.45923699  0.24959903  0.52439975  1  1.02238  0  0.221408  0.236755  0  4.092568  0
C  C211  1  0.04075763  0.75040279  0.02439872  1  1.022697  0  0.221398  0.236765  0  4.092444  0
C  C212  1  0.37314602  0.73190447  0.54021631  1  0.949608  0  0.232452  0.26872  0  3.996374  0
C  C213  1  0.12685698  0.26809809  0.04021704  1  0.950064  0  0.232506  0.268815  0  3.996304  0
C  C214  1  0.62685529  0.26810085  0.45978362  1  0.950783  0  0.232417  0.268832  0  3.996141  0
C  C215  1  0.87314269  0.73190122  0.95978210  1  0.949902  0  0.232508  0.268873  0  3.996199  0
C  C216  1  0.25131140  0.69330157  0.58068071  1  0.055239  0  0.0167  0.062741  0  4.008062  0
C  C217  1  0.24869002  0.30669988  0.08068084  1  0.055218  0  0.016708  0.062741  0  4.008245  0
C  C218  1  0.74868992  0.30670374  0.41931961  1  0.054972  0  0.016679  0.062708  0  4.008099  0
C  C219  1  0.75130901  0.69329809  0.91931870  1  0.055297  0  0.016649  0.062599  0  4.008315  0
C  C220  1  0.20686361  0.74422100  0.62137452  1  -0.078942  0  -0.075092  -0.151717  0  3.90562  0
C  C221  1  0.29313260  0.25577936  0.12137317  1  -0.079052  0  -0.075099  -0.151679  0  3.905695  0
C  C222  1  0.79313860  0.25578364  0.37862699  1  -0.078886  0  -0.075058  -0.151671  0  3.905634  0
C  C223  1  0.70686611  0.74421795  0.87862636  1  -0.079013  0  -0.075048  -0.151642  0  3.905682  0
C  C224  1  0.08576202  0.70272292  0.65746053  1  0.541552  0  0.05848  0.12108  0  3.930923  0
C  C225  1  0.41423359  0.29727564  0.15745977  1  0.541613  0  0.058569  0.121105  0  3.931237  0
C  C226  1  0.91424075  0.29728039  0.34254058  1  0.541611  0  0.058555  0.121173  0  3.931006  0
C  C227  1  0.58576544  0.70272234  0.84253977  1  0.541606  0  0.058577  0.121175  0  3.931141  0
C  C228  1  0.05197577  0.56646657  0.61626770  1  0.51915  0  0.05157  0.113194  0  3.973014  0
C  C229  1  0.44802177  0.43353375  0.11626887  1  0.519113  0  0.051448  0.112926  0  3.973058  0
C  C230  1  0.94803006  0.43353806  0.38373262  1  0.518825  0  0.051521  0.11303  0  3.973024  0
C  C231  1  0.55197339  0.56646624  0.88373224  1  0.518844  0  0.051475  0.112926  0  3.97315  0
C  C232  1  0.17296555  0.60195821  0.57898988  1  -0.030959  0  -0.076592  -0.152488  0  3.92103  0
C  C233  1  0.32703622  0.39804390  0.07899087  1  -0.031001  0  -0.0766  -0.152429  0  3.921046  0
C  C234  1  0.82704027  0.39804643  0.42101045  1  -0.031019  0  -0.07652  -0.152378  0  3.921154  0
C  C235  1  0.67295863  0.60195542  0.92100985  1  -0.030985  0  -0.076557  -0.152356  0  3.921096  0
N  N236  1  0.75426363  0.81613665  0.41458279  1  -1.198307  0  -0.294551  -0.242177  0  3.43525  0
N  N237  1  0.74573872  0.18386449  0.91458578  1  -1.198535  0  -0.294554  -0.242221  0  3.435338  0
N  N238  1  0.24573642  0.18386600  0.58541595  1  -1.198243  0  -0.294537  -0.242217  0  3.435229  0
N  N239  1  0.25426121  0.81613282  0.08541534  1  -1.198275  0  -0.294511  -0.242169  0  3.435248  0
N  N240  1  0.72362638  0.65654037  0.36056504  1  -1.203257  0  -0.283299  -0.188132  0  3.361933  0
N  N241  1  0.77638263  0.34345911  0.86056569  1  -1.202904  0  -0.283447  -0.188333  0  3.362231  0
N  N242  1  0.27637031  0.34346028  0.63943686  1  -1.203517  0  -0.283441  -0.188305  0  3.361954  0
N  N243  1  0.22360696  0.65653423  0.13943305  1  -1.202559  0  -0.283383  -0.188244  0  3.362151  0
N  N244  1  0.42717456  0.68636128  0.50150266  1  -1.133927  0  -0.317955  -0.397051  0  3.167314  0
N  N245  1  0.07283024  0.31364039  0.00150369  1  -1.134536  0  -0.317984  -0.397063  0  3.167274  0
N  N246  1  0.57282137  0.31364539  0.49849648  1  -1.134605  0  -0.31795  -0.397125  0  3.167191  0
N  N247  1  0.92717361  0.68635757  0.99849545  1  -1.134422  0  -0.317981  -0.397158  0  3.167231  0
N  N248  1  0.55697480  0.83188276  0.49598818  1  -0.702804  0  -0.232679  -0.237924  0  3.427871  0
N  N249  1  0.94302956  0.16811948  0.99598938  1  -0.702814  0  -0.232632  -0.237823  0  3.427953  0
N  N250  1  0.44302683  0.16812322  0.50401136  1  -0.703282  0  -0.2326  -0.237896  0  3.428177  0
N  N251  1  0.05697309  0.83187848  0.00400976  1  -0.703405  0  -0.232654  -0.237914  0  3.428108  0
N  N252  1  0.45138891  0.81997801  0.53664012  1  -0.788671  0  -0.238827  -0.115082  0  3.596076  0
N  N253  1  0.04861145  0.18002386  0.03664039  1  -0.788502  0  -0.238909  -0.115248  0  3.596245  0
N  N254  1  0.54861514  0.18002796  0.46336060  1  -0.788866  0  -0.238885  -0.115155  0  3.596318  0
N  N255  1  0.95138758  0.81997411  0.96335875  1  -0.788512  0  -0.238893  -0.115155  0  3.596232  0
N  N256  1  0.00760804  0.61565588  0.65483646  1  -1.224643  0  -0.31926  -0.253581  0  3.496046  0
N  N257  1  0.49238973  0.38434198  0.15483774  1  -1.224648  0  -0.319164  -0.253382  0  3.496029  0
N  N258  1  0.99239594  0.38434742  0.34516426  1  -1.224689  0  -0.319312  -0.253627  0  3.496176  0
N  N259  1  0.50760721  0.61565667  0.84516298  1  -1.224682  0  -0.319213  -0.253455  0  3.496007  0
O  O260  1  0.31635989  0.56957464  0.33387823  1  -1.145484  0  -0.314001  -0.537795  0  2.225592  0
O  O261  1  0.18362359  0.43041826  0.83388298  1  -1.144673  0  -0.314003  -0.537816  0  2.225768  0
O  O262  1  0.68365012  0.43042864  0.66612169  1  -1.145462  0  -0.313949  -0.537789  0  2.22567  0
O  O263  1  0.81635514  0.56957511  0.16611853  1  -1.144385  0  -0.313945  -0.537819  0  2.225743  0
O  O264  1  0.11183441  0.61479259  0.29222090  1  -1.174338  0  -0.316927  -0.564572  0  2.201672  0
O  O265  1  0.38816324  0.38521004  0.79222809  1  -1.174002  0  -0.31705  -0.564631  0  2.201791  0
O  O266  1  0.88817369  0.38520669  0.70777863  1  -1.174419  0  -0.316842  -0.564443  0  2.201589  0
O  O267  1  0.61182812  0.61479463  0.20777539  1  -1.174246  0  -0.317033  -0.564655  0  2.201683  0
O  O268  1  0.27501168  0.99136942  0.45001946  1  -1.170231  0  -0.322562  -0.548095  0  2.332111  0
O  O269  1  0.22499317  0.00862405  0.95002233  1  -1.170548  0  -0.322581  -0.548009  0  2.33208  0
O  O270  1  0.72499560  0.00863320  0.54997849  1  -1.170359  0  -0.322607  -0.548063  0  2.332077  0
O  O271  1  0.77500130  0.99137193  0.04997918  1  -1.170483  0  -0.322572  -0.548012  0  2.332125  0
O  O272  1  0.55022762  0.02005344  0.43089091  1  -1.188671  0  -0.323943  -0.572308  0  2.290585  0
O  O273  1  0.94977910  0.97994509  0.93089788  1  -1.188598  0  -0.324056  -0.572332  0  2.290603  0
O  O274  1  0.44978125  0.97995251  0.56910428  1  -1.18864  0  -0.324047  -0.572437  0  2.290621  0
O  O275  1  0.05021594  0.02004956  0.06910126  1  -1.188909  0  -0.324004  -0.572258  0  2.290538  0
O  O276  1  0.92141737  0.03374070  0.40342431  1  -1.146841  0  -0.321862  -0.534774  0  2.212553  0
O  O277  1  0.57857211  0.96626575  0.90342555  1  -1.146831  0  -0.321871  -0.534798  0  2.21252  0
O  O278  1  0.07858122  0.96626395  0.59657404  1  -1.146837  0  -0.321864  -0.534691  0  2.212502  0
O  O279  1  0.42141227  0.03373695  0.09657872  1  -1.147016  0  -0.321958  -0.534861  0  2.212444  0
O  O280  1  0.01927921  0.09624321  0.48034538  1  -1.180359  0  -0.331447  -0.575881  0  2.283447  0
O  O281  1  0.48072804  0.90375443  0.98034648  1  -1.1805  0  -0.331417  -0.575857  0  2.283288  0
O  O282  1  0.98072350  0.90375742  0.51965337  1  -1.180486  0  -0.331371  -0.575724  0  2.283275  0
O  O283  1  0.51927214  0.09624087  0.01965739  1  -1.180258  0  -0.331496  -0.575921  0  2.283397  0
O  O284  1  0.59956884  0.31426427  0.27126536  1  -1.149302  0  -0.320891  -0.546496  0  2.171833  0
O  O285  1  0.90042660  0.68573475  0.77126993  1  -1.149251  0  -0.32088  -0.546464  0  2.171927  0
O  O286  1  0.40043013  0.68574372  0.72873497  1  -1.148935  0  -0.320927  -0.546563  0  2.171991  0
O  O287  1  0.09956508  0.31425790  0.22873474  1  -1.148821  0  -0.320913  -0.54649  0  2.172015  0
O  O288  1  0.44747768  0.41349657  0.28182069  1  -1.158655  0  -0.324955  -0.55694  0  2.309486  0
O  O289  1  0.05252472  0.58650532  0.78182038  1  -1.158818  0  -0.324925  -0.556923  0  2.30947  0
O  O290  1  0.55252097  0.58651075  0.71818319  1  -1.158438  0  -0.324979  -0.556916  0  2.309389  0
O  O291  1  0.94748307  0.41349329  0.21818034  1  -1.158535  0  -0.32494  -0.556871  0  2.309604  0
O  O292  1  0.29316547  0.52269541  0.20289830  1  -1.248167  0  -0.595419  -0.76001  0  2.162057  0
O  O293  1  0.20683669  0.47730671  0.70289919  1  -1.247604  0  -0.59548  -0.760109  0  2.162085  0
O  O294  1  0.70683806  0.47730188  0.79710162  1  -1.248196  0  -0.595474  -0.760015  0  2.162103  0
O  O295  1  0.79316603  0.52269392  0.29710193  1  -1.247421  0  -0.595428  -0.760039  0  2.16211  0
