# generated using pymatgen
data_Ag2H28C15N6Cl2O13
_symmetry_space_group_name_H-M   'P 1'
_cell_length_a   10.01280568
_cell_length_b   10.06829720
_cell_length_c   13.19100000
_cell_angle_alpha   100.97854714
_cell_angle_beta   92.29674806
_cell_angle_gamma   108.45452879
_symmetry_Int_Tables_number   1
_chemical_formula_structural   Ag2H28C15N6Cl2O13
_chemical_formula_sum   'Ag4 H56 C30 N12 Cl4 O26'
_cell_volume   1231.12604422
_cell_formula_units_Z   2
loop_
 _symmetry_equiv_pos_site_id
 _symmetry_equiv_pos_as_xyz
  1  'x, y, z'
loop_
 _atom_site_type_symbol
 _atom_site_label
 _atom_site_symmetry_multiplicity
 _atom_site_fract_x
 _atom_site_fract_y
 _atom_site_fract_z
 _atom_site_occupancy
 _atom_site_hle17_bader_spin_density
 _atom_site_hle17_ddec_charge
 _atom_site_hle17_ddec_spin_density
 _atom_site_hle17_ddec_sum_bond_order
 _atom_site_hle17_magmom
 _atom_site_hse06_10hf_bader_spin_density
 _atom_site_hse06_10hf_ddec_charge
 _atom_site_hse06_10hf_ddec_spin_density
 _atom_site_hse06_10hf_ddec_sum_bond_order
 _atom_site_hse06_10hf_magmom
 _atom_site_hse06_bader_spin_density
 _atom_site_hse06_ddec_charge
 _atom_site_hse06_ddec_spin_density
 _atom_site_hse06_ddec_sum_bond_order
 _atom_site_hse06_magmom
 _atom_site_pbe_bader_charge
 _atom_site_pbe_bader_spin_density
 _atom_site_pbe_cm5_charge
 _atom_site_pbe_ddec_charge
 _atom_site_pbe_ddec_spin_density
 _atom_site_pbe_ddec_sum_bond_order
 _atom_site_pbe_magmom
Ag  Ag0  1  0.54765971  0.40928288  0.60568977  1  0  0.69242  0  1.20391  0  0  0.570525  0  1.615403  0  0  0.599832  0  1.568041  0  0.673986  0  0.468962  0.546127  0  1.650696  0
Ag  Ag1  1  0.45234071  0.59071781  0.39431148  1  0  0.692458  0  1.203891  0  0  0.570559  0  1.615379  0  0  0.599862  0  1.568019  0  0.673969  0  0.468968  0.54616  0  1.650672  0
Ag  Ag2  1  0.05098564  0.07567775  0.81939237  1  0  0.671764  0  1.223984  0  0  0.542654  0  1.63238  0  0  0.574953  0  1.584313  0  0.645765  0  0.47455  0.519415  0  1.666319  0
Ag  Ag3  1  0.94901542  0.92432187  0.18060874  1  0  0.671767  0  1.223972  0  0  0.542657  0  1.632377  0  0  0.574956  0  1.584311  0  0.645769  0  0.474552  0.519418  0  1.666315  0
H  H4  1  0.88651331  0.86220881  0.91978494  1  0  0.41668  0  0.879577  0  0  0.383284  0  0.952703  0  0  0.394277  0  0.936685  0  0.64993  0  0.29765  0.375764  0  0.963524  0
H  H5  1  0.11348776  0.13779081  0.08021542  1  0  0.416691  0  0.879568  0  0  0.383285  0  0.952708  0  0  0.394276  0  0.9367  0  0.649917  0  0.297652  0.375765  0  0.963528  0
H  H6  1  0.70794207  0.50875833  0.45518047  1  0  0.416791  0  0.874856  0  0  0.388765  0  0.938407  0  0  0.398247  0  0.92448  0  0.641756  0  0.292567  0.381691  0  0.948821  0
H  H7  1  0.29205800  0.49124129  0.54481910  1  0  0.416808  0  0.874819  0  0  0.388779  0  0.938386  0  0  0.398263  0  0.924457  0  0.641638  0  0.292572  0.381705  0  0.948799  0
H  H8  1  0.62084470  0.34224948  0.40351444  1  0  0.420247  0  0.880191  0  0  0.387019  0  0.946703  0  0  0.397524  0  0.931626  0  0.657201  0  0.295951  0.379353  0  0.957731  0
H  H9  1  0.37915537  0.65775014  0.59648513  1  0  0.420244  0  0.880198  0  0  0.387018  0  0.946706  0  0  0.397523  0  0.931628  0  0.657202  0  0.295964  0.379352  0  0.957734  0
H  H10  1  0.04358418  0.85654989  0.90955087  1  0  0.406759  0  0.897562  0  0  0.375809  0  0.965331  0  0  0.385222  0  0.951568  0  0.645771  0  0.289375  0.369122  0  0.975062  0
H  H11  1  0.95641689  0.14344973  0.09044949  1  0  0.406728  0  0.897508  0  0  0.375775  0  0.96536  0  0  0.38519  0  0.951594  0  0.645789  0  0.289354  0.369088  0  0.975091  0
H  H12  1  0.41572891  0.72165125  0.89103148  1  0  0.102106  0  0.946365  0  0  0.111599  0  1.016201  0  0  0.113216  0  1.014767  0  0.120829  0  0.114427  0.110342  0  1.017488  0
H  H13  1  0.58427016  0.27834838  0.10896805  1  0  0.102098  0  0.9464  0  0  0.111565  0  1.016245  0  0  0.113182  0  1.014812  0  0.120808  0  0.11442  0.110308  0  1.017533  0
H  H14  1  0.57651598  0.79075247  0.83457209  1  0  0.085135  0  0.926489  0  0  0.101147  0  0.988298  0  0  0.101145  0  0.988734  0  0.074938  0  0.108128  0.101166  0  0.988069  0
H  H15  1  0.42348309  0.20924715  0.16542593  1  0  0.085168  0  0.926477  0  0  0.101169  0  0.988281  0  0  0.101167  0  0.98872  0  0.074963  0  0.108126  0.101188  0  0.988052  0
H  H16  1  0.62025448  0.89899126  0.02008191  1  0  0.077379  0  0.92916  0  0  0.0899  0  0.994857  0  0  0.090401  0  0.993879  0  0.08607  0  0.105009  0.089381  0  0.995824  0
H  H17  1  0.37974664  0.10101158  0.97991664  1  0  0.077383  0  0.9291  0  0  0.089892  0  0.99483  0  0  0.090392  0  0.993853  0  0.086077  0  0.104999  0.089374  0  0.995797  0
H  H18  1  0.55091960  0.72683421  0.05288920  1  0  0.062163  0  0.929332  0  0  0.074193  0  0.996857  0  0  0.074401  0  0.99703  0  0.050415  0  0.097291  0.073888  0  0.996873  0
H  H19  1  0.44908117  0.27316755  0.94711070  1  0  0.062132  0  0.929347  0  0  0.074176  0  0.996874  0  0  0.074385  0  0.997046  0  0.050384  0  0.097276  0.073871  0  0.99689  0
H  H20  1  0.67806251  0.56569271  0.02038080  1  0  0.062116  0  0.942157  0  0  0.071955  0  1.013992  0  0  0.072409  0  1.014006  0  0.065183  0  0.098596  0.071594  0  1.013724  0
H  H21  1  0.32193726  0.43430905  0.97961983  1  0  0.062062  0  0.942233  0  0  0.071934  0  1.014026  0  0  0.072386  0  1.01404  0  0.065183  0  0.098582  0.071573  0  1.013758  0
H  H22  1  0.84603450  0.62276109  0.97214604  1  0  0.084515  0  0.943222  0  0  0.100634  0  1.001938  0  0  0.100821  0  1.001917  0  0.099867  0  0.108622  0.100495  0  1.001921  0
H  H23  1  0.15396492  0.37723960  0.02785367  1  0  0.084573  0  0.943175  0  0  0.100655  0  1.001923  0  0  0.10084  0  1.001902  0  0.09984  0  0.108643  0.100517  0  1.001905  0
H  H24  1  0.55790263  0.18077889  0.73485221  1  0  0.095135  0  0.937725  0  0  0.107562  0  1.005924  0  0  0.108974  0  1.004786  0  0.0826  0  0.114977  0.106509  0  1.006676  0
H  H25  1  0.44209744  0.81922073  0.26514812  1  0  0.09513  0  0.93774  0  0  0.107552  0  1.005939  0  0  0.108945  0  1.004823  0  0.082605  0  0.114974  0.106498  0  1.006689  0
H  H26  1  0.50550539  0.09364501  0.60107255  1  0  0.067754  0  0.920203  0  0  0.083627  0  0.989296  0  0  0.084669  0  0.987067  0  0.043281  0  0.102169  0.082416  0  0.991596  0
H  H27  1  0.49449403  0.90635568  0.39892791  1  0  0.067785  0  0.920154  0  0  0.083665  0  0.989222  0  0  0.084707  0  0.98699  0  0.043239  0  0.102176  0.082445  0  0.991528  0
H  H28  1  0.58256502  0.93343253  0.69166898  1  0  0.084964  0  0.92664  0  0  0.097306  0  0.988957  0  0  0.097533  0  0.988745  0  0.093972  0  0.108577  0.097075  0  0.989145  0
H  H29  1  0.41743605  0.06656709  0.30833062  1  0  0.084954  0  0.926695  0  0  0.097311  0  0.988982  0  0  0.097538  0  0.988771  0  0.093985  0  0.108575  0.097081  0  0.98917  0
H  H30  1  0.47122230  0.95558476  0.79188635  1  0  0.060048  0  0.924495  0  0  0.071817  0  0.99108  0  0  0.07256  0  0.990233  0  0.058932  0  0.100447  0.07115  0  0.991955  0
H  H31  1  0.52877777  0.04441487  0.20811322  1  0  0.060043  0  0.924477  0  0  0.071809  0  0.991065  0  0  0.072552  0  0.990218  0  0.058924  0  0.100438  0.071143  0  0.991941  0
H  H32  1  0.22074680  0.84893034  0.74972365  1  0  0.064004  0  0.924536  0  0  0.078626  0  0.991138  0  0  0.079499  0  0.989807  0  0.070017  0  0.101163  0.077747  0  0.992537  0
H  H33  1  0.77925391  0.15106821  0.25027655  1  0  0.063977  0  0.924591  0  0  0.078621  0  0.99116  0  0  0.079496  0  0.98983  0  0.07002  0  0.101152  0.077742  0  0.992558  0
H  H34  1  0.15575611  0.74818461  0.61985476  1  0  0.06045  0  0.957223  0  0  0.077001  0  1.019476  0  0  0.076928  0  1.019649  0  0.078665  0  0.105575  0.076783  0  1.019915  0
H  H35  1  0.84424431  0.25181609  0.38014497  1  0  0.060468  0  0.957185  0  0  0.077017  0  1.019436  0  0  0.076945  0  1.01961  0  0.078664  0  0.105584  0.076798  0  1.019874  0
H  H36  1  0.23615417  0.96903582  0.55044574  1  0  0.081296  0  0.929207  0  0  0.098461  0  0.98969  0  0  0.098786  0  0.989944  0  0.080447  0  0.105693  0.098313  0  0.989557  0
H  H37  1  0.76384725  0.03096488  0.44955478  1  0  0.081307  0  0.929178  0  0  0.098469  0  0.989665  0  0  0.098794  0  0.989918  0  0.080417  0  0.105699  0.09832  0  0.989532  0
H  H38  1  0.12163731  0.98772987  0.64673813  1  0  0.084  0  0.994257  0  0  0.09684  0  1.065631  0  0  0.098399  0  1.063331  0  0.134079  0  0.104602  0.095652  0  1.067494  0
H  H39  1  0.87836276  0.01226975  0.35326144  1  0  0.083988  0  0.994256  0  0  0.096828  0  1.065629  0  0  0.098388  0  1.063329  0  0.134095  0  0.104598  0.09564  0  1.067493  0
H  H40  1  0.11559556  0.59662758  0.80899860  1  0  0.10028  0  0.949579  0  0  0.110264  0  1.018855  0  0  0.112078  0  1.017379  0  0.127126  0  0.114207  0.10889  0  1.02012  0
H  H41  1  0.88440416  0.40337098  0.19100156  1  0  0.100268  0  0.949566  0  0  0.11025  0  1.018849  0  0  0.112064  0  1.017371  0  0.127122  0  0.114205  0.108875  0  1.020114  0
H  H42  1  0.94868016  0.49568889  0.84294712  1  0  0.083558  0  0.913103  0  0  0.101443  0  0.972166  0  0  0.101774  0  0.972318  0  0.064176  0  0.107841  0.101036  0  0.972375  0
H  H43  1  0.05131991  0.50431073  0.15705320  1  0  0.083546  0  0.913039  0  0  0.101431  0  0.97211  0  0  0.101761  0  0.972261  0  0.064189  0  0.107836  0.101024  0  0.972319  0
H  H44  1  0.90790793  0.63945700  0.71809636  1  0  0.078013  0  0.950358  0  0  0.089562  0  1.016703  0  0  0.089933  0  1.016694  0  0.115101  0  0.105707  0.08925  0  1.01704  0
H  H45  1  0.09209214  0.36054262  0.28190321  1  0  0.078015  0  0.950392  0  0  0.089564  0  1.016728  0  0  0.089932  0  1.016723  0  0.115096  0  0.105716  0.089251  0  1.017066  0
H  H46  1  0.00831443  0.56494877  0.62833454  1  0  0.041182  0  0.941118  0  0  0.053162  0  1.011495  0  0  0.054024  0  1.009927  0  0.03098  0  0.093131  0.052031  0  1.013463  0
H  H47  1  0.99168429  0.43504978  0.37166635  1  0  0.041188  0  0.941067  0  0  0.053145  0  1.011465  0  0  0.054005  0  1.009899  0  0.030961  0  0.093135  0.052014  0  1.013433  0
H  H48  1  0.91891669  0.32573367  0.54429283  1  0  0.052735  0  0.93773  0  0  0.064416  0  1.007425  0  0  0.06538  0  1.006003  0  0.064837  0  0.095615  0.06378  0  1.008557  0
H  H49  1  0.08108338  0.67426596  0.45570749  1  0  0.052744  0  0.937704  0  0  0.064431  0  1.007414  0  0  0.065394  0  1.00599  0  0.064844  0  0.095626  0.063796  0  1.008544  0
H  H50  1  0.74920145  0.21819058  0.57210907  1  0  0.063311  0  0.931922  0  0  0.077945  0  0.998565  0  0  0.078409  0  0.997312  0  0.061195  0  0.10607  0.077727  0  0.999463  0
H  H51  1  0.25079862  0.78180904  0.42789050  1  0  0.063295  0  0.931967  0  0  0.07793  0  0.998631  0  0  0.078394  0  0.997377  0  0.061174  0  0.106064  0.077713  0  0.999525  0
H  H52  1  0.84897412  0.22062181  0.74554224  1  0  0.070282  0  0.94766  0  0  0.082858  0  1.018855  0  0  0.083214  0  1.018366  0  0.083689  0  0.099224  0.082809  0  1.01896  0
H  H53  1  0.15102560  0.77937674  0.25445717  1  0  0.07027  0  0.947639  0  0  0.082834  0  1.018833  0  0  0.083191  0  1.018343  0  0.083701  0  0.099223  0.082785  0  1.018939  0
H  H54  1  0.95699607  0.16814038  0.65243529  1  0  0.097613  0  0.95972  0  0  0.113036  0  1.021154  0  0  0.114103  0  1.020423  0  0.124198  0  0.113581  0.112016  0  1.022278  0
H  H55  1  0.04300500  0.83185924  0.34756430  1  0  0.097569  0  0.959739  0  0  0.112984  0  1.021171  0  0  0.11405  0  1.02044  0  0.124207  0  0.113558  0.111964  0  1.022294  0
H  H56  1  0.73039076  0.62109633  0.80181962  1  0  0.084149  0  0.953867  0  0  0.099526  0  1.01994  0  0  0.099821  0  1.019604  0  0.094322  0  0.107351  0.099042  0  1.021066  0
H  H57  1  0.26960966  0.37890437  0.19818011  1  0  0.084139  0  0.953861  0  0  0.099518  0  1.01993  0  0  0.099813  0  1.019594  0  0.09432  0  0.107347  0.099035  0  1.021056  0
H  H58  1  0.65717373  0.45016990  0.83422374  1  0  0.097395  0  0.952941  0  0  0.108025  0  1.024308  0  0  0.109731  0  1.022408  0  0.10328  0  0.113573  0.106872  0  1.025569  0
H  H59  1  0.34282569  0.54983080  0.16577672  1  0  0.097386  0  0.952938  0  0  0.108006  0  1.02433  0  0  0.109718  0  1.022412  0  0.103282  0  0.113568  0.106853  0  1.025592  0
C  C60  1  0.17507957  0.36747933  0.75877990  1  0  0.572695  0  3.819899  0  0  0.51633  0  4.104601  0  0  0.547565  0  4.109136  0  1.565341  0  0.348367  0.494782  0  4.101038  0
C  C61  1  0.82491915  0.63251922  0.24122098  1  0  0.572687  0  3.819922  0  0  0.51632  0  4.10462  0  0  0.547555  0  4.109155  0  1.565322  0  0.348357  0.494775  0  4.101056  0
C  C62  1  0.41227874  0.47163070  0.79626618  1  0  0.551661  0  3.861077  0  0  0.493777  0  4.153457  0  0  0.52479  0  4.15698  0  1.589974  0  0.339893  0.47281  0  4.15042  0
C  C63  1  0.58772132  0.52836892  0.20373490  1  0  0.551565  0  3.861104  0  0  0.493663  0  4.153487  0  0  0.524675  0  4.157015  0  1.590152  0  0.339878  0.472696  0  4.15045  0
C  C64  1  0.31983709  0.23070260  0.72486492  1  0  0.572483  0  3.834126  0  0  0.510448  0  4.118918  0  0  0.541809  0  4.124722  0  1.554887  0  0.342074  0.489128  0  4.114673  0
C  C65  1  0.68016397  0.76929702  0.27513544  1  0  0.572536  0  3.834125  0  0  0.510533  0  4.118907  0  0  0.541894  0  4.12471  0  1.554892  0  0.342086  0.489214  0  4.114662  0
C  C66  1  0.52543949  0.72372014  0.88828945  1  0  -0.034781  0  3.621309  0  0  -0.096666  0  3.874671  0  0  -0.09258  0  3.885155  0  0.285523  0  -0.065654  -0.099461  0  3.867539  0
C  C67  1  0.47456192  0.27628055  0.11171031  1  0  -0.034818  0  3.621322  0  0  -0.096645  0  3.874636  0  0  -0.092561  0  3.885123  0  0.285489  0  -0.065645  -0.09944  0  3.867505  0
C  C68  1  0.60696120  0.78485557  0.99589191  1  0  0.070679  0  3.599853  0  0  0.010141  0  3.874543  0  0  0.017043  0  3.879992  0  0.404755  0  -0.075874  0.005423  0  3.870861  0
C  C69  1  0.39303822  0.21514512  0.00410627  1  0  0.070671  0  3.5998  0  0  0.01008  0  3.874572  0  0  0.016984  0  3.88002  0  0.404771  0  -0.075884  0.005364  0  3.870889  0
C  C70  1  0.73784002  0.62592340  0.96593490  1  0  0.060779  0  3.607318  0  0  0.002951  0  3.876429  0  0  0.009295  0  3.882486  0  0.388988  0  -0.078506  -0.000934  0  3.871519  0
C  C71  1  0.26215940  0.37407730  0.03406480  1  0  0.060739  0  3.607355  0  0  0.00292  0  3.876471  0  0  0.009274  0  3.882515  0  0.388974  0  -0.078514  -0.000967  0  3.871564  0
C  C72  1  0.47939327  0.09046877  0.68146615  1  0  -0.02991  0  3.653273  0  0  -0.09992  0  3.921439  0  0  -0.095558  0  3.931756  0  0.321762  0  -0.065014  -0.102768  0  3.914309  0
C  C73  1  0.52060715  0.90953192  0.31853358  1  0  -0.029921  0  3.653229  0  0  -0.099889  0  3.9214  0  0  -0.095515  0  3.931721  0  0.321802  0  -0.064997  -0.102725  0  3.914266  0
C  C74  1  0.48257594  0.95083379  0.70861489  1  0  0.067282  0  3.6072  0  0  0.010413  0  3.874958  0  0  0.017233  0  3.880465  0  0.402722  0  -0.07115  0.006077  0  3.870865  0
C  C75  1  0.51742413  0.04916583  0.29138468  1  0  0.067284  0  3.607239  0  0  0.010422  0  3.874991  0  0  0.017245  0  3.88049  0  0.40271  0  -0.071145  0.006084  0  3.870897  0
C  C76  1  0.23580553  0.84387279  0.66672274  1  0  0.066012  0  3.635519  0  0  0.002123  0  3.90895  0  0  0.008625  0  3.915465  0  0.379505  0  -0.072323  -0.002384  0  3.905058  0
C  C77  1  0.76419354  0.15612683  0.33327755  1  0  0.065969  0  3.635571  0  0  0.00209  0  3.908989  0  0  0.008583  0  3.915518  0  0.379499  0  -0.07234  -0.002413  0  3.905092  0
C  C78  1  0.22516546  0.97665858  0.63397062  1  0  -0.045405  0  3.675915  0  0  -0.112798  0  3.938982  0  0  -0.108973  0  3.950114  0  0.253528  0  -0.07442  -0.115252  0  3.931154  0
C  C79  1  0.77483461  0.02334104  0.36602895  1  0  -0.045364  0  3.675969  0  0  -0.112728  0  3.939039  0  0  -0.108898  0  3.950165  0  0.253537  0  -0.074404  -0.115183  0  3.931207  0
C  C80  1  0.01571834  0.51047455  0.77892213  1  0  -0.033974  0  3.631525  0  0  -0.097453  0  3.88761  0  0  -0.093695  0  3.898552  0  0.280059  0  -0.066509  -0.099972  0  3.880506  0
C  C81  1  0.98428173  0.48952507  0.22107895  1  0  -0.033904  0  3.631453  0  0  -0.0974  0  3.887534  0  0  -0.093638  0  3.898472  0  0.280068  0  -0.066488  -0.099917  0  3.880428  0
C  C82  1  0.93915824  0.54494048  0.69086504  1  0  0.065803  0  3.637341  0  0  0.008055  0  3.910577  0  0  0.014127  0  3.917382  0  0.383405  0  -0.075483  0.003916  0  3.906445  0
C  C83  1  0.06084148  0.45505807  0.30913512  1  0  0.065801  0  3.637321  0  0  0.008095  0  3.910523  0  0  0.014167  0  3.917329  0  0.383405  0  -0.075478  0.003957  0  3.906391  0
C  C84  1  0.84876994  0.30324806  0.60596960  1  0  0.07099  0  3.634886  0  0  0.014604  0  3.90454  0  0  0.021171  0  3.910367  0  0.413957  0  -0.07195  0.010105  0  3.900187  0
C  C85  1  0.15123383  0.69675371  0.39403115  1  0  0.071042  0  3.63484  0  0  0.014599  0  3.904568  0  0  0.021165  0  3.910394  0  0.413966  0  -0.071957  0.0101  0  3.900211  0
C  C86  1  0.92287075  0.25709339  0.68914798  1  0  -0.045951  0  3.666464  0  0  -0.112474  0  3.926039  0  0  -0.108422  0  3.93718  0  0.237683  0  -0.073303  -0.114945  0  3.918217  0
C  C87  1  0.07712797  0.74290516  0.31085139  1  0  -0.045916  0  3.666492  0  0  -0.112366  0  3.925967  0  0  -0.108313  0  3.937108  0  0.237693  0  -0.073278  -0.114835  0  3.918147  0
C  C88  1  0.66685139  0.56341371  0.85583919  1  0  -0.052169  0  3.663874  0  0  -0.121644  0  3.928976  0  0  -0.117596  0  3.939443  0  0.259339  0  -0.07476  -0.124399  0  3.921838  0
C  C89  1  0.33314768  0.43658591  0.14416111  1  0  -0.052149  0  3.663853  0  0  -0.121624  0  3.928924  0  0  -0.117576  0  3.939395  0  0.259374  0  -0.07476  -0.124379  0  3.921783  0
N  N90  1  0.43541229  0.35035356  0.74346453  1  0  -0.642098  0  3.190698  0  0  -0.569905  0  3.491597  0  0  -0.598739  0  3.496052  0  -1.204467  0  -0.388912  -0.550117  0  3.488365  0
N  N91  1  0.56458778  0.64964606  0.25653656  1  0  -0.642119  0  3.190761  0  0  -0.56991  0  3.491639  0  0  -0.598742  0  3.496094  0  -1.204457  0  -0.388936  -0.550122  0  3.488409  0
N  N92  1  0.18714561  0.23307915  0.74019677  1  0  -0.626752  0  3.194975  0  0  -0.548841  0  3.493347  0  0  -0.579887  0  3.499299  0  -1.194569  0  -0.388836  -0.527144  0  3.489199  0
N  N93  1  0.81285446  0.76692047  0.25980355  1  0  -0.626765  0  3.194969  0  0  -0.548867  0  3.493351  0  0  -0.579912  0  3.499301  0  -1.194579  0  -0.388826  -0.527167  0  3.489192  0
N  N94  1  0.28470451  0.48816474  0.79558024  1  0  -0.570182  0  3.000116  0  0  -0.533679  0  3.283394  0  0  -0.55712  0  3.287764  0  -1.264747  0  -0.352091  -0.516851  0  3.280439  0
N  N95  1  0.71529421  0.51183381  0.20442064  1  0  -0.570127  0  3.000136  0  0  -0.533627  0  3.283414  0  0  -0.55707  0  3.287789  0  -1.264942  0  -0.35208  -0.516798  0  3.280457  0
N  N96  1  0.04519187  0.37754619  0.74186179  1  0  -0.19675  0  3.385203  0  0  -0.104797  0  3.619486  0  0  -0.125901  0  3.640877  0  -1.171914  0  -0.269512  -0.089766  0  3.604313  0
N  N97  1  0.95480820  0.62245344  0.25813854  1  0  -0.196746  0  3.385313  0  0  -0.10477  0  3.619541  0  0  -0.125874  0  3.640933  0  -1.171885  0  -0.269493  -0.089742  0  3.604366  0
N  N98  1  0.52651525  0.57816614  0.84916379  1  0  -0.199699  0  3.376704  0  0  -0.108295  0  3.614419  0  0  -0.128951  0  3.634734  0  -1.208493  0  -0.270088  -0.093409  0  3.599696  0
N  N99  1  0.47348482  0.42183349  0.15083578  1  0  -0.199668  0  3.37667  0  0  -0.108227  0  3.614334  0  0  -0.128885  0  3.634654  0  -1.208501  0  -0.270084  -0.093342  0  3.599611  0
N  N100  1  0.33885523  0.10265276  0.69156462  1  0  -0.22435  0  3.38572  0  0  -0.132007  0  3.627265  0  0  -0.153458  0  3.648792  0  -1.186995  0  -0.279402  -0.117005  0  3.612126  0
N  N101  1  0.66114519  0.89734793  0.30843587  1  0  -0.224379  0  3.385679  0  0  -0.132144  0  3.627324  0  0  -0.153591  0  3.648841  0  -1.186991  0  -0.27942  -0.117143  0  3.612182  0
Cl  Cl102  1  0.79192340  0.18688375  0.94994733  1  0  1.368248  0  6.2087  0  0  1.305823  0  6.76831  0  0  1.357679  0  6.746492  0  2.993138  0  0.726219  1.270135  0  6.782453  0
Cl  Cl103  1  0.20807702  0.81311695  0.05005241  1  0  1.368205  0  6.208683  0  0  1.305798  0  6.768254  0  0  1.357652  0  6.746447  0  2.993138  0  0.72622  1.270112  0  6.782395  0
Cl  Cl104  1  0.77129238  0.78382219  0.57522697  1  0  1.40118  0  6.16074  0  0  1.339926  0  6.716793  0  0  1.391446  0  6.696224  0  3.049385  0  0.733105  1.304572  0  6.729157  0
Cl  Cl105  1  0.22870804  0.21617850  0.42477428  1  0  1.401268  0  6.160694  0  0  1.340008  0  6.716752  0  0  1.391532  0  6.696176  0  3.049367  0  0.733121  1.304658  0  6.729119  0
O  O106  1  0.61455295  0.43329283  0.44453209  1  0  -0.838717  0  2.004164  0  0  -0.766113  0  2.231395  0  0  -0.791128  0  2.196703  0  -1.2358  0  -0.583466  -0.747883  0  2.256174  0
O  O107  1  0.38544747  0.56670787  0.55546765  1  0  -0.838731  0  2.00416  0  0  -0.766121  0  2.231374  0  0  -0.791147  0  2.196701  0  -1.235692  0  -0.583489  -0.747892  0  2.256153  0
O  O108  1  0.96479939  0.87617548  0.87496297  1  0  -0.810768  0  1.983217  0  0  -0.734131  0  2.204722  0  0  -0.758418  0  2.170171  0  -1.232552  0  -0.586342  -0.716876  0  2.228372  0
O  O109  1  0.03520133  0.12382307  0.12503722  1  0  -0.810758  0  1.983104  0  0  -0.734118  0  2.204699  0  0  -0.758412  0  2.170133  0  -1.232593  0  -0.586329  -0.716863  0  2.22835  0
O  O110  1  0.70325708  0.27161534  0.93236925  1  0  -0.514985  0  1.851352  0  0  -0.479468  0  2.087717  0  0  -0.496325  0  2.076391  0  -0.991136  0  -0.297364  -0.46779  0  2.094727  0
O  O111  1  0.29674299  0.72838428  0.06763032  1  0  -0.515024  0  1.851327  0  0  -0.479517  0  2.087693  0  0  -0.496375  0  2.076365  0  -0.991138  0  -0.297407  -0.46784  0  2.094704  0
O  O112  1  0.74531339  0.04970396  0.87563193  1  0  -0.537003  0  1.873027  0  0  -0.507377  0  2.123559  0  0  -0.524604  0  2.111406  0  -0.981861  0  -0.302207  -0.495395  0  2.131407  0
O  O113  1  0.25468703  0.95029674  0.12436780  1  0  -0.536964  0  1.872983  0  0  -0.507345  0  2.123511  0  0  -0.524572  0  2.111358  0  -0.981864  0  -0.302181  -0.495363  0  2.131358  0
O  O114  1  0.78423442  0.16101394  0.05668308  1  0  -0.564211  0  1.848296  0  0  -0.527727  0  2.089391  0  0  -0.543752  0  2.074261  0  -0.942284  0  -0.31192  -0.516604  0  2.099651  0
O  O115  1  0.21576565  0.83898569  0.94331649  1  0  -0.564159  0  1.848366  0  0  -0.527678  0  2.089449  0  0  -0.543702  0  2.074319  0  -0.942296  0  -0.311892  -0.516557  0  2.09971  0
O  O116  1  0.94010179  0.26464326  0.93915939  1  0  -0.561912  0  1.908036  0  0  -0.531371  0  2.169914  0  0  -0.548085  0  2.155207  0  -0.980642  0  -0.31245  -0.519935  0  2.179792  0
O  O117  1  0.05989828  0.73535636  0.06084018  1  0  -0.561925  0  1.907999  0  0  -0.531401  0  2.169899  0  0  -0.548116  0  2.155192  0  -0.980622  0  -0.312471  -0.519964  0  2.179776  0
O  O118  1  0.81255890  0.42787510  0.64766184  1  0  -0.337837  0  2.304582  0  0  -0.265424  0  2.576086  0  0  -0.281835  0  2.574389  0  -1.052132  0  -0.239629  -0.252769  0  2.577175  0
O  O119  1  0.18744117  0.57212452  0.35233849  1  0  -0.337912  0  2.304512  0  0  -0.265509  0  2.576039  0  0  -0.281924  0  2.574342  0  -1.052127  0  -0.239668  -0.252854  0  2.577129  0
O  O120  1  0.74807646  0.77486804  0.99685956  1  0  -0.348911  0  2.266472  0  0  -0.270249  0  2.521881  0  0  -0.288147  0  2.520371  0  -1.041265  0  -0.230286  -0.257774  0  2.522196  0
O  O121  1  0.25192430  0.22513372  0.00314034  1  0  -0.348835  0  2.266453  0  0  -0.270156  0  2.521867  0  0  -0.288054  0  2.520357  0  -1.041244  0  -0.230248  -0.25768  0  2.522179  0
O  O122  1  0.37130762  0.82848254  0.64873794  1  0  -0.317965  0  2.250421  0  0  -0.238497  0  2.490883  0  0  -0.254803  0  2.490008  0  -1.053252  0  -0.22498  -0.227009  0  2.491683  0
O  O123  1  0.62869280  0.17151815  0.35126103  1  0  -0.317935  0  2.250402  0  0  -0.238499  0  2.490886  0  0  -0.254806  0  2.490014  0  -1.053244  0  -0.224974  -0.227013  0  2.491683  0
O  O124  1  0.66179189  0.81362184  0.51536494  1  0  -0.557882  0  1.910826  0  0  -0.525305  0  2.177401  0  0  -0.542338  0  2.162946  0  -0.976446  0  -0.310721  -0.513117  0  2.186861  0
O  O125  1  0.33821058  0.18638207  0.48463533  1  0  -0.557838  0  1.910739  0  0  -0.525276  0  2.177343  0  0  -0.542309  0  2.162885  0  -0.976454  0  -0.310692  -0.513091  0  2.186803  0
O  O126  1  0.70792297  0.70999145  0.65545952  1  0  -0.538494  0  1.888494  0  0  -0.506253  0  2.145223  0  0  -0.522375  0  2.131138  0  -0.989845  0  -0.303922  -0.4947  0  2.154655  0
O  O127  1  0.29207610  0.29000818  0.34454002  1  0  -0.538591  0  1.888499  0  0  -0.506327  0  2.145226  0  0  -0.522437  0  2.131111  0  -0.989839  0  -0.303951  -0.494776  0  2.154656  0
O  O128  1  0.88192194  0.91839389  0.62243509  1  0  -0.544409  0  1.893576  0  0  -0.512914  0  2.14945  0  0  -0.530094  0  2.134955  0  -1.00622  0  -0.308829  -0.501144  0  2.159289  0
O  O129  1  0.11807978  0.08160466  0.37756741  1  0  -0.544388  0  1.893567  0  0  -0.512908  0  2.149452  0  0  -0.530093  0  2.134958  0  -1.006201  0  -0.308825  -0.50114  0  2.159287  0
O  O130  1  0.83415670  0.69257839  0.50542729  1  0  -0.556949  0  1.827716  0  0  -0.520247  0  2.062166  0  0  -0.536255  0  2.048718  0  -0.971901  0  -0.314381  -0.508994  0  2.071125  0
O  O131  1  0.16584372  0.30742230  0.49457320  1  0  -0.557008  0  1.827738  0  0  -0.520303  0  2.062201  0  0  -0.536315  0  2.04875  0  -0.971907  0  -0.314397  -0.509036  0  2.071122  0
