# generated using pymatgen
data_CuH8C7O9
_symmetry_space_group_name_H-M   'P 1'
_cell_length_a   7.60614929
_cell_length_b   8.13945686
_cell_length_c   9.31156406
_cell_angle_alpha   65.60054793
_cell_angle_beta   79.81148037
_cell_angle_gamma   62.25288484
_symmetry_Int_Tables_number   1
_chemical_formula_structural   CuH8C7O9
_chemical_formula_sum   'Cu2 H16 C14 O18'
_cell_volume   464.53812529
_cell_formula_units_Z   2
loop_
 _symmetry_equiv_pos_site_id
 _symmetry_equiv_pos_as_xyz
  1  'x, y, z'
loop_
 _atom_site_type_symbol
 _atom_site_label
 _atom_site_symmetry_multiplicity
 _atom_site_fract_x
 _atom_site_fract_y
 _atom_site_fract_z
 _atom_site_occupancy
 _atom_site_pbe_cm5_charge
 _atom_site_pbe_ddec_charge
 _atom_site_pbe_ddec_spin_density
 _atom_site_pbe_ddec_sum_bond_order
 _atom_site_pbe_magmom
Cu  Cu0  1  0.69666255  0.59677758  0.35388535  1  0.723875  0.995742  -0.762028  2.052912  -0.615
Cu  Cu1  1  0.30333297  0.40323064  0.64611139  1  0.723887  0.995852  -0.762037  2.052875  -0.615
H  H2  1  0.37767498  0.86130888  0.19433002  1  0.302457  0.401341  -0.000534  0.934659  -0.001
H  H3  1  0.62231942  0.13868886  0.80566780  1  0.302458  0.401304  -0.000534  0.934702  -0.001
H  H4  1  0.37892828  0.93206819  0.33274895  1  0.334567  0.430833  -0.001176  0.840675  -0.002
H  H5  1  0.62106162  0.06793735  0.66724959  1  0.334559  0.43083  -0.001176  0.840696  -0.002
H  H6  1  0.92235781  0.27432640  0.56199148  1  0.326196  0.411514  -0.000361  0.868757  0.0
H  H7  1  0.07763386  0.72567848  0.43799956  1  0.326165  0.411507  -0.000361  0.868714  0.0
H  H8  1  0.07175533  0.29640816  0.42119606  1  0.298977  0.407282  -0.000912  0.92379  -0.001
H  H9  1  0.92824120  0.70359095  0.57880093  1  0.29901  0.4074  -0.000913  0.92364  -0.001
H  H10  1  0.09637965  0.93563633  0.09764865  1  0.303427  0.343035  -4.4e-05  0.991132  0.0
H  H11  1  0.90362877  0.06436592  0.90235521  1  0.303478  0.343039  -4.4e-05  0.99103  0.0
H  H12  1  0.02760953  0.81027934  0.87624984  1  0.296104  0.353228  6.9e-05  0.987715  0.0
H  H13  1  0.97239114  0.18972205  0.12375861  1  0.296107  0.35321  6.9e-05  0.98768  0.0
H  H14  1  0.46982715  0.87963047  0.82580872  1  0.113472  0.141415  -0.000141  1.006089  0.0
H  H15  1  0.53017915  0.12037105  0.17418496  1  0.113495  0.14152  -0.000141  1.00631  0.0
H  H16  1  0.86691914  0.42916400  0.86953617  1  0.112494  0.13116  -0.000356  1.033982  0.0
H  H17  1  0.13308597  0.57083350  0.13046356  1  0.1125  0.131157  -0.000356  1.034056  0.0
C  C18  1  0.78985741  0.66731088  0.02289923  1  0.221033  0.560383  0.002402  4.121037  0.003
C  C19  1  0.21013971  0.33269567  0.97711517  1  0.220999  0.560313  0.002403  4.12092  0.003
C  C20  1  0.64760281  0.58538996  0.01886401  1  0.076984  0.15799  -0.001284  3.746348  -0.002
C  C21  1  0.35240816  0.41460987  0.98112972  1  0.076941  0.157787  -0.001283  3.746665  -0.002
C  C22  1  0.46861390  0.73492286  0.89786260  1  -0.093709  -0.250827  -0.001589  3.681768  -0.002
C  C23  1  0.53138665  0.26505574  0.10214522  1  -0.093751  -0.250837  -0.001589  3.681822  -0.002
C  C24  1  0.26859111  0.76320743  0.97561959  1  0.156245  0.542234  -0.000648  3.84249  -0.001
C  C25  1  0.73142490  0.23678957  0.02437891  1  0.156208  0.542034  -0.000648  3.842889  -0.001
C  C26  1  0.72540383  0.44245691  0.92756625  1  -0.103604  -0.293435  -0.001201  3.748608  -0.001
C  C27  1  0.27460081  0.55753809  0.07243991  1  -0.103582  -0.293432  -0.0012  3.748577  -0.001
C  C28  1  0.45971881  0.41429210  0.18719839  1  0.082324  0.181819  -0.007395  3.713794  -0.009
C  C29  1  0.54028778  0.58570835  0.81280105  1  0.082348  0.181835  -0.007395  3.713733  -0.009
C  C30  1  0.38969441  0.34974390  0.35652022  1  0.217421  0.561384  0.000286  4.153857  0.002
C  C31  1  0.61030223  0.65025822  0.64347663  1  0.217398  0.561322  0.000287  4.153951  0.002
O  O32  1  0.46373091  0.86219744  0.26465686  1  -0.566895  -0.757585  -0.048638  2.225225  -0.069
O  O33  1  0.53626260  0.13780924  0.73533860  1  -0.566897  -0.757576  -0.048632  2.22532  -0.069
O  O34  1  0.92868192  0.32500649  0.44724854  1  -0.565688  -0.751173  -0.043299  2.122891  -0.061
O  O35  1  0.07131437  0.67498658  0.55274872  1  -0.565698  -0.751317  -0.043296  2.122762  -0.061
O  O36  1  0.82393968  0.66780565  0.15265249  1  -0.323853  -0.536049  -0.058904  2.386534  -0.086
O  O37  1  0.17605300  0.33219968  0.84734468  1  -0.32392  -0.536165  -0.058925  2.385985  -0.086
O  O38  1  0.86964581  0.72989485  0.89466353  1  -0.297139  -0.498754  -0.011848  2.217905  -0.016
O  O39  1  0.13034936  0.27011389  0.10533950  1  -0.297033  -0.498574  -0.011842  2.218155  -0.016
O  O40  1  0.40127227  0.44349690  0.43426891  1  -0.327189  -0.575976  -0.059567  2.479431  -0.088
O  O41  1  0.59871969  0.55649990  0.56573497  1  -0.327169  -0.575978  -0.059574  2.47948  -0.088
O  O42  1  0.31457500  0.22842931  0.40317095  1  -0.316222  -0.554939  -0.001594  2.196017  -0.003
O  O43  1  0.68542685  0.77156972  0.59682752  1  -0.31619  -0.554882  -0.001595  2.196036  -0.003
O  O44  1  0.59145097  0.49901237  0.17635745  1  -0.193809  -0.302244  0.000172  2.571946  0.0
O  O45  1  0.40855438  0.50098797  0.82364005  1  -0.193752  -0.302109  0.000171  2.57202  0.0
O  O46  1  0.24052216  0.86441271  0.07804677  1  -0.387992  -0.55006  -0.000886  2.309446  -0.001
O  O47  1  0.75948377  0.13558230  0.92196029  1  -0.388054  -0.550015  -0.000886  2.309444  -0.001
O  O48  1  0.11448510  0.88174744  0.86007587  1  -0.389512  -0.548324  -0.000513  2.21971  -0.001
O  O49  1  0.88551297  0.11825773  0.13992174  1  -0.389472  -0.548218  -0.000513  2.219854  -0.001
