# generated using pymatgen
data_TbH24C30N5O8
_symmetry_space_group_name_H-M   'P 1'
_cell_length_a   9.62578845
_cell_length_b   17.26232138
_cell_length_c   27.57193591
_cell_angle_alpha   106.98692216
_cell_angle_beta   90.01202774
_cell_angle_gamma   106.19999355
_symmetry_Int_Tables_number   1
_chemical_formula_structural   TbH24C30N5O8
_chemical_formula_sum   'Tb4 H96 C120 N20 O32'
_cell_volume   4190.90111898
_cell_formula_units_Z   4
loop_
 _symmetry_equiv_pos_site_id
 _symmetry_equiv_pos_as_xyz
  1  'x, y, z'
loop_
 _atom_site_type_symbol
 _atom_site_label
 _atom_site_symmetry_multiplicity
 _atom_site_fract_x
 _atom_site_fract_y
 _atom_site_fract_z
 _atom_site_occupancy
 _atom_site_pbe_bader_charge
 _atom_site_pbe_bader_spin_density
 _atom_site_pbe_cm5_charge
 _atom_site_pbe_ddec_charge
 _atom_site_pbe_ddec_spin_density
 _atom_site_pbe_ddec_sum_bond_order
 _atom_site_pbe_magmom
Tb  Tb0  1  0.83358857  0.89848738  0.49808210  1  2.190037  0.000605  1.516913  2.085283  0.000143  2.155049  0.0
Tb  Tb1  1  0.93468646  0.10149016  0.00196175  1  2.18825  0.000592  1.517214  2.085624  0.000153  2.156744  0.0
Tb  Tb2  1  0.16639603  0.10151314  0.50191650  1  2.189931  0.000608  1.516805  2.085169  0.000148  2.155113  0.0
Tb  Tb3  1  0.06531693  0.89850846  0.99803578  1  2.188167  0.00059  1.517255  2.085586  0.000151  2.156946  0.0
H  H4  1  0.86336862  0.27816430  0.41644149  1  0.088393  -1.1e-05  0.100838  0.093604  2.3e-05  1.024543  0.0
H  H5  1  0.58544152  0.72141826  0.08369299  1  0.08719  -1.2e-05  0.100795  0.093571  2.1e-05  1.024584  0.0
H  H6  1  0.13664331  0.72183685  0.58356231  1  0.088218  -1.1e-05  0.100863  0.093667  2.3e-05  1.024359  0.0
H  H7  1  0.41456616  0.27858479  0.91630898  1  0.087401  -1.2e-05  0.100794  0.09359  2.1e-05  1.024514  0.0
H  H8  1  0.93960393  0.18415029  0.45807536  1  0.145804  -7e-05  0.112358  0.121216  0.000242  1.049226  0.0
H  H9  1  0.75552962  0.81526140  0.04190519  1  0.130781  -7.7e-05  0.112503  0.121712  0.000238  1.04836  0.0
H  H10  1  0.06038099  0.81585085  0.54193133  1  0.146119  -7e-05  0.112357  0.121246  0.000242  1.049111  0.0
H  H11  1  0.24447120  0.18474038  0.95809654  1  0.130646  -7.7e-05  0.112473  0.121661  0.000238  1.048326  0.0
H  H12  1  0.57664303  0.97505424  0.37641553  1  0.104055  0.000112  0.111348  0.120503  0.00013  0.989298  0.0
H  H13  1  0.60265892  0.02459512  0.12353992  1  0.10026  0.000111  0.111249  0.119966  0.000128  0.989569  0.0
H  H14  1  0.42334830  0.02494311  0.62358322  1  0.103484  0.000111  0.111336  0.120486  0.000129  0.989214  0.0
H  H15  1  0.39734886  0.97540603  0.87646097  1  0.100074  0.000111  0.111277  0.119983  0.000128  0.989781  0.0
H  H16  1  0.52433049  0.47815097  0.32147499  1  0.081518  -2.4e-05  0.103108  0.103297  -2.6e-05  1.015748  0.0
H  H17  1  0.04643315  0.52181786  0.17884850  1  0.107111  -2.3e-05  0.103409  0.103999  -2.5e-05  1.016326  0.0
H  H18  1  0.47568184  0.52184892  0.67852423  1  0.081533  -2.4e-05  0.103094  0.103271  -2.6e-05  1.015763  0.0
H  H19  1  0.95357422  0.47818455  0.82115299  1  0.106862  -2.3e-05  0.103411  0.104076  -2.5e-05  1.016288  0.0
H  H20  1  0.20071990  0.24814788  0.15087809  1  0.114767  4e-06  0.110222  0.118947  6.4e-05  0.989603  0.0
H  H21  1  0.95269701  0.75180389  0.34918300  1  0.118307  4e-06  0.110417  0.119341  6.3e-05  0.989107  0.0
H  H22  1  0.79927338  0.75185960  0.84912723  1  0.114711  4e-06  0.110234  0.118972  6.4e-05  0.989575  0.0
H  H23  1  0.04728405  0.24818333  0.65081570  1  0.118585  4e-06  0.110363  0.119181  6.3e-05  0.989018  0.0
H  H24  1  0.58278902  0.63443012  0.36760708  1  0.102253  3e-06  0.108868  0.115766  -1.5e-05  0.991207  0.0
H  H25  1  0.94793865  0.36559284  0.13268335  1  0.080484  3e-06  0.10867  0.115543  -1.5e-05  0.991451  0.0
H  H26  1  0.41720949  0.36556913  0.63239347  1  0.102137  3e-06  0.108831  0.115745  -1.5e-05  0.991125  0.0
H  H27  1  0.05206465  0.63440767  0.86732033  1  0.080702  3e-06  0.108664  0.115523  -1.5e-05  0.991508  0.0
H  H28  1  0.81049854  0.45356354  0.43193326  1  0.085547  0.000115  0.100641  0.099204  0.000122  1.022149  0.0
H  H29  1  0.35563377  0.54644146  0.06794258  1  0.091738  0.000117  0.101084  0.099643  0.000124  1.022479  0.0
H  H30  1  0.18950946  0.54644014  0.56807136  1  0.083777  0.000115  0.10066  0.099226  0.000122  1.022275  0.0
H  H31  1  0.64437775  0.45356096  0.93206073  1  0.091766  0.000117  0.101113  0.099658  0.000124  1.022392  0.0
H  H32  1  0.87367667  0.61049589  0.47636243  1  0.052771  -0.0  0.102906  0.108015  2.2e-05  0.999999  0.0
H  H33  1  0.26116435  0.38955413  0.02345413  1  0.096948  -1e-06  0.103006  0.108369  2.2e-05  0.998894  0.0
H  H34  1  0.12632668  0.38951096  0.52363987  1  0.053027  -0.0  0.102922  0.108076  2.2e-05  0.999973  0.0
H  H35  1  0.73884334  0.61044892  0.97654602  1  0.097086  -1e-06  0.102979  0.108316  2.2e-05  0.998924  0.0
H  H36  1  0.50803716  0.06847843  0.33118759  1  0.108456  -0.000136  0.103744  0.101972  -7.4e-05  1.022638  0.0
H  H37  1  0.44088621  0.93147915  0.16902336  1  0.108036  -0.000132  0.103776  0.102422  -6.9e-05  1.023062  0.0
H  H38  1  0.49199519  0.93153033  0.66881144  1  0.108383  -0.000136  0.103822  0.102096  -7.4e-05  1.022516  0.0
H  H39  1  0.55911637  0.06852200  0.83097753  1  0.108013  -0.000132  0.10376  0.102401  -6.9e-05  1.023032  0.0
H  H40  1  0.35403185  0.31953456  0.23477335  1  0.079286  -1.8e-05  0.102754  0.102922  -1.1e-05  1.012343  0.0
H  H41  1  0.03445576  0.68047795  0.26528776  1  0.113139  -1.7e-05  0.102577  0.102653  -1.1e-05  1.012983  0.0
H  H42  1  0.64598971  0.68047546  0.76522627  1  0.079462  -1.8e-05  0.102781  0.102931  -1.1e-05  1.012488  0.0
H  H43  1  0.96553954  0.31952321  0.73471168  1  0.113145  -1.7e-05  0.102626  0.102716  -1.1e-05  1.012903  0.0
H  H44  1  0.31925020  0.02152297  0.13688138  1  0.141419  -0.000905  0.109236  0.11692  -0.001553  1.012888  0.0
H  H45  1  0.29758835  0.97851404  0.36313134  1  0.145177  -0.000872  0.109454  0.118029  -0.001538  1.013193  0.0
H  H46  1  0.68074877  0.97848136  0.86311538  1  0.141831  -0.000905  0.109262  0.116906  -0.001554  1.01294  0.0
H  H47  1  0.70240274  0.02148076  0.63687528  1  0.144992  -0.000875  0.109432  0.117951  -0.001542  1.013325  0.0
H  H48  1  0.46454027  0.09034817  0.22260643  1  0.116466  3e-06  0.102711  0.10353  0.000121  1.023474  0.0
H  H49  1  0.37411841  0.90974567  0.27741871  1  0.098962  2e-06  0.102759  0.103374  0.000121  1.022862  0.0
H  H50  1  0.53548995  0.90965426  0.77738635  1  0.116649  3e-06  0.102754  0.103616  0.000121  1.023457  0.0
H  H51  1  0.62588656  0.09025611  0.72258810  1  0.098846  2e-06  0.102754  0.103311  0.000121  1.022921  0.0
H  H52  1  0.27050196  0.67668236  0.49969028  1  0.066363  0.001652  0.101126  0.109278  0.001146  1.001295  0.0
H  H53  1  0.59412131  0.32330560  0.00010785  1  0.041693  0.001733  0.101131  0.109186  0.001138  1.001214  0.0
H  H54  1  0.72951539  0.32332132  0.50031579  1  0.066856  0.001652  0.101113  0.10931  0.001146  1.001384  0.0
H  H55  1  0.40589717  0.67669970  0.99990423  1  0.041358  0.001736  0.101164  0.109161  0.001138  1.0012  0.0
H  H56  1  0.37263378  0.65646738  0.44515248  1  0.070019  0.001589  0.105741  0.117365  0.001021  0.987095  0.0
H  H57  1  0.71665270  0.34366195  0.05461131  1  0.050196  0.001718  0.105027  0.116073  0.001027  0.987766  0.0
H  H58  1  0.62738746  0.34354200  0.55485138  1  0.069843  0.001588  0.105766  0.117424  0.001019  0.987098  0.0
H  H59  1  0.28334102  0.65633602  0.94540061  1  0.051041  0.001713  0.105067  0.116129  0.001027  0.9878  0.0
H  H60  1  0.46506860  0.71162838  0.50722379  1  0.098144  0.002868  0.116524  0.137158  0.001779  0.980504  0.0
H  H61  1  0.75357068  0.28816978  0.99254759  1  0.087462  0.002888  0.116744  0.136798  0.001774  0.979871  0.0
H  H62  1  0.53494842  0.28839747  0.49277837  1  0.099065  0.002867  0.116572  0.137128  0.001778  0.9806  0.0
H  H63  1  0.24644329  0.71183959  0.00746351  1  0.087897  0.002885  0.116725  0.136796  0.001773  0.979808  0.0
H  H64  1  0.14512504  0.76231199  0.45781555  1  0.097961  -0.000776  0.105441  0.125687  -0.001526  1.000194  -0.001
H  H65  1  0.38323661  0.23824840  0.04231346  1  0.093252  -0.00077  0.105591  0.12577  -0.001529  0.998744  -0.001
H  H66  1  0.85483596  0.23767459  0.54218521  1  0.09823  -0.000776  0.105449  0.125628  -0.001526  1.00025  -0.001
H  H67  1  0.61676917  0.76175085  0.95768926  1  0.093011  -0.000769  0.105626  0.125815  -0.001528  0.998855  -0.001
H  H68  1  0.26841114  0.84892646  0.44239169  1  0.088383  0.006988  0.113634  0.132138  0.010564  1.013996  0.0
H  H69  1  0.41968142  0.15164754  0.05783854  1  0.096688  0.006878  0.113764  0.131965  0.010554  1.013154  0.0
H  H70  1  0.73153469  0.15105886  0.55760195  1  0.088537  0.006976  0.113683  0.132264  0.01056  1.013865  0.0
H  H71  1  0.58032007  0.84834728  0.94216228  1  0.096838  0.006883  0.113758  0.131908  0.010554  1.013214  0.0
H  H72  1  0.25025668  0.74256072  0.40436318  1  0.05957  -0.000994  0.102478  0.115654  -0.00191  0.981098  -0.001
H  H73  1  0.50853671  0.25799081  0.09569508  1  0.064328  -0.000991  0.102685  0.116151  -0.001912  0.980874  -0.001
H  H74  1  0.74970731  0.25742143  0.59563460  1  0.058939  -0.000992  0.102504  0.11565  -0.00191  0.981007  -0.001
H  H75  1  0.49147146  0.74200907  0.90431102  1  0.064564  -0.00099  0.102697  0.116123  -0.001912  0.980993  -0.001
H  H76  1  0.90159040  0.71205182  0.63854265  1  0.055769  -0.001449  0.106119  0.115355  -0.000889  0.986808  0.0
H  H77  1  0.18929355  0.28732965  0.86137248  1  0.031523  -0.001521  0.105904  0.114671  -0.000863  0.988518  0.0
H  H78  1  0.09842221  0.28794238  0.36144536  1  0.055549  -0.001448  0.106113  0.115173  -0.000889  0.986944  0.0
H  H79  1  0.81071674  0.71266201  0.13862885  1  0.031697  -0.001519  0.105905  0.114701  -0.000861  0.988279  0.0
H  H80  1  0.72792325  0.72055133  0.65817954  1  0.069235  -0.001906  0.101875  0.117964  -0.001343  1.009042  0.0
H  H81  1  0.00734803  0.27896274  0.84154081  1  0.062918  -0.001945  0.102142  0.117779  -0.00137  1.00932  0.0
H  H82  1  0.27206476  0.27942070  0.34180659  1  0.070149  -0.001905  0.101831  0.117844  -0.001345  1.009109  0.0
H  H83  1  0.99265856  0.72103398  0.15846072  1  0.06297  -0.001946  0.102142  0.117809  -0.00137  1.009178  0.0
H  H84  1  0.77514520  0.72438941  0.59568711  1  0.115004  -0.00296  0.119102  0.14351  -0.00184  0.971675  0.0
H  H85  1  0.05018702  0.27522377  0.90412256  1  0.087387  -0.003004  0.119087  0.14367  -0.001853  0.971006  0.0
H  H86  1  0.22484910  0.27558896  0.40429656  1  0.115307  -0.002958  0.11922  0.143541  -0.001839  0.97163  0.0
H  H87  1  0.94982599  0.72476915  0.09587538  1  0.087784  -0.003002  0.119119  0.143663  -0.001852  0.97105  0.0
H  H88  1  0.04324519  0.84641607  0.70878797  1  0.055657  0.000872  0.105404  0.119523  0.001899  0.977135  0.001
H  H89  1  0.19641801  0.15280731  0.79126232  1  0.069335  0.000868  0.105142  0.119318  0.001895  0.977415  0.001
H  H90  1  0.95672821  0.15358699  0.29120167  1  0.064127  0.000871  0.105403  0.119458  0.001899  0.976903  0.001
H  H91  1  0.80359378  0.84718941  0.20873487  1  0.069426  0.000867  0.105191  0.119363  0.001894  0.977408  0.001
H  H92  1  0.99034371  0.93988987  0.71425301  1  0.065208  -0.008053  0.108254  0.116314  -0.010331  1.015932  0.0
H  H93  1  0.04977763  0.05944163  0.78580633  1  0.052632  -0.008127  0.107868  0.116032  -0.010342  1.015529  0.0
H  H94  1  0.00959926  0.06011257  0.28572564  1  0.065204  -0.008054  0.108206  0.116193  -0.010326  1.01594  0.0
H  H95  1  0.95022060  0.94054876  0.21418752  1  0.052834  -0.008129  0.107814  0.115957  -0.010339  1.01564  0.0
H  H96  1  0.87499839  0.85554848  0.73408826  1  0.080329  0.00074  0.102513  0.119052  0.001593  1.004348  0.001
H  H97  1  0.01920052  0.14372947  0.76580609  1  0.068648  0.000735  0.102699  0.119023  0.001586  1.004638  0.001
H  H98  1  0.12496466  0.14444636  0.26589879  1  0.080493  0.00074  0.102487  0.118921  0.001593  1.00434  0.001
H  H99  1  0.98080205  0.85627168  0.23419589  1  0.068679  0.000736  0.102683  0.119047  0.001585  1.004636  0.001
C  C100  1  0.50592929  0.24829345  0.28298042  1  1.070999  -7.1e-05  0.253207  0.377753  4.7e-05  4.036091  0.0
C  C101  1  0.25776969  0.75171181  0.21710623  1  1.072684  -7.5e-05  0.254044  0.378158  4.3e-05  4.034917  0.0
C  C102  1  0.49411291  0.75171215  0.71701367  1  1.070695  -7.1e-05  0.252954  0.377541  4.7e-05  4.036105  0.0
C  C103  1  0.74222688  0.24829188  0.78289476  1  1.072628  -7.5e-05  0.25393  0.377963  4.3e-05  4.035249  0.0
C  C104  1  0.62526327  0.36449089  0.34833824  1  1.110543  -8.1e-05  0.254714  0.381474  -0.000108  4.020717  0.0
C  C105  1  0.26062892  0.63548445  0.15178080  1  1.067604  -7.4e-05  0.254891  0.382016  -0.000101  4.020278  0.0
C  C106  1  0.37474441  0.63551216  0.65166192  1  1.111053  -8.1e-05  0.254726  0.381647  -0.000108  4.020163  0.0
C  C107  1  0.73938532  0.36451924  0.84822274  1  1.068199  -7.4e-05  0.254988  0.382228  -0.000101  4.02028  0.0
C  C108  1  0.63540378  0.23384725  0.34711275  1  1.072338  3.1e-05  0.255594  0.382256  7.5e-05  4.036402  0.0
C  C109  1  0.40205000  0.76601377  0.15306416  1  1.043004  4.1e-05  0.255639  0.383589  8.5e-05  4.035239  0.0
C  C110  1  0.36462491  0.76615835  0.65288497  1  1.072124  3.1e-05  0.255616  0.382157  7.5e-05  4.03683  0.0
C  C111  1  0.59795696  0.23398991  0.84693901  1  1.042526  4.1e-05  0.255696  0.383635  8.5e-05  4.035451  0.0
C  C112  1  0.76331936  0.72357123  0.45181582  1  1.540194  0.000113  0.184897  0.556277  0.000431  4.261623  0.0
C  C113  1  0.03859862  0.27646062  0.04825718  1  1.569911  0.000119  0.185935  0.558619  0.000443  4.260069  0.0
C  C114  1  0.23667929  0.27643246  0.54818772  1  1.540203  0.000112  0.184929  0.556276  0.000431  4.26137  0.0
C  C115  1  0.96140681  0.72354622  0.95174658  1  1.569998  0.000119  0.185991  0.558717  0.000442  4.26  0.0
C  C116  1  0.76222627  0.07395300  0.41931734  1  -0.088906  -0.000262  -0.00706  -0.02308  -0.000767  3.946144  -0.001
C  C117  1  0.68873927  0.92555018  0.08062965  1  0.028855  -0.000274  -0.00683  -0.022926  -0.000805  3.945621  -0.001
C  C118  1  0.23775522  0.92604751  0.58068634  1  -0.089353  -0.00026  -0.007153  -0.023096  -0.000765  3.946163  -0.001
C  C119  1  0.31126227  0.07445097  0.91937124  1  0.029185  -0.000273  -0.006798  -0.022854  -0.000804  3.945649  -0.001
C  C120  1  0.80173893  0.01857451  0.44608945  1  1.562217  0.000521  0.22066  0.626624  0.001128  4.167959  0.0
C  C121  1  0.78334713  0.98088217  0.05376365  1  1.547281  0.000533  0.221264  0.627835  0.001124  4.171795  0.0
C  C122  1  0.19822791  0.98141334  0.55390937  1  1.562318  0.000522  0.220848  0.62672  0.001129  4.168422  0.0
C  C123  1  0.21666448  0.01911835  0.94623749  1  1.547271  0.000534  0.221283  0.627798  0.001125  4.171744  0.0
C  C124  1  0.80303573  0.21132474  0.40722924  1  -0.055524  -0.001005  -0.085275  -0.109305  -0.00105  3.984098  -0.001
C  C125  1  0.59212362  0.78829082  0.09288393  1  -0.089807  -0.000986  -0.08547  -0.108843  -0.00102  3.985815  -0.001
C  C126  1  0.19698433  0.78868021  0.59277381  1  -0.055676  -0.001003  -0.085266  -0.109366  -0.001048  3.98401  -0.001
C  C127  1  0.40786347  0.21170843  0.90711408  1  -0.090154  -0.000986  -0.085531  -0.108855  -0.00102  3.985816  -0.001
C  C128  1  0.66344104  0.45666292  0.37415678  1  -0.029714  4e-06  -0.009109  0.00427  -7e-06  3.973623  0.0
C  C129  1  0.20625604  0.54334342  0.12593580  1  -0.02161  6e-06  -0.008513  0.004678  -5e-06  3.973  0.0
C  C130  1  0.33655363  0.54333695  0.62584896  1  -0.030008  4e-06  -0.00895  0.004483  -7e-06  3.973534  0.0
C  C131  1  0.79374885  0.45666026  0.87406665  1  -0.02201  6e-06  -0.008514  0.004573  -5e-06  3.973206  0.0
C  C132  1  0.73092684  0.63085119  0.42454671  1  -0.01799  3e-06  -0.008629  -0.005974  1.4e-05  3.946039  0.0
C  C133  1  0.09886742  0.36919754  0.07550574  1  -0.052337  3e-06  -0.008788  -0.007325  1.3e-05  3.947015  0.0
C  C134  1  0.26907886  0.36914996  0.57545273  1  -0.018129  4e-06  -0.008645  -0.005945  1.4e-05  3.946079  0.0
C  C135  1  0.90113810  0.63080741  0.92449622  1  -0.05262  3e-06  -0.008755  -0.00737  1.3e-05  3.947004  0.0
C  C136  1  0.84475872  0.15904030  0.43049871  1  -0.039774  -0.000565  -0.080877  -0.099599  -0.000569  3.95558  0.0
C  C137  1  0.68599650  0.84046048  0.06950627  1  -0.041084  -0.000589  -0.080955  -0.100162  -0.000578  3.957533  0.0
C  C138  1  0.15524548  0.84095578  0.56950162  1  -0.039179  -0.000564  -0.080937  -0.099721  -0.000569  3.955554  0.0
C  C139  1  0.31400888  0.15954004  0.93049596  1  -0.041239  -0.000588  -0.080981  -0.100152  -0.000578  3.957651  0.0
C  C140  1  0.64043166  0.04092391  0.38367684  1  0.026214  0.001431  -0.074957  -0.081797  0.00152  3.947118  0.001
C  C141  1  0.60034162  0.95871711  0.11633811  1  -0.049997  0.001409  -0.074827  -0.080286  0.001454  3.946738  0.001
C  C142  1  0.35956310  0.95907408  0.61631985  1  0.026632  0.001432  -0.074999  -0.081774  0.00152  3.946817  0.001
C  C143  1  0.39966521  0.04128214  0.88366208  1  -0.049654  0.00141  -0.074866  -0.080376  0.001455  3.946857  0.001
C  C144  1  0.59980736  0.50770084  0.35562565  1  0.007107  2e-06  -0.085633  -0.107447  -1e-06  3.979871  0.0
C  C145  1  0.09180149  0.49231799  0.14456638  1  -0.035184  1e-05  -0.086069  -0.108711  8e-06  3.981519  0.0
C  C146  1  0.40020633  0.49229968  0.64437295  1  0.007289  2e-06  -0.085695  -0.107486  -1e-06  3.979942  0.0
C  C147  1  0.90820724  0.50768506  0.85543595  1  -0.031272  1e-05  -0.086095  -0.108899  8e-06  3.981537  0.0
C  C148  1  0.16729786  0.08838194  0.08834694  1  1.590369  -0.00047  0.228712  0.633713  -0.001795  4.174371  0.0
C  C149  1  0.07901299  0.91162781  0.41168159  1  1.599471  -0.00046  0.229482  0.63358  -0.001761  4.174258  0.0
C  C150  1  0.83270689  0.91161731  0.91165360  1  1.590671  -0.00047  0.228726  0.633743  -0.001795  4.174324  0.0
C  C151  1  0.92096455  0.08836067  0.58831988  1  1.599852  -0.00046  0.229313  0.633484  -0.001763  4.174233  0.0
C  C152  1  0.26002470  0.21472739  0.16700382  1  -0.01511  -7.6e-05  -0.080473  -0.091777  3.2e-05  3.963231  0.0
C  C153  1  0.04533955  0.78525234  0.33304822  1  -0.025025  -7e-05  -0.080634  -0.092738  3.4e-05  3.962143  0.0
C  C154  1  0.73998177  0.78527946  0.83299921  1  -0.014849  -7.6e-05  -0.080454  -0.091714  3.1e-05  3.962821  0.0
C  C155  1  0.95464797  0.21473741  0.66695385  1  -0.025628  -6.9e-05  -0.080534  -0.092591  3.5e-05  3.961663  0.0
C  C156  1  0.63232845  0.59390572  0.38094240  1  -0.101137  8.6e-05  -0.081609  -0.097045  7e-05  3.975156  0.0
C  C157  1  0.03777434  0.40612086  0.11924410  1  -0.031664  8.2e-05  -0.082169  -0.096723  6.4e-05  3.976759  0.0
C  C158  1  0.36767716  0.40609733  0.61905667  1  -0.100961  8.6e-05  -0.081524  -0.097031  6.9e-05  3.975148  0.0
C  C159  1  0.96222471  0.59388156  0.88075812  1  -0.035511  8.2e-05  -0.082169  -0.096618  6.4e-05  3.97676  0.0
C  C160  1  0.68165633  0.17846959  0.37132977  1  -0.009143  0.000559  -0.006806  0.005585  0.00043  3.9813  0.0
C  C161  1  0.50393999  0.82129146  0.12885531  1  -0.044886  0.000536  -0.006513  0.003983  0.00041  3.982623  0.0
C  C162  1  0.31836396  0.82153790  0.62867229  1  -0.008786  0.000559  -0.006756  0.005707  0.00043  3.981136  0.0
C  C163  1  0.49606385  0.17871222  0.87114605  1  -0.044767  0.000536  -0.006491  0.003862  0.000411  3.982884  0.0
C  C164  1  0.25186546  0.13095642  0.13963174  1  -0.015499  -0.001542  -0.006719  -0.021071  -0.002765  3.934131  -0.001
C  C165  1  0.12090260  0.86905549  0.36039096  1  -0.067684  -0.001544  -0.006285  -0.018795  -0.002725  3.933795  -0.001
C  C166  1  0.74813861  0.86904980  0.86036899  1  -0.015554  -0.001542  -0.006778  -0.021113  -0.002765  3.93409  -0.001
C  C167  1  0.87908596  0.13093426  0.63961038  1  -0.067473  -0.001545  -0.006257  -0.01872  -0.002728  3.933502  -0.001
C  C168  1  0.76231947  0.49387743  0.41790183  1  -0.071255  3.2e-05  -0.086578  -0.107338  5.1e-05  3.979456  0.0
C  C169  1  0.26734106  0.50612575  0.08205859  1  -0.033648  2.6e-05  -0.08652  -0.106809  4.5e-05  3.979614  0.0
C  C170  1  0.23768071  0.50612308  0.58210076  1  -0.06935  3.2e-05  -0.086669  -0.107499  5.1e-05  3.979883  0.0
C  C171  1  0.73267213  0.49387793  0.91794639  1  -0.033242  2.6e-05  -0.086512  -0.106745  4.5e-05  3.979691  0.0
C  C172  1  0.79667934  0.58041081  0.44256802  1  0.019279  5.8e-05  -0.085393  -0.09778  5e-05  3.98081  0.0
C  C173  1  0.21477721  0.41962194  0.05737250  1  -0.071223  7.1e-05  -0.086001  -0.098408  6.2e-05  3.980718  0.0
C  C174  1  0.20331158  0.41958780  0.55743785  1  0.019005  5.8e-05  -0.085413  -0.097836  5e-05  3.981068  0.0
C  C175  1  0.78522663  0.58038174  0.94262741  1  -0.071173  7.1e-05  -0.086002  -0.098339  6.2e-05  3.980963  0.0
C  C176  1  0.60199516  0.09255796  0.35910876  1  -0.071959  -0.000102  -0.07906  -0.097643  -0.000268  3.954872  0.0
C  C177  1  0.51041225  0.90723198  0.14103467  1  -0.024462  -9.7e-05  -0.079357  -0.098793  -0.000251  3.957958  0.0
C  C178  1  0.39803056  0.90745206  0.64089304  1  -0.07214  -0.000102  -0.079077  -0.097809  -0.000267  3.954448  0.0
C  C179  1  0.48960014  0.09277424  0.85896933  1  -0.024581  -9.6e-05  -0.079317  -0.098676  -0.00025  3.958031  0.0
C  C180  1  0.34402656  0.25393038  0.21343997  1  -0.071261  -0.000722  -0.085947  -0.115772  -0.00052  3.98742  0.0
C  C181  1  0.09013218  0.74608018  0.28661485  1  -0.079227  -0.000714  -0.085347  -0.115306  -0.000511  3.986493  0.0
C  C182  1  0.65598967  0.74607520  0.78656210  1  -0.07103  -0.000722  -0.085938  -0.115807  -0.00052  3.98733  0.0
C  C183  1  0.90987265  0.25391717  0.71339006  1  -0.079361  -0.000715  -0.085521  -0.115429  -0.000512  3.986642  0.0
C  C184  1  0.32615474  0.08610921  0.15946567  1  -0.059099  -0.003198  -0.080984  -0.098631  -0.005307  3.97426  -0.001
C  C185  1  0.23996520  0.91391603  0.34055245  1  -0.047479  -0.003158  -0.082171  -0.10165  -0.00528  3.97722  -0.001
C  C186  1  0.67385182  0.91389575  0.84053447  1  -0.059077  -0.003199  -0.080873  -0.09837  -0.005307  3.974513  -0.001
C  C187  1  0.76003213  0.08607878  0.65945345  1  -0.047269  -0.00316  -0.082237  -0.101663  -0.005284  3.977108  -0.001
C  C188  1  0.41737730  0.20878301  0.23363084  1  -0.027695  -0.000191  -0.010837  -0.00268  9.2e-05  3.990114  0.0
C  C189  1  0.20864758  0.79125724  0.26642017  1  -0.044153  -0.000185  -0.011113  -0.002678  9.9e-05  3.987914  0.0
C  C190  1  0.58265785  0.79122511  0.76636735  1  -0.028235  -0.000191  -0.010837  -0.002674  9.1e-05  3.989684  0.0
C  C191  1  0.79134971  0.20874581  0.73358252  1  -0.044202  -0.000184  -0.011044  -0.00269  9.9e-05  3.988355  0.0
C  C192  1  0.40686894  0.12428456  0.20635413  1  -0.102582  -0.001178  -0.084241  -0.107047  -0.000924  3.973656  -0.001
C  C193  1  0.28250319  0.87580082  0.29367050  1  -0.061461  -0.00115  -0.083971  -0.106185  -0.000907  3.971122  -0.001
C  C194  1  0.59315591  0.87572166  0.79364226  1  -0.10327  -0.001178  -0.084441  -0.107407  -0.000924  3.973864  -0.001
C  C195  1  0.71750467  0.12419842  0.70633658  1  -0.06118  -0.001151  -0.083888  -0.105991  -0.000908  3.971077  -0.001
C  C196  1  0.47333918  0.85333749  0.49708247  1  1.433108  0.610097  0.237745  0.295119  0.667809  3.667157  0.339
C  C197  1  0.61974203  0.14672464  0.00295747  1  1.443642  0.609894  0.238527  0.296421  0.668087  3.666644  0.339
C  C198  1  0.52661689  0.14668077  0.50291540  1  1.431167  0.610198  0.237798  0.295215  0.667864  3.667931  0.339
C  C199  1  0.38026656  0.85327398  0.99704042  1  1.444108  0.609856  0.238458  0.296359  0.668078  3.666871  0.339
C  C200  1  0.36911324  0.70171149  0.48231705  1  0.214656  0.036214  -0.12655  -0.252678  0.04024  3.873624  0.029
C  C201  1  0.66772060  0.29831022  0.01749072  1  0.265107  0.036057  -0.12551  -0.2503  0.04023  3.871949  0.029
C  C202  1  0.63089273  0.29829852  0.51768547  1  0.213164  0.036223  -0.126602  -0.252743  0.040245  3.873953  0.029
C  C203  1  0.33229155  0.70169345  0.98251898  1  0.264119  0.036068  -0.125531  -0.250292  0.040241  3.871949  0.029
C  C204  1  0.25066798  0.78392321  0.44323269  1  0.235151  0.007468  -0.129503  -0.273243  0.012846  3.896377  0.006
C  C205  1  0.46714064  0.21656790  0.05686484  1  0.228116  0.007544  -0.129333  -0.273483  0.012833  3.894259  0.006
C  C206  1  0.74929199  0.21606338  0.55676480  1  0.235496  0.007475  -0.129399  -0.273036  0.012852  3.895966  0.006
C  C207  1  0.53286275  0.78343071  0.94314103  1  0.228003  0.007549  -0.129483  -0.273513  0.012842  3.894771  0.006
C  C208  1  0.87476586  0.88300832  0.62560856  1  1.408809  -0.593907  0.221765  0.25431  -0.648872  3.689383  -0.318
C  C209  1  0.99125082  0.11665009  0.87440549  1  1.405947  -0.593794  0.220603  0.253891  -0.649137  3.689407  -0.318
C  C210  1  0.12518360  0.11698841  0.37438064  1  1.407056  -0.593973  0.221582  0.254093  -0.648899  3.689319  -0.318
C  C211  1  0.00876106  0.88334474  0.12558845  1  1.40576  -0.593805  0.22052  0.253679  -0.649141  3.688985  -0.318
C  C212  1  0.81638482  0.74209842  0.63563672  1  0.241524  -0.034248  -0.126567  -0.252984  -0.038807  3.849767  -0.027
C  C213  1  0.07393738  0.25742124  0.86420425  1  0.251394  -0.035336  -0.126628  -0.251747  -0.038793  3.850369  -0.027
C  C214  1  0.18360618  0.25788375  0.36435054  1  0.240344  -0.034244  -0.126587  -0.252784  -0.038797  3.850188  -0.027
C  C215  1  0.92607482  0.74257421  0.13579343  1  0.25078  -0.035335  -0.126615  -0.251767  -0.038789  3.850045  -0.027
C  C216  1  0.95060076  0.87105661  0.70608533  1  0.260452  -0.006948  -0.126498  -0.263975  -0.011615  3.912265  -0.005
C  C217  1  0.07906320  0.12826654  0.79389810  1  0.274046  -0.006827  -0.127043  -0.264065  -0.011634  3.913323  -0.005
C  C218  1  0.04937088  0.12894709  0.29390660  1  0.251428  -0.006948  -0.126214  -0.263486  -0.011621  3.911786  -0.005
C  C219  1  0.92094502  0.87172512  0.20609815  1  0.272986  -0.006825  -0.126995  -0.264018  -0.011633  3.913142  -0.005
N  N220  1  0.67985307  0.31793642  0.37042475  1  -1.204996  0.000154  -0.313954  -0.420863  0.000137  3.213736  0.0
N  N221  1  0.36209677  0.68194082  0.12973790  1  -1.164197  0.000125  -0.314453  -0.421922  0.000106  3.212519  0.0
N  N222  1  0.32015589  0.68206917  0.62957587  1  -1.204886  0.000154  -0.314043  -0.421003  0.000137  3.213874  0.0
N  N223  1  0.63790635  0.31806350  0.87026213  1  -1.163693  0.000125  -0.314568  -0.422  0.000106  3.212722  0.0
N  N224  1  0.53715053  0.33259326  0.30476085  1  -1.203782  -6.3e-05  -0.314479  -0.426532  -3.5e-05  3.219559  0.0
N  N225  1  0.20436716  0.66744060  0.19531065  1  -1.193556  -3.3e-05  -0.314083  -0.42629  -6e-06  3.221138  0.0
N  N226  1  0.46287992  0.66741169  0.69523676  1  -1.204138  -6.3e-05  -0.314276  -0.42645  -3.5e-05  3.219179  0.0
N  N227  1  0.79564477  0.33256055  0.80469206  1  -1.193846  -3.3e-05  -0.314025  -0.426203  -6e-06  3.221181  0.0
N  N228  1  0.54973135  0.19619619  0.30332984  1  -1.183789  -7.9e-05  -0.311708  -0.414454  5.1e-05  3.230098  0.0
N  N229  1  0.35403173  0.80373373  0.19680437  1  -1.183937  -5e-05  -0.312016  -0.414776  8e-05  3.229717  0.0
N  N230  1  0.45031804  0.80381132  0.69666170  1  -1.183238  -8e-05  -0.311665  -0.41432  5.1e-05  3.230195  0.0
N  N231  1  0.64598042  0.19626995  0.80320061  1  -1.184147  -5e-05  -0.311989  -0.414729  8e-05  3.229912  0.0
N  N232  1  0.36886368  0.78293307  0.47582142  1  -1.201807  0.061481  -0.266566  0.016134  0.031649  3.781909  0.031
N  N233  1  0.58602579  0.21724449  0.02415082  1  -1.20393  0.061624  -0.267824  0.014827  0.031601  3.783963  0.031
N  N234  1  0.63110557  0.21706998  0.52417656  1  -1.201077  0.061435  -0.266695  0.015934  0.031625  3.782383  0.031
N  N235  1  0.41397670  0.78275856  0.97585369  1  -1.204454  0.061618  -0.26767  0.01499  0.03156  3.784466  0.031
N  N236  1  0.87762632  0.83448976  0.65477282  1  -1.217633  -0.066033  -0.273632  0.0062  -0.037133  3.789065  -0.037
N  N237  1  0.04256172  0.16501577  0.84514971  1  -1.172648  -0.064886  -0.271986  0.00624  -0.037219  3.789375  -0.037
N  N238  1  0.12234337  0.16550380  0.34521834  1  -1.21635  -0.06598  -0.273782  0.006296  -0.037097  3.789617  -0.037
N  N239  1  0.95745201  0.83497652  0.15484340  1  -1.171828  -0.064866  -0.272207  0.00608  -0.037225  3.788871  -0.037
O  O240  1  0.68503487  0.76463834  0.43963547  1  -1.176304  0.002231  -0.373471  -0.614408  0.000551  2.198116  0.001
O  O241  1  0.91958823  0.23528120  0.06058504  1  -1.165682  0.002178  -0.374056  -0.61545  0.000486  2.19589  0.001
O  O242  1  0.31493725  0.23536216  0.56037837  1  -1.176281  0.002231  -0.373459  -0.614337  0.000549  2.197907  0.001
O  O243  1  0.08041855  0.76472628  0.93941811  1  -1.16579  0.002178  -0.374108  -0.615494  0.000486  2.195903  0.001
O  O244  1  0.92805506  0.04310346  0.47009813  1  -1.211953  0.000844  -0.430006  -0.74683  0.000394  2.469675  0.001
O  O245  1  0.88513713  0.95648849  0.02974864  1  -1.210584  0.000835  -0.429836  -0.746624  0.000384  2.473143  0.001
O  O246  1  0.07191490  0.95688439  0.52990431  1  -1.212118  0.000845  -0.430124  -0.746848  0.000393  2.469957  0.001
O  O247  1  0.11486770  0.04350886  0.97025120  1  -1.210462  0.000835  -0.429869  -0.746653  0.000384  2.473047  0.001
O  O248  1  0.71021134  0.94918672  0.44521995  1  -1.161336  0.007195  -0.372545  -0.615134  0.010915  2.210369  0.003
O  O249  1  0.76097974  0.05020994  0.05462702  1  -1.155251  0.007116  -0.373894  -0.616578  0.010862  2.214061  0.003
O  O250  1  0.28976024  0.05079607  0.55477177  1  -1.161379  0.007201  -0.37254  -0.615141  0.010923  2.210555  0.003
O  O251  1  0.23902509  0.94978742  0.94537173  1  -1.155411  0.007116  -0.373853  -0.616511  0.010862  2.214087  0.003
O  O252  1  0.86830118  0.75933272  0.48699817  1  -1.189614  -0.003543  -0.386031  -0.649569  -0.003677  2.23271  -0.002
O  O253  1  0.10757641  0.24078196  0.01296875  1  -1.193578  -0.00354  -0.38628  -0.650601  -0.003676  2.232339  -0.002
O  O254  1  0.13169657  0.24067540  0.51300255  1  -1.189483  -0.003543  -0.386088  -0.649659  -0.003677  2.232516  -0.002
O  O255  1  0.89241574  0.75922743  0.98702894  1  -1.193626  -0.00354  -0.386289  -0.650638  -0.003676  2.23245  -0.002
O  O256  1  0.58351357  0.86674227  0.52448265  1  -1.116912  0.242489  -0.290993  -0.465839  0.218347  2.445767  0.192
O  O257  1  0.71623140  0.13303629  0.97550284  1  -1.121761  0.242592  -0.291213  -0.466505  0.218285  2.443957  0.192
O  O258  1  0.41643967  0.13328486  0.47551249  1  -1.115498  0.242426  -0.291018  -0.465968  0.218325  2.446309  0.192
O  O259  1  0.28377755  0.86696929  0.02449778  1  -1.121648  0.24262  -0.291193  -0.466559  0.218315  2.443774  0.192
O  O260  1  0.08358721  0.12502545  0.07479197  1  -1.185212  -0.000448  -0.389808  -0.647614  -0.000919  2.307429  0.0
O  O261  1  0.95878645  0.87489124  0.42526550  1  -1.184159  -0.000438  -0.390198  -0.647418  -0.000909  2.308357  0.0
O  O262  1  0.91642264  0.87497570  0.92520893  1  -1.185339  -0.000449  -0.389792  -0.647587  -0.000919  2.307642  0.0
O  O263  1  0.04119164  0.12510041  0.57473438  1  -1.183896  -0.000437  -0.390062  -0.647282  -0.000907  2.307877  0.0
O  O264  1  0.18892015  0.01923279  0.06267360  1  -1.187287  0.000698  -0.399674  -0.66751  0.000214  2.350973  0.001
O  O265  1  0.16970527  0.98084891  0.43734216  1  -1.194554  0.000701  -0.400602  -0.668546  0.000217  2.35035  0.001
O  O266  1  0.81107470  0.98076330  0.93732745  1  -1.187709  0.000698  -0.399725  -0.667613  0.000215  2.350858  0.001
O  O267  1  0.83027010  0.01914147  0.56266075  1  -1.195092  0.000699  -0.400555  -0.668583  0.000215  2.350567  0.001
O  O268  1  0.82149065  0.86401746  0.58198915  1  -1.107669  -0.25537  -0.258956  -0.424319  -0.231218  2.482675  -0.206
O  O269  1  0.95703065  0.13580671  0.91801326  1  -1.105171  -0.255242  -0.258646  -0.423823  -0.231141  2.482726  -0.206
O  O270  1  0.17846913  0.13595837  0.41800202  1  -1.106619  -0.255362  -0.258838  -0.424245  -0.23125  2.482081  -0.206
O  O271  1  0.04299338  0.86418749  0.08198092  1  -1.105075  -0.25525  -0.258413  -0.423477  -0.231144  2.482516  -0.206
