# generated using pymatgen
data_Zn2H28C31(NO2)4
_symmetry_space_group_name_H-M   'P 1'
_cell_length_a   13.44125388
_cell_length_b   14.65632401
_cell_length_c   19.63393456
_cell_angle_alpha   90.00020188
_cell_angle_beta   104.65141754
_cell_angle_gamma   89.99898027
_symmetry_Int_Tables_number   1
_chemical_formula_structural   Zn2H28C31(NO2)4
_chemical_formula_sum   'Zn8 H112 C124 N16 O32'
_cell_volume   3742.09950212
_cell_formula_units_Z   4
loop_
 _symmetry_equiv_pos_site_id
 _symmetry_equiv_pos_as_xyz
  1  'x, y, z'
loop_
 _atom_site_type_symbol
 _atom_site_label
 _atom_site_symmetry_multiplicity
 _atom_site_fract_x
 _atom_site_fract_y
 _atom_site_fract_z
 _atom_site_occupancy
 _atom_site_pbe_bader_charge
 _atom_site_pbe_bader_spin_density
 _atom_site_pbe_cm5_charge
 _atom_site_pbe_ddec_charge
 _atom_site_pbe_ddec_spin_density
 _atom_site_pbe_ddec_sum_bond_order
 _atom_site_pbe_magmom
Zn  Zn0  1  0.72053726  0.68422687  0.73547512  1  1.243197  0  0.691964  0.740663  0  2.419833  0
Zn  Zn1  1  0.27946493  0.18423064  0.76452068  1  1.243104  0  0.691906  0.740592  0  2.419951  0
Zn  Zn2  1  0.27946520  0.31578288  0.26452564  1  1.24286  0  0.691933  0.740508  0  2.419949  0
Zn  Zn3  1  0.72052761  0.81577161  0.23547617  1  1.243372  0  0.691892  0.740436  0  2.419872  0
Zn  Zn4  1  0.24451443  0.63256841  0.74874440  1  1.200857  0  0.680328  0.762173  0  2.336553  0
Zn  Zn5  1  0.75548872  0.13256579  0.75125347  1  1.201009  0  0.68034  0.762112  0  2.336535  0
Zn  Zn6  1  0.75549130  0.36742838  0.25125137  1  1.201029  0  0.680317  0.762229  0  2.336482  0
Zn  Zn7  1  0.24450432  0.86744192  0.24875112  1  1.201172  0  0.680308  0.762174  0  2.336551  0
H  H8  1  0.23630840  0.78261511  0.80614135  1  0.43271  0  0.300608  0.254475  0  0.953899  0
H  H9  1  0.76369014  0.28261617  0.69385863  1  0.432717  0  0.300616  0.254508  0  0.953813  0
H  H10  1  0.76369158  0.21737213  0.19386403  1  0.432635  0  0.300577  0.254325  0  0.95412  0
H  H11  1  0.23630927  0.71738335  0.30614105  1  0.432718  0  0.300619  0.254511  0  0.953781  0
H  H12  1  0.42119147  0.64355806  0.71540432  1  0.502814  0  0.300429  0.27372  0  0.975717  0
H  H13  1  0.57881300  0.14355573  0.78459384  1  0.502843  0  0.300384  0.273601  0  0.975688  0
H  H14  1  0.57882084  0.35644009  0.28460238  1  0.5029  0  0.300563  0.273935  0  0.975686  0
H  H15  1  0.42117337  0.85644721  0.21540236  1  0.502905  0  0.300501  0.273664  0  0.975819  0
H  H16  1  0.91296590  0.75757137  0.83463836  1  0.15962  0  0.123201  0.103751  0  1.011355  0
H  H17  1  0.08703775  0.25758050  0.66536251  1  0.159039  0  0.123216  0.103818  0  1.011171  0
H  H18  1  0.08703650  0.24244521  0.16536392  1  0.159738  0  0.123247  0.103861  0  1.011333  0
H  H19  1  0.91295886  0.74243471  0.33462848  1  0.159574  0  0.123251  0.103793  0  1.011289  0
H  H20  1  0.08280600  0.81809460  0.82547947  1  0.07592  0  0.118306  0.128072  0  0.977133  0
H  H21  1  0.91719636  0.31810263  0.67452388  1  0.075922  0  0.118328  0.128059  0  0.977082  0
H  H22  1  0.91719880  0.18191448  0.17452071  1  0.076092  0  0.118256  0.128036  0  0.977019  0
H  H23  1  0.08280462  0.68191940  0.32547508  1  0.076236  0  0.118289  0.128057  0  0.977018  0
H  H24  1  0.99624624  0.74411861  0.60481620  1  0.110987  0  0.119335  0.128995  0  0.976403  0
H  H25  1  0.00375236  0.24410496  0.89518164  1  0.111157  0  0.119357  0.129062  0  0.976322  0
H  H26  1  0.00375697  0.25587546  0.39518521  1  0.110946  0  0.11938  0.129017  0  0.976459  0
H  H27  1  0.99624652  0.75588842  0.10481080  1  0.110855  0  0.119369  0.129016  0  0.976316  0
H  H28  1  0.82946606  0.68690170  0.62360109  1  0.128108  0  0.124617  0.101163  0  0.993083  0
H  H29  1  0.17053524  0.18689276  0.87639659  1  0.128172  0  0.124605  0.101155  0  0.993043  0
H  H30  1  0.17053398  0.31309646  0.37640277  1  0.128008  0  0.124565  0.101075  0  0.993216  0
H  H31  1  0.82945611  0.81309789  0.12358986  1  0.127876  0  0.12452  0.101034  0  0.993125  0
H  H32  1  0.16212428  0.80636959  0.65154792  1  0.102345  0  0.117452  0.102897  0  0.964814  0
H  H33  1  0.83787143  0.30636883  0.84845313  1  0.102258  0  0.117445  0.102907  0  0.964812  0
H  H34  1  0.83788266  0.19363267  0.34845776  1  0.102227  0  0.117465  0.10293  0  0.964776  0
H  H35  1  0.16213189  0.69365048  0.15154525  1  0.102035  0  0.117492  0.10301  0  0.964592  0
H  H36  1  0.15914701  0.89589220  0.71216740  1  0.039269  0  0.113291  0.101295  0  0.957895  0
H  H37  1  0.84084768  0.39589042  0.78783371  1  0.039289  0  0.11325  0.101292  0  0.957985  0
H  H38  1  0.84086144  0.10410868  0.28783907  1  0.039142  0  0.113282  0.101282  0  0.957924  0
H  H39  1  0.15915122  0.60412138  0.21215823  1  0.039494  0  0.11326  0.101271  0  0.957968  0
H  H40  1  0.34330874  0.80942356  0.69486557  1  0.044358  0  0.11394  0.066683  0  0.942079  0
H  H41  1  0.65668399  0.30942416  0.80513034  1  0.044416  0  0.113952  0.066782  0  0.942082  0
H  H42  1  0.65670270  0.19056777  0.30514401  1  0.044104  0  0.114007  0.066762  0  0.941937  0
H  H43  1  0.34331320  0.69058150  0.19486637  1  0.044397  0  0.113984  0.066833  0  0.94195  0
H  H44  1  0.31181742  0.95598595  0.75377327  1  0.054983  0  0.09036  0.134323  0  1.038872  0
H  H45  1  0.68816671  0.45599189  0.74623010  1  0.055107  0  0.09037  0.13432  0  1.038601  0
H  H46  1  0.68819566  0.04400470  0.24623357  1  0.055597  0  0.090393  0.134407  0  1.038721  0
H  H47  1  0.31182251  0.54401991  0.25377326  1  0.055144  0  0.090349  0.134335  0  1.038742  0
H  H48  1  0.44318532  0.92711619  0.78124125  1  0.032886  0  0.088836  0.130728  0  1.035048  0
H  H49  1  0.55679645  0.42711457  0.71875751  1  0.032254  0  0.088763  0.130594  0  1.035163  0
H  H50  1  0.55682077  0.07287378  0.21876631  1  0.032635  0  0.088824  0.130831  0  1.034886  0
H  H51  1  0.44319210  0.57288632  0.28124266  1  0.032827  0  0.088852  0.130743  0  1.035093  0
H  H52  1  0.36245478  0.90437321  0.83786251  1  0.045692  0  0.093102  0.135079  0  0.996149  0
H  H53  1  0.63753218  0.40437684  0.66213360  1  0.045685  0  0.09309  0.135076  0  0.995958  0
H  H54  1  0.63755135  0.09562699  0.16214403  1  0.045862  0  0.093116  0.135141  0  0.996193  0
H  H55  1  0.36246111  0.59563633  0.33786391  1  0.045707  0  0.093116  0.135113  0  0.996003  0
H  H56  1  0.42627368  0.74236688  0.84618443  1  0.057573  0  0.113363  0.104115  0  0.975507  0
H  H57  1  0.57372493  0.24236399  0.65381443  1  0.057465  0  0.113339  0.104136  0  0.975605  0
H  H58  1  0.57373469  0.25762241  0.15382458  1  0.057804  0  0.113291  0.103953  0  0.975663  0
H  H59  1  0.42626679  0.75764235  0.34618379  1  0.0575  0  0.113363  0.10411  0  0.975637  0
H  H60  1  0.50174287  0.76408644  0.78495684  1  0.071757  0  0.104324  0.088864  0  0.998371  0
H  H61  1  0.49825304  0.26408234  0.71504005  1  0.0716  0  0.104333  0.088897  0  0.998369  0
H  H62  1  0.49826629  0.23591035  0.21505130  1  0.071794  0  0.104321  0.088857  0  0.998484  0
H  H63  1  0.50174402  0.73592605  0.28496020  1  0.071615  0  0.104375  0.08889  0  0.998382  0
H  H64  1  0.46689398  0.59944672  0.86521281  1  0.060549  0  0.116307  0.103033  0  0.965184  0
H  H65  1  0.53311144  0.09944031  0.63478336  1  0.060473  0  0.116289  0.10304  0  0.965164  0
H  H66  1  0.53311065  0.40054393  0.13479243  1  0.060623  0  0.116307  0.103093  0  0.965039  0
H  H67  1  0.46688973  0.90055990  0.36521003  1  0.060162  0  0.116336  0.103142  0  0.965034  0
H  H68  1  0.54651607  0.58427706  0.80620587  1  0.112812  0  0.112191  0.109946  0  1.004493  0
H  H69  1  0.45348503  0.08427836  0.69378944  1  0.112936  0  0.112195  0.109954  0  1.004485  0
H  H70  1  0.45348625  0.41571428  0.19379894  1  0.113114  0  0.112218  0.109928  0  1.004501  0
H  H71  1  0.54650929  0.91572526  0.30620061  1  0.112882  0  0.112175  0.109919  0  1.004526  0
H  H72  1  0.35301992  0.50421255  0.68477353  1  0.13137  0  0.115886  0.126676  0  1.024277  0
H  H73  1  0.64698420  0.00421131  0.81522568  1  0.131458  0  0.115899  0.126704  0  1.024326  0
H  H74  1  0.64697234  0.49577674  0.31523142  1  0.131135  0  0.115893  0.126732  0  1.024318  0
H  H75  1  0.35301456  0.99579913  0.18477030  1  0.131751  0  0.115898  0.126694  0  1.024217  0
H  H76  1  0.28452470  0.34473037  0.67024322  1  0.13839  0  0.122934  0.107537  0  1.007737  0
H  H77  1  0.71548032  0.84472714  0.82975714  1  0.138194  0  0.122938  0.107581  0  1.00762  0
H  H78  1  0.71546804  0.65525755  0.32976997  1  0.138534  0  0.122993  0.107617  0  1.007796  0
H  H79  1  0.28453065  0.15528603  0.17024369  1  0.138276  0  0.122982  0.107548  0  1.007828  0
H  H80  1  0.49073730  0.43976743  0.90358824  1  0.133939  0  0.113089  0.123687  0  0.9922  0
H  H81  1  0.50926969  0.93976572  0.59641225  1  0.133918  0  0.113119  0.123758  0  0.992151  0
H  H82  1  0.50928202  0.56022527  0.09641722  1  0.134115  0  0.113101  0.123668  0  0.992204  0
H  H83  1  0.49072122  0.06022835  0.40358684  1  0.13395  0  0.113121  0.123779  0  0.992145  0
H  H84  1  0.41875628  0.28292303  0.87922422  1  0.11517  0  0.123413  0.095121  0  0.993187  0
H  H85  1  0.58124526  0.78291891  0.62077836  1  0.115126  0  0.123445  0.095139  0  0.993252  0
H  H86  1  0.58126745  0.71706421  0.12078818  1  0.115568  0  0.123328  0.094899  0  0.993388  0
H  H87  1  0.41874777  0.21707516  0.37922673  1  0.115215  0  0.123473  0.09521  0  0.993282  0
H  H88  1  0.69244901  0.45851462  0.86874230  1  0.070594  0  0.097927  0.097493  0  1.041202  0
H  H89  1  0.30753698  0.95852930  0.63125073  1  0.070026  0  0.097907  0.097496  0  1.04131  0
H  H90  1  0.30755524  0.54148832  0.13125166  1  0.070267  0  0.09784  0.097349  0  1.04138  0
H  H91  1  0.69245947  0.04149069  0.36874483  1  0.070566  0  0.097848  0.09737  0  1.041265  0
H  H92  1  0.69070535  0.35514312  0.97128304  1  0.12568  0  0.103191  0.111689  0  1.001699  0
H  H93  1  0.30927111  0.85515386  0.52870942  1  0.125757  0  0.103149  0.11155  0  1.001628  0
H  H94  1  0.30928508  0.64486323  0.02870781  1  0.125707  0  0.103177  0.11161  0  1.001667  0
H  H95  1  0.69071360  0.14486067  0.47129003  1  0.125751  0  0.10318  0.111627  0  1.0016  0
H  H96  1  0.80110934  0.57564701  0.11393668  1  0.095045  0  0.098871  0.104717  0  1.018685  0
H  H97  1  0.19891242  0.07567451  0.38606022  1  0.095032  0  0.098835  0.104615  0  1.018713  0
H  H98  1  0.19889789  0.42434432  0.88606040  1  0.094886  0  0.098861  0.104699  0  1.018597  0
H  H99  1  0.80107790  0.92433798  0.61393367  1  0.095122  0  0.098898  0.104752  0  1.018836  0
H  H100  1  0.80357312  0.67873740  0.01133743  1  0.088386  0  0.1  0.102502  0  1.017737  0
H  H101  1  0.19645122  0.17876884  0.48865923  1  0.087845  0  0.100012  0.102474  0  1.017605  0
H  H102  1  0.19645029  0.32125599  0.98866167  1  0.088307  0  0.10013  0.102626  0  1.017584  0
H  H103  1  0.80354365  0.82125115  0.51133705  1  0.088255  0  0.100136  0.102571  0  1.017559  0
H  H104  1  0.38020399  0.56184314  0.56720844  1  0.133416  0  0.100536  0.116917  0  1.03927  0
H  H105  1  0.61979196  0.06183404  0.93279245  1  0.133654  0  0.100587  0.117054  0  1.039245  0
H  H106  1  0.61982680  0.43813387  0.43280122  1  0.133557  0  0.100565  0.116952  0  1.039014  0
H  H107  1  0.38016151  0.93814024  0.06719297  1  0.133816  0  0.100532  0.116983  0  1.038988  0
H  H108  1  0.68752174  0.53007478  0.54217123  1  0.065299  0  0.099921  0.102614  0  1.018696  0
H  H109  1  0.31247210  0.03007418  0.95781950  1  0.065058  0  0.099906  0.102608  0  1.018677  0
H  H110  1  0.31250311  0.46991177  0.45783120  1  0.065716  0  0.099898  0.102612  0  1.018854  0
H  H111  1  0.68748890  0.96990760  0.04217193  1  0.065835  0  0.099903  0.102617  0  1.018859  0
H  H112  1  0.97554734  0.50618262  0.62129286  1  0.070791  0  0.10013  0.104841  0  1.012978  0
H  H113  1  0.02446660  0.00618561  0.87871228  1  0.070719  0  0.10009  0.10483  0  1.013135  0
H  H114  1  0.02445836  0.49381417  0.37870392  1  0.070688  0  0.100091  0.104831  0  1.012894  0
H  H115  1  0.97554425  0.99384120  0.12129210  1  0.070758  0  0.10017  0.10493  0  1.013088  0
H  H116  1  0.15938833  0.56596307  0.47746553  1  0.085541  0  0.103088  0.107475  0  1.007946  0
H  H117  1  0.84061368  0.06596956  0.02252609  1  0.085576  0  0.103151  0.107543  0  1.008151  0
H  H118  1  0.84062125  0.43403032  0.52253096  1  0.085425  0  0.103145  0.107569  0  1.00799  0
H  H119  1  0.15938803  0.93403679  0.97747402  1  0.085338  0  0.103111  0.107547  0  1.007983  0
C  C120  1  0.93545583  0.75643163  0.78497135  1  0.440296  0  0.056728  0.103856  0  3.91984  0
C  C121  1  0.06454470  0.25643454  0.71503097  1  0.440974  0  0.05672  0.103868  0  3.919654  0
C  C122  1  0.06454731  0.24357949  0.21503209  1  0.44058  0  0.056597  0.103688  0  3.920099  0
C  C123  1  0.93545104  0.74357521  0.28496292  1  0.440756  0  0.056631  0.103749  0  3.92014  0
C  C124  1  0.02941428  0.79001352  0.77883760  1  -0.021768  0  -0.07401  -0.166816  0  3.918801  0
C  C125  1  0.97058556  0.29001410  0.72116519  1  -0.021749  0  -0.074038  -0.166788  0  3.918961  0
C  C126  1  0.97058809  0.20999419  0.22116569  1  -0.021987  0  -0.073955  -0.16682  0  3.91878  0
C  C127  1  0.02941468  0.70999907  0.27883260  1  -0.021775  0  -0.073957  -0.166732  0  3.918934  0
C  C128  1  0.05345602  0.78679476  0.71351888  1  0.004145  0  0.017998  0.142374  0  3.950356  0
C  C129  1  0.94654626  0.28678990  0.78648232  1  0.004143  0  0.017971  0.142305  0  3.95042  0
C  C130  1  0.94654789  0.21320817  0.28648470  1  0.004048  0  0.018065  0.142394  0  3.950618  0
C  C131  1  0.05346015  0.71321849  0.21351612  1  0.003903  0  0.018037  0.142214  0  3.950946  0
C  C132  1  0.98071203  0.74942169  0.65653374  1  -0.00384  0  -0.071295  -0.16143  0  3.930969  0
C  C133  1  0.01928640  0.24941299  0.84346612  1  -0.003897  0  -0.071349  -0.161563  0  3.931144  0
C  C134  1  0.01929190  0.25057988  0.34346933  1  -0.003877  0  -0.071339  -0.161481  0  3.931478  0
C  C135  1  0.98071393  0.75058857  0.15652914  1  -0.004207  0  -0.071316  -0.16137  0  3.931074  0
C  C136  1  0.88820871  0.71723499  0.66636386  1  0.449697  0  0.056239  0.103332  0  3.916885  0
C  C137  1  0.11178965  0.21723021  0.83363437  1  0.449527  0  0.056291  0.10342  0  3.916907  0
C  C138  1  0.11179207  0.28276931  0.33364065  1  0.449652  0  0.056252  0.103363  0  3.917086  0
C  C139  1  0.88820466  0.78277136  0.16635620  1  0.449921  0  0.056325  0.103366  0  3.916745  0
C  C140  1  0.15505232  0.82111290  0.70500463  1  0.280734  0  -0.056406  -0.079402  0  3.91449  0
C  C141  1  0.84494306  0.32111313  0.79499741  1  0.280815  0  -0.056358  -0.079425  0  3.914329  0
C  C142  1  0.84495232  0.17888594  0.29500011  1  0.280927  0  -0.056448  -0.079376  0  3.914276  0
C  C143  1  0.15505563  0.67890140  0.20500060  1  0.280951  0  -0.056518  -0.07956  0  3.914593  0
C  C144  1  0.34406100  0.80959290  0.75119454  1  0.278833  0  0.001868  0.163725  0  3.84173  0
C  C145  1  0.65592856  0.30958710  0.74880332  1  0.278712  0  0.001783  0.163519  0  3.842306  0
C  C146  1  0.65594511  0.19040662  0.24881251  1  0.278854  0  0.001826  0.16383  0  3.841708  0
C  C147  1  0.34406852  0.69041515  0.25119643  1  0.278825  0  0.001812  0.163513  0  3.841753  0
C  C148  1  0.36586403  0.90473126  0.78247051  1  -0.067849  0  -0.250465  -0.434459  0  3.903724  0
C  C149  1  0.63412582  0.40472702  0.71753124  1  -0.067322  0  -0.250362  -0.434281  0  3.903431  0
C  C150  1  0.63414668  0.09526349  0.21753792  1  -0.068185  0  -0.250534  -0.434874  0  3.90368  0
C  C151  1  0.36586961  0.59527455  0.28247125  1  -0.067842  0  -0.25043  -0.434451  0  3.903562  0
C  C152  1  0.42565789  0.74227805  0.79004774  1  0.275342  0  -0.068862  -0.089474  0  3.856445  0
C  C153  1  0.57434078  0.24228293  0.70994909  1  0.275391  0  -0.068869  -0.089688  0  3.856743  0
C  C154  1  0.57434736  0.25771874  0.20996169  1  0.274945  0  -0.068814  -0.089392  0  3.85678  0
C  C155  1  0.42565710  0.75773024  0.29004979  1  0.275536  0  -0.068918  -0.089485  0  3.856623  0
C  C156  1  0.46627217  0.58123466  0.81079234  1  0.28836  0  -0.062078  -0.089034  0  3.89597  0
C  C157  1  0.53373361  0.08123123  0.68920384  1  0.288433  0  -0.062092  -0.089158  0  3.896094  0
C  C158  1  0.53373702  0.41874985  0.18921529  1  0.288462  0  -0.062132  -0.089178  0  3.89569  0
C  C159  1  0.46626372  0.91876761  0.31078882  1  0.288888  0  -0.062028  -0.089131  0  3.895974  0
C  C160  1  0.42661311  0.48584609  0.79639573  1  -0.098099  0  0.020881  0.154601  0  3.940352  0
C  C161  1  0.57339155  0.98584386  0.70360089  1  -0.097834  0  0.020919  0.154749  0  3.940531  0
C  C162  1  0.57339236  0.51415070  0.20360763  1  -0.09707  0  0.02091  0.154797  0  3.939806  0
C  C163  1  0.42660565  0.01416044  0.29639531  1  -0.096647  0  0.020836  0.154608  0  3.940336  0
C  C164  1  0.36914502  0.45800926  0.72980833  1  0.008293  0  -0.079244  -0.17895  0  3.926088  0
C  C165  1  0.63086093  0.95800916  0.77018947  1  0.008374  0  -0.079321  -0.17916  0  3.926162  0
C  C166  1  0.63085648  0.54198344  0.27019785  1  0.008337  0  -0.079356  -0.179216  0  3.92619  0
C  C167  1  0.36913867  0.04199924  0.22980464  1  0.007638  0  -0.079357  -0.179077  0  3.926042  0
C  C168  1  0.33065728  0.36964770  0.72078646  1  0.451873  0  0.053622  0.100183  0  3.916539  0
C  C169  1  0.66934655  0.86964496  0.77921171  1  0.452052  0  0.053708  0.100218  0  3.916374  0
C  C170  1  0.66934333  0.63034432  0.27922312  1  0.451368  0  0.053725  0.100293  0  3.9164  0
C  C171  1  0.33065604  0.13036343  0.22078550  1  0.452135  0  0.05369  0.100322  0  3.916571  0
C  C172  1  0.44612317  0.42154140  0.85085244  1  0.022885  0  -0.077749  -0.173781  0  3.934597  0
C  C173  1  0.55388036  0.92153854  0.64914684  1  0.022775  0  -0.077734  -0.173857  0  3.934674  0
C  C174  1  0.55388857  0.57845539  0.14914854  1  0.021134  0  -0.077693  -0.17373  0  3.934215  0
C  C175  1  0.44611506  0.07846167  0.35085616  1  0.021632  0  -0.077717  -0.173821  0  3.934462  0
C  C176  1  0.40613676  0.33435339  0.83788028  1  0.426073  0  0.05184  0.102907  0  3.944  0
C  C177  1  0.59386459  0.83434926  0.66212037  1  0.426043  0  0.051757  0.102874  0  3.944069  0
C  C178  1  0.59387940  0.66563658  0.16212713  1  0.426386  0  0.05193  0.103207  0  3.943906  0
C  C179  1  0.40612996  0.16564958  0.33788552  1  0.425806  0  0.051723  0.102805  0  3.943884  0
C  C180  1  0.75153049  0.63606549  0.87398503  1  1.539115  0  0.199616  0.559109  0  4.223593  0
C  C181  1  0.24847022  0.13607387  0.62601443  1  1.538702  0  0.199482  0.559046  0  4.223469  0
C  C182  1  0.24847036  0.36394017  0.12601746  1  1.539187  0  0.199453  0.558961  0  4.223386  0
C  C183  1  0.75153080  0.86393520  0.37398351  1  1.539075  0  0.199383  0.55876  0  4.223397  0
C  C184  1  0.74870457  0.57437898  0.93434496  1  -0.029519  0  -0.020568  -0.027518  0  3.972576  0
C  C185  1  0.25129601  0.07439794  0.56564870  1  -0.014563  0  -0.020684  -0.027562  0  3.972834  0
C  C186  1  0.25130734  0.42561713  0.06565096  1  -0.015371  0  -0.020661  -0.027641  0  3.972581  0
C  C187  1  0.74870026  0.92561591  0.43435192  1  -0.014602  0  -0.020655  -0.027502  0  3.972715  0
C  C188  1  0.71631911  0.48333729  0.92271645  1  -0.051009  0  -0.093483  -0.111868  0  4.000863  0
C  C189  1  0.28367259  0.98335277  0.57727620  1  -0.065762  0  -0.093517  -0.11194  0  4.001055  0
C  C190  1  0.28369129  0.51666360  0.07727868  1  -0.064694  0  -0.093457  -0.111643  0  4.000905  0
C  C191  1  0.71631995  0.01665903  0.42272065  1  -0.065713  0  -0.093393  -0.11168  0  4.000768  0
C  C192  1  0.71491965  0.42627333  0.97916592  1  -0.102665  0  -0.089647  -0.110779  0  3.995601  0
C  C193  1  0.28506772  0.92628920  0.52082778  1  -0.102454  0  -0.089519  -0.110436  0  3.995244  0
C  C194  1  0.28507919  0.57372551  0.02082753  1  -0.102984  0  -0.089524  -0.110561  0  3.995581  0
C  C195  1  0.71492090  0.07372260  0.47917037  1  -0.102995  0  -0.089614  -0.110593  0  3.995335  0
C  C196  1  0.74578549  0.45962366  0.04822111  1  -0.012021  0  -0.017343  -0.02083  0  3.955873  0
C  C197  1  0.25421323  0.95964554  0.45177306  1  -0.01146  0  -0.017498  -0.021219  0  3.956191  0
C  C198  1  0.25420944  0.54037176  0.95177365  1  -0.011636  0  -0.01741  -0.021086  0  3.956116  0
C  C199  1  0.74577931  0.04036422  0.54822379  1  -0.011262  0  -0.017414  -0.021168  0  3.956115  0
C  C200  1  0.77745228  0.55088029  0.05991094  1  -0.024563  0  -0.089598  -0.101321  0  3.982631  0
C  C201  1  0.22256226  0.05090630  0.44008503  1  -0.025027  0  -0.089623  -0.101149  0  3.982603  0
C  C202  1  0.22255345  0.44911582  0.94008483  1  -0.024679  0  -0.089579  -0.101201  0  3.98251  0
C  C203  1  0.77743102  0.94910209  0.55991247  1  -0.025023  0  -0.089633  -0.10137  0  3.983004  0
C  C204  1  0.77897899  0.60776821  0.00342888  1  -0.075341  0  -0.088928  -0.102418  0  3.987901  0
C  C205  1  0.22103595  0.10779452  0.49656733  1  -0.074502  0  -0.088664  -0.102296  0  3.98781  0
C  C206  1  0.22103671  0.39222449  0.99656928  1  -0.075315  0  -0.088911  -0.102476  0  3.987813  0
C  C207  1  0.77895657  0.89222001  0.50343002  1  -0.075478  0  -0.088893  -0.10233  0  3.988111  0
C  C208  1  0.74417627  0.39784026  0.10917491  1  1.571953  0  0.192572  0.557706  0  4.245338  0
C  C209  1  0.25581822  0.89786385  0.39082032  1  1.573074  0  0.192823  0.558159  0  4.244516  0
C  C210  1  0.25581941  0.60215995  0.89082050  1  1.571741  0  0.192623  0.557923  0  4.244986  0
C  C211  1  0.74417572  0.10215000  0.60918087  1  1.572142  0  0.192559  0.557882  0  4.244606  0
C  C212  1  0.57946547  0.60251422  0.62805066  1  1.525353  0  0.203506  0.568443  0  4.216161  0
C  C213  1  0.42053064  0.10250668  0.87194427  1  1.525241  0  0.20348  0.568267  0  4.216016  0
C  C214  1  0.42055455  0.39747848  0.37195697  1  1.525059  0  0.203352  0.567863  0  4.216598  0
C  C215  1  0.57943347  0.89747237  0.12804672  1  1.525204  0  0.203405  0.567925  0  4.216034  0
C  C216  1  0.53835318  0.55032668  0.56149906  1  0.006889  0  -0.020253  -0.038886  0  3.988575  0
C  C217  1  0.46164786  0.05031675  0.93849563  1  0.007293  0  -0.020158  -0.038669  0  3.98859  0
C  C218  1  0.46167857  0.44965374  0.43850517  1  0.008203  0  -0.020178  -0.038632  0  3.988734  0
C  C219  1  0.53830799  0.94965616  0.06148820  1  0.007595  0  -0.020097  -0.038733  0  3.98864  0
C  C220  1  0.43234650  0.53395980  0.53797719  1  -0.131698  0  -0.086856  -0.098554  0  3.957054  0
C  C221  1  0.56765318  0.03395100  0.96202127  1  -0.132394  0  -0.086957  -0.09883  0  3.95747  0
C  C222  1  0.56768131  0.46601857  0.46202885  1  -0.132892  0  -0.08717  -0.098991  0  3.956983  0
C  C223  1  0.43230648  0.96601713  0.03796429  1  -0.132789  0  -0.087243  -0.099143  0  3.957014  0
C  C224  1  0.60547446  0.51639325  0.52317421  1  0.022955  0  -0.087377  -0.097089  0  3.980252  0
C  C225  1  0.39451572  0.01638459  0.97681834  1  0.022896  0  -0.08737  -0.097015  0  3.980077  0
C  C226  1  0.39455253  0.48359058  0.47683321  1  0.021596  0  -0.087379  -0.09724  0  3.980368  0
C  C227  1  0.60544240  0.98358627  0.02316694  1  0.022129  0  -0.087362  -0.097097  0  3.980637  0
C  C228  1  0.15619321  0.58201656  0.61327975  1  1.523514  0  0.192088  0.545829  0  4.253433  0
C  C229  1  0.84380508  0.08201180  0.88670891  1  1.523638  0  0.192111  0.545882  0  4.252988  0
C  C230  1  0.84381537  0.41797068  0.38672318  1  1.523367  0  0.192015  0.545836  0  4.253215  0
C  C231  1  0.15618898  0.91798772  0.11328874  1  1.523688  0  0.191984  0.54577  0  4.253057  0
C  C232  1  0.07510328  0.53990078  0.55480033  1  -0.05067  0  -0.018932  -0.024307  0  3.96901  0
C  C233  1  0.92490549  0.03990045  0.94520037  1  -0.050571  0  -0.018818  -0.024474  0  3.968686  0
C  C234  1  0.92490463  0.46009055  0.44519942  1  -0.050186  0  -0.018914  -0.024602  0  3.969216  0
C  C235  1  0.07509547  0.96011613  0.05479909  1  -0.049545  0  -0.018813  -0.024325  0  3.968826  0
C  C236  1  0.98524164  0.50302200  0.56788011  1  0.004039  0  -0.089653  -0.102974  0  3.984877  0
C  C237  1  0.01477410  0.00302199  0.93211925  1  0.004065  0  -0.089618  -0.102816  0  3.985023  0
C  C238  1  0.01476940  0.49697479  0.43211870  1  0.003719  0  -0.089563  -0.102779  0  3.984669  0
C  C239  1  0.98523059  0.99699936  0.06788397  1  0.003897  0  -0.089659  -0.102987  0  3.985327  0
C  C240  1  0.08921538  0.53664866  0.48649919  1  -0.043267  0  -0.087539  -0.102285  0  3.984446  0
C  C241  1  0.91078692  0.03665943  0.01350106  1  -0.0437  0  -0.087695  -0.102327  0  3.985194  0
C  C242  1  0.91079491  0.46334472  0.51349897  1  -0.042663  0  -0.087573  -0.102246  0  3.984554  0
C  C243  1  0.08921703  0.96335441  0.98650151  1  -0.043717  0  -0.087557  -0.102321  0  3.984899  0
N  N244  1  0.86596553  0.72067479  0.72953664  1  -1.253585  0  -0.32857  -0.231101  0  3.567193  0
N  N245  1  0.13403653  0.22067549  0.77046433  1  -1.253643  0  -0.328591  -0.231186  0  3.567215  0
N  N246  1  0.13403609  0.27933496  0.27046600  1  -1.253696  0  -0.328516  -0.230997  0  3.567323  0
N  N247  1  0.86595765  0.77932881  0.22952977  1  -1.253761  0  -0.328577  -0.230947  0  3.567197  0
N  N248  1  0.24124633  0.77512807  0.75497375  1  -1.058755  0  -0.478058  -0.360819  0  3.482857  0
N  N249  1  0.75874694  0.27513151  0.74502624  1  -1.05873  0  -0.478027  -0.36071  0  3.482832  0
N  N250  1  0.75875604  0.22486258  0.24502954  1  -1.05856  0  -0.478006  -0.360689  0  3.483067  0
N  N251  1  0.24124858  0.72487688  0.25497373  1  -1.059071  0  -0.478022  -0.360742  0  3.482847  0
N  N252  1  0.40237258  0.64844564  0.76315163  1  -1.117623  0  -0.486689  -0.334778  0  3.513376  0
N  N253  1  0.59763106  0.14844891  0.73684536  1  -1.117831  0  -0.486595  -0.334381  0  3.512822  0
N  N254  1  0.59763659  0.35154092  0.23685650  1  -1.117987  0  -0.486772  -0.334891  0  3.513748  0
N  N255  1  0.40236305  0.85155675  0.26315077  1  -1.1181  0  -0.486794  -0.334776  0  3.513557  0
N  N256  1  0.34840296  0.30881456  0.77404180  1  -1.285348  0  -0.337674  -0.248227  0  3.619388  0
N  N257  1  0.65159665  0.80880980  0.72595692  1  -1.285492  0  -0.337756  -0.248282  0  3.619334  0
N  N258  1  0.65160392  0.69117337  0.22596539  1  -1.285167  0  -0.337792  -0.248441  0  3.61934  0
N  N259  1  0.34840108  0.19119518  0.27404651  1  -1.285149  0  -0.337722  -0.248335  0  3.619252  0
O  O260  1  0.71781852  0.59967655  0.81160705  1  -1.161977  0  -0.336443  -0.555989  0  2.36419  0
O  O261  1  0.28219766  0.09967922  0.68839114  1  -1.161837  0  -0.336343  -0.555928  0  2.363984  0
O  O262  1  0.28217316  0.40033935  0.18839219  1  -1.162053  0  -0.336362  -0.555911  0  2.363896  0
O  O263  1  0.71781122  0.90032849  0.31160318  1  -1.162067  0  -0.336316  -0.555829  0  2.364052  0
O  O264  1  0.78364945  0.71628114  0.88422195  1  -1.181537  0  -0.325499  -0.556527  0  2.129208  0
O  O265  1  0.21633778  0.21628590  0.61578539  1  -1.181213  0  -0.325404  -0.55644  0  2.129162  0
O  O266  1  0.21635198  0.28372793  0.11578625  1  -1.181293  0  -0.325416  -0.556439  0  2.129303  0
O  O267  1  0.78365764  0.78372113  0.38421761  1  -1.181404  0  -0.325373  -0.556344  0  2.129189  0
O  O268  1  0.77627022  0.43608370  0.17046009  1  -1.174847  0  -0.342636  -0.553752  0  2.330852  0
O  O269  1  0.22370574  0.93610207  0.32953431  1  -1.175241  0  -0.342738  -0.553936  0  2.330575  0
O  O270  1  0.22373016  0.56391377  0.82953365  1  -1.174734  0  -0.342681  -0.553858  0  2.330667  0
O  O271  1  0.77628823  0.06391247  0.67046587  1  -1.174931  0  -0.342666  -0.55377  0  2.330584  0
O  O272  1  0.71266941  0.31718315  0.09898243  1  -1.188753  0  -0.34458  -0.57704  0  2.090105  0
O  O273  1  0.28734453  0.81721107  0.40101164  1  -1.189787  0  -0.344726  -0.577193  0  2.089804  0
O  O274  1  0.28732236  0.68281773  0.90101427  1  -1.188803  0  -0.344592  -0.577096  0  2.090093  0
O  O275  1  0.71265185  0.18280961  0.59898593  1  -1.189  0  -0.344575  -0.577097  0  2.089716  0
O  O276  1  0.67678730  0.62259558  0.64280276  1  -1.183363  0  -0.340601  -0.567675  0  2.317041  0
O  O277  1  0.32321002  0.12259705  0.85719042  1  -1.183331  0  -0.340627  -0.567662  0  2.317167  0
O  O278  1  0.32322674  0.37740667  0.35719866  1  -1.183035  0  -0.340496  -0.567321  0  2.316981  0
O  O279  1  0.67675652  0.87738200  0.14279746  1  -1.183149  0  -0.340452  -0.56726  0  2.316681  0
O  O280  1  0.52204922  0.62483074  0.66680503  1  -1.193587  0  -0.321546  -0.559276  0  2.186615  0
O  O281  1  0.47795493  0.12482209  0.83319097  1  -1.193457  0  -0.321531  -0.559229  0  2.186322  0
O  O282  1  0.47796608  0.37515104  0.33320477  1  -1.193666  0  -0.321468  -0.559032  0  2.186674  0
O  O283  1  0.52201067  0.87516311  0.16680183  1  -1.193923  0  -0.321528  -0.559002  0  2.186607  0
O  O284  1  0.13652727  0.57886396  0.67488165  1  -1.153218  0  -0.341634  -0.553246  0  2.334039  0
O  O285  1  0.86348646  0.07886131  0.82510990  1  -1.153551  0  -0.34176  -0.553361  0  2.334034  0
O  O286  1  0.86347303  0.42113488  0.32511462  1  -1.15314  0  -0.341714  -0.553342  0  2.333889  0
O  O287  1  0.13651146  0.92114025  0.17488796  1  -1.153523  0  -0.341671  -0.553237  0  2.334115  0
O  O288  1  0.23591171  0.61669034  0.60231077  1  -1.185206  0  -0.333569  -0.562543  0  2.112444  0
O  O289  1  0.76407286  0.11667259  0.89767439  1  -1.184559  0  -0.333516  -0.562467  0  2.112273  0
O  O290  1  0.76410671  0.38328325  0.39769860  1  -1.18533  0  -0.333495  -0.562479  0  2.112243  0
O  O291  1  0.23590687  0.88331055  0.10231241  1  -1.18506  0  -0.333472  -0.562504  0  2.112184  0
