# generated using pymatgen
data_ZnPH7C4(NO2)2
_symmetry_space_group_name_H-M   'P 1'
_cell_length_a   4.84111829
_cell_length_b   11.14253007
_cell_length_c   14.38862739
_cell_angle_alpha   99.08677487
_cell_angle_beta   89.99889986
_cell_angle_gamma   89.99934625
_symmetry_Int_Tables_number   1
_chemical_formula_structural   ZnPH7C4(NO2)2
_chemical_formula_sum   'Zn4 P4 H28 C16 N8 O16'
_cell_volume   766.41521084
_cell_formula_units_Z   4
loop_
 _symmetry_equiv_pos_site_id
 _symmetry_equiv_pos_as_xyz
  1  'x, y, z'
loop_
 _atom_site_type_symbol
 _atom_site_label
 _atom_site_symmetry_multiplicity
 _atom_site_fract_x
 _atom_site_fract_y
 _atom_site_fract_z
 _atom_site_occupancy
 _atom_site_pbe_bader_spin_density
 _atom_site_pbe_cm5_charge
 _atom_site_pbe_ddec_charge
 _atom_site_pbe_ddec_spin_density
 _atom_site_pbe_ddec_sum_bond_order
 _atom_site_pbe_magmom
Zn  Zn0  1  0.78785771  0.49373389  0.87904205  1  0  0.719873  0.954431  0  2.334927  0
Zn  Zn1  1  0.28786141  0.00626558  0.62095558  1  0  0.719877  0.954467  0  2.334843  0
Zn  Zn2  1  0.21213065  0.50625965  0.12095602  1  0  0.719914  0.954558  0  2.334834  0
Zn  Zn3  1  0.71214554  0.99373712  0.37904549  1  0  0.719862  0.954446  0  2.334858  0
P  P4  1  0.30809527  0.35054984  0.92177690  1  0  0.391741  1.510076  0  5.48505  0
P  P5  1  0.80809176  0.14944662  0.57821612  1  0  0.39156  1.50993  0  5.485316  0
P  P6  1  0.69189721  0.64944455  0.07821986  1  0  0.391757  1.510281  0  5.484833  0
P  P7  1  0.19191312  0.85055325  0.42178189  1  0  0.391573  1.509834  0  5.48544  0
H  H8  1  0.95485173  0.24421261  0.86902952  1  0  0.321665  0.407177  0  0.900339  0
H  H9  1  0.45483981  0.25578405  0.63096815  1  0  0.321708  0.407114  0  0.900325  0
H  H10  1  0.04513456  0.75578450  0.13096752  1  0  0.321729  0.407215  0  0.900349  0
H  H11  1  0.54516094  0.74420959  0.36903271  1  0  0.321698  0.407124  0  0.900345  0
H  H12  1  0.00654263  0.48958015  0.66133275  1  0  0.14084  0.111483  0  0.996128  0
H  H13  1  0.50652962  0.01042933  0.83866977  1  0  0.140843  0.111454  0  0.996124  0
H  H14  1  0.99348084  0.51042725  0.33867297  1  0  0.140833  0.111421  0  0.996378  0
H  H15  1  0.49344427  0.98956984  0.16133373  1  0  0.140838  0.111474  0  0.995945  0
H  H16  1  0.31077374  0.64529263  0.80859139  1  0  0.120905  0.122319  0  1.021768  0
H  H17  1  0.81080139  0.85470313  0.69141268  1  0  0.120909  0.122347  0  1.021751  0
H  H18  1  0.68921874  0.35470623  0.19140374  1  0  0.120946  0.122415  0  1.021616  0
H  H19  1  0.18921176  0.14528846  0.30858171  1  0  0.120929  0.122383  0  1.02171  0
H  H20  1  0.33514209  0.72372023  0.63166445  1  0  0.123161  0.137933  0  1.044452  0
H  H21  1  0.83515732  0.77628540  0.86834116  1  0  0.123156  0.137936  0  1.044461  0
H  H22  1  0.66487725  0.27628421  0.36833472  1  0  0.123086  0.137867  0  1.044416  0
H  H23  1  0.16483517  0.22371255  0.13165387  1  0  0.123199  0.137987  0  1.044458  0
H  H24  1  0.01231635  0.62041003  0.52227063  1  0  0.110341  0.125647  0  1.01336  0
H  H25  1  0.51229134  0.87959398  0.97773689  1  0  0.110347  0.12569  0  1.013353  0
H  H26  1  0.98772158  0.37959199  0.47773664  1  0  0.110377  0.125762  0  1.013294  0
H  H27  1  0.48766809  0.12040440  0.02227002  1  0  0.110405  0.125707  0  1.013358  0
H  H28  1  0.72971142  0.71972408  0.51571794  1  0  0.11918  0.152381  0  1.002792  0
H  H29  1  0.22968837  0.78028574  0.98428599  1  0  0.119163  0.152402  0  1.002767  0
H  H30  1  0.27033064  0.28028406  0.48428369  1  0  0.119129  0.152343  0  1.002805  0
H  H31  1  0.77026900  0.21971605  0.01571500  1  0  0.119131  0.152357  0  1.002825  0
H  H32  1  0.69053588  0.56167025  0.47217312  1  0  0.102387  0.113872  0  1.01301  0
H  H33  1  0.19050856  0.93833677  0.02783304  1  0  0.102336  0.113838  0  1.013044  0
H  H34  1  0.30950205  0.43833444  0.52783302  1  0  0.102345  0.113831  0  1.013062  0
H  H35  1  0.80945294  0.06166411  0.97216785  1  0  0.102361  0.113848  0  1.013099  0
C  C36  1  0.82113212  0.54255396  0.67843053  1  0  0.150747  0.104886  0  3.912871  0
C  C37  1  0.32113037  0.95745537  0.82157485  1  0  0.150722  0.10493  0  3.912728  0
C  C38  1  0.17887895  0.45745987  0.32157792  1  0  0.150737  0.105041  0  3.912581  0
C  C39  1  0.67886831  0.04254933  0.17843130  1  0  0.150833  0.104936  0  3.912871  0
C  C40  1  0.45770454  0.62593616  0.75168643  1  0  -0.000114  -0.025254  0  3.997341  0
C  C41  1  0.95772005  0.87406316  0.74831498  1  0  -0.00015  -0.025279  0  3.997319  0
C  C42  1  0.54230034  0.37406548  0.24831037  1  0  -0.000182  -0.025225  0  3.997306  0
C  C43  1  0.04228277  0.12593033  0.25168170  1  0  -0.00012  -0.025238  0  3.997298  0
C  C44  1  0.46398199  0.66324915  0.66523066  1  0  -0.004927  -0.137663  0  3.918524  0
C  C45  1  0.96398929  0.83675303  0.83477586  1  0  -0.004875  -0.137663  0  3.918173  0
C  C46  1  0.53603528  0.33675804  0.33476948  1  0  -0.004794  -0.137648  0  3.918399  0
C  C47  1  0.03599907  0.16324137  0.16522090  1  0  -0.004983  -0.13793  0  3.918295  0
C  C48  1  0.78741801  0.62819462  0.52695062  1  0  -0.127894  -0.279114  0  3.854001  0
C  C49  1  0.28739727  0.87181492  0.97305499  1  0  -0.127856  -0.279175  0  3.854027  0
C  C50  1  0.21261992  0.37181543  0.47305328  1  0  -0.127908  -0.279288  0  3.854096  0
C  C51  1  0.71256837  0.12818780  0.02694678  1  0  -0.12791  -0.279182  0  3.854072  0
N  N52  1  0.69616387  0.60978165  0.62001941  1  0  -0.249379  0.079786  0  3.805513  0
N  N53  1  0.19616877  0.89022482  0.87998648  1  0  -0.249357  0.079832  0  3.805468  0
N  N54  1  0.30385547  0.39021928  0.37998288  1  0  -0.249254  0.079948  0  3.805442  0
N  N55  1  0.80380926  0.10977253  0.12001684  1  0  -0.249345  0.080014  0  3.805264  0
N  N56  1  0.68171143  0.55134345  0.75903107  1  0  -0.358162  -0.295456  0  3.592294  0
N  N57  1  0.18171880  0.94865857  0.74097446  1  0  -0.358141  -0.295505  0  3.592396  0
N  N58  1  0.31828932  0.44865193  0.24096788  1  0  -0.358228  -0.2957  0  3.592337  0
N  N59  1  0.81827989  0.05133956  0.25902546  1  0  -0.358237  -0.295567  0  3.592742  0
O  O60  1  0.18444374  0.46012509  0.88340755  1  0  -0.389926  -0.811185  0  2.319354  0
O  O61  1  0.68443887  0.03987025  0.61658407  1  0  -0.389938  -0.81119  0  2.319401  0
O  O62  1  0.81555082  0.53987208  0.11659088  1  0  -0.389927  -0.811263  0  2.319372  0
O  O63  1  0.31556601  0.96012770  0.38341097  1  0  -0.389896  -0.811132  0  2.319396  0
O  O64  1  0.26949815  0.35784259  0.02882063  1  0  -0.392815  -0.80714  0  2.305205  0
O  O65  1  0.76951302  0.14215826  0.47117327  1  0  -0.392643  -0.807003  0  2.3054  0
O  O66  1  0.73049227  0.64215180  0.97117614  1  0  -0.392793  -0.807165  0  2.305195  0
O  O67  1  0.23050426  0.85784436  0.52882571  1  0  -0.39272  -0.80707  0  2.305408  0
O  O68  1  0.15555925  0.22840345  0.87239212  1  0  -0.398664  -0.680364  0  2.171731  0
O  O69  1  0.65554539  0.27159321  0.62760607  1  0  -0.398711  -0.680309  0  2.171629  0
O  O70  1  0.84442704  0.77159188  0.12760543  1  0  -0.398751  -0.680445  0  2.171621  0
O  O71  1  0.34445123  0.72840406  0.37239516  1  0  -0.398678  -0.680292  0  2.171678  0
O  O72  1  0.61516588  0.33472492  0.89301500  1  0  -0.378984  -0.783838  0  2.243761  0
O  O73  1  0.11515783  0.16527270  0.60697799  1  0  -0.37894  -0.783756  0  2.243629  0
O  O74  1  0.38482247  0.66526748  0.10697670  1  0  -0.379003  -0.783959  0  2.243822  0
O  O75  1  0.88484499  0.83472912  0.39302370  1  0  -0.378938  -0.783724  0  2.243782  0
