# generated using pymatgen
data_AgH4C6N4ClO3
_symmetry_space_group_name_H-M   'P 1'
_cell_length_a   5.70172520
_cell_length_b   12.79840982
_cell_length_c   14.50700179
_cell_angle_alpha   112.66374437
_cell_angle_beta   101.30710178
_cell_angle_gamma   90.01232698
_symmetry_Int_Tables_number   1
_chemical_formula_structural   AgH4C6N4ClO3
_chemical_formula_sum   'Ag4 H16 C24 N16 Cl4 O12'
_cell_volume   954.55079308
_cell_formula_units_Z   4
loop_
 _symmetry_equiv_pos_site_id
 _symmetry_equiv_pos_as_xyz
  1  'x, y, z'
loop_
 _atom_site_type_symbol
 _atom_site_label
 _atom_site_symmetry_multiplicity
 _atom_site_fract_x
 _atom_site_fract_y
 _atom_site_fract_z
 _atom_site_occupancy
 _atom_site_hle17_bader_spin_density
 _atom_site_hle17_ddec_charge
 _atom_site_hle17_ddec_spin_density
 _atom_site_hle17_ddec_sum_bond_order
 _atom_site_hle17_magmom
 _atom_site_hse06_10hf_bader_spin_density
 _atom_site_hse06_10hf_ddec_charge
 _atom_site_hse06_10hf_ddec_spin_density
 _atom_site_hse06_10hf_ddec_sum_bond_order
 _atom_site_hse06_10hf_magmom
 _atom_site_hse06_bader_spin_density
 _atom_site_hse06_ddec_charge
 _atom_site_hse06_ddec_spin_density
 _atom_site_hse06_ddec_sum_bond_order
 _atom_site_hse06_magmom
 _atom_site_pbe_bader_spin_density
 _atom_site_pbe_cm5_charge
 _atom_site_pbe_ddec_charge
 _atom_site_pbe_ddec_spin_density
 _atom_site_pbe_ddec_sum_bond_order
 _atom_site_pbe_magmom
Ag  Ag0  1  0.04091625  0.18544551  0.17787867  1  0  0.62409  0  1.54205  0  0  0.504212  0  2.020533  0  0  0.521595  0  1.97487  0  0  0.513534  0.493831  0  2.051066  0
Ag  Ag1  1  0.86210721  0.31448307  0.82221466  1  0  0.625152  0  1.54261  0  0  0.505434  0  2.020924  0  0  0.522692  0  1.975411  0  0  0.514344  0.495054  0  2.051501  0
Ag  Ag2  1  0.95908757  0.81454868  0.82211826  1  0  0.624095  0  1.541952  0  0  0.504226  0  2.020383  0  0  0.521591  0  1.974754  0  0  0.5135  0.493846  0  2.050909  0
Ag  Ag3  1  0.13788990  0.68551365  0.17778054  1  0  0.625191  0  1.542452  0  0  0.505472  0  2.020748  0  0  0.522738  0  1.975232  0  0  0.514351  0.495098  0  2.051327  0
H  H4  1  0.48333670  0.19124977  0.37997781  1  0  0.136498  0  0.919911  0  0  0.141646  0  0.982408  0  0  0.145015  0  0.978226  0  0  0.148142  0.139087  0  0.985561  0
H  H5  1  0.10220592  0.30832822  0.61982677  1  0  0.137837  0  0.918217  0  0  0.142392  0  0.98129  0  0  0.145861  0  0.976976  0  0  0.148744  0.139803  0  0.984416  0
H  H6  1  0.51666727  0.80875549  0.62002631  1  0  0.136551  0  0.919916  0  0  0.141634  0  0.982456  0  0  0.145041  0  0.978234  0  0  0.148135  0.139004  0  0.985699  0
H  H7  1  0.89782161  0.69166854  0.38017424  1  0  0.137795  0  0.918242  0  0  0.142328  0  0.981344  0  0  0.145798  0  0.977034  0  0  0.14873  0.139733  0  0.984487  0
H  H8  1  0.85072984  0.11970449  0.45772396  1  0  0.135364  0  0.955599  0  0  0.149558  0  1.021512  0  0  0.15182  0  1.020092  0  0  0.10948  0.147793  0  1.022641  0
H  H9  1  0.39278037  0.37958104  0.54194788  1  0  0.136223  0  0.955269  0  0  0.150678  0  1.021047  0  0  0.152903  0  1.019657  0  0  0.110473  0.148941  0  1.022145  0
H  H10  1  0.14928053  0.88030669  0.54227781  1  0  0.135359  0  0.955608  0  0  0.149567  0  1.021485  0  0  0.151819  0  1.020074  0  0  0.109471  0.147803  0  1.022615  0
H  H11  1  0.60722554  0.62042506  0.45805529  1  0  0.136188  0  0.955254  0  0  0.150661  0  1.021057  0  0  0.152887  0  1.019668  0  0  0.110464  0.148924  0  1.02215  0
H  H12  1  0.04928072  0.10432878  0.37366423  1  0  0.118805  0  0.940971  0  0  0.132632  0  1.015192  0  0  0.134008  0  1.013705  0  0  0.104154  0.131443  0  1.01647  0
H  H13  1  0.67509166  0.39569832  0.62635523  1  0  0.118333  0  0.940298  0  0  0.132603  0  1.014156  0  0  0.133924  0  1.012787  0  0  0.104262  0.131469  0  1.015346  0
H  H14  1  0.95072802  0.89567305  0.62633427  1  0  0.118796  0  0.941006  0  0  0.132616  0  1.015218  0  0  0.133992  0  1.013732  0  0  0.10416  0.13144  0  1.016481  0
H  H15  1  0.32492095  0.60430520  0.37364207  1  0  0.118292  0  0.940321  0  0  0.132563  0  1.014251  0  0  0.133891  0  1.012865  0  0  0.104224  0.131427  0  1.015443  0
H  H16  1  0.92748635  0.98035900  0.38277338  1  0  0.126358  0  0.951142  0  0  0.141938  0  1.016123  0  0  0.14339  0  1.015189  0  0  0.104637  0.140781  0  1.016836  0
H  H17  1  0.54346189  0.51919537  0.61666984  1  0  0.126024  0  0.950657  0  0  0.141694  0  1.015763  0  0  0.143145  0  1.014797  0  0  0.104471  0.140506  0  1.016527  0
H  H18  1  0.07251762  0.01964623  0.61722728  1  0  0.126514  0  0.951034  0  0  0.142041  0  1.016044  0  0  0.143494  0  1.015108  0  0  0.104721  0.140884  0  1.016759  0
H  H19  1  0.45653954  0.48080562  0.38332989  1  0  0.125994  0  0.950668  0  0  0.141705  0  1.015754  0  0  0.143156  0  1.01479  0  0  0.104482  0.140519  0  1.016519  0
C  C20  1  0.49867577  0.12146060  0.30985579  1  0  0.235903  0  3.560209  0  0  0.164595  0  3.843319  0  0  0.18021  0  3.852122  0  0  0.176379  0.154094  0  3.837709  0
C  C21  1  0.18771293  0.37815750  0.68988249  1  0  0.236371  0  3.557754  0  0  0.165334  0  3.841369  0  0  0.180899  0  3.85007  0  0  0.176666  0.154903  0  3.835815  0
C  C22  1  0.50133387  0.87854636  0.69014933  1  0  0.235867  0  3.560505  0  0  0.164608  0  3.843583  0  0  0.180193  0  3.852375  0  0  0.176345  0.154158  0  3.838008  0
C  C23  1  0.81229208  0.62184348  0.31011613  1  0  0.236374  0  3.557809  0  0  0.165334  0  3.841429  0  0  0.180892  0  3.850139  0  0  0.176572  0.154902  0  3.835876  0
C  C24  1  0.43321547  0.99896508  0.15293215  1  0  0.087311  0  3.890007  0  0  0.077417  0  4.148767  0  0  0.079616  0  4.166459  0  0  0.108271  0.075984  0  4.137027  0
C  C25  1  0.27902205  0.50076552  0.84673727  1  0  0.090929  0  3.891118  0  0  0.08077  0  4.1493  0  0  0.083055  0  4.166876  0  0  0.109157  0.079251  0  4.137654  0
C  C26  1  0.56677718  0.00103679  0.84707271  1  0  0.087652  0  3.889288  0  0  0.077584  0  4.148292  0  0  0.079792  0  4.165974  0  0  0.108331  0.076143  0  4.136557  0
C  C27  1  0.72096046  0.49922951  0.15325761  1  0  0.091154  0  3.890864  0  0  0.081013  0  4.149011  0  0  0.083319  0  4.166565  0  0  0.109346  0.079497  0  4.137359  0
C  C28  1  0.32337143  0.94218766  0.04925489  1  0  0.307825  0  3.736914  0  0  0.289446  0  4.00398  0  0  0.302521  0  4.019843  0  0  0.212385  0.280351  0  3.993616  0
C  C29  1  0.27368060  0.55761233  0.95049702  1  0  0.306347  0  3.737022  0  0  0.288009  0  4.004096  0  0  0.301087  0  4.019908  0  0  0.212435  0.278926  0  3.993761  0
C  C30  1  0.67663463  0.05781933  0.95075479  1  0  0.307667  0  3.737311  0  0  0.28932  0  4.004454  0  0  0.302391  0  4.020315  0  0  0.212321  0.280228  0  3.994093  0
C  C31  1  0.72630577  0.44238435  0.04949045  1  0  0.30626  0  3.73658  0  0  0.287912  0  4.003654  0  0  0.300986  0  4.019449  0  0  0.212358  0.278824  0  3.993319  0
C  C32  1  0.64983078  0.97681976  0.20381445  1  0  0.041486  0  3.821131  0  0  0.024121  0  4.074343  0  0  0.027558  0  4.089133  0  0  0.117101  0.021669  0  4.064882  0
C  C33  1  0.44449100  0.52295818  0.79573738  1  0  0.040732  0  3.823457  0  0  0.024879  0  4.074823  0  0  0.028243  0  4.089644  0  0  0.117172  0.022497  0  4.065325  0
C  C34  1  0.35016425  0.02318550  0.79618966  1  0  0.041607  0  3.821147  0  0  0.024301  0  4.074362  0  0  0.027729  0  4.089157  0  0  0.117176  0.021854  0  4.064898  0
C  C35  1  0.55549420  0.47704197  0.20426288  1  0  0.04049  0  3.823554  0  0  0.024631  0  4.074911  0  0  0.027985  0  4.089729  0  0  0.116977  0.022258  0  4.065396  0
C  C36  1  0.80707399  0.89399697  0.16769808  1  0  0.304807  0  3.733962  0  0  0.287747  0  4.004928  0  0  0.30027  0  4.019273  0  0  0.21028  0.278956  0  3.995868  0
C  C37  1  0.63765418  0.60583484  0.83179428  1  0  0.303331  0  3.736614  0  0  0.285806  0  4.007144  0  0  0.29834  0  4.02151  0  0  0.20941  0.277009  0  3.998053  0
C  C38  1  0.19292803  0.10600741  0.83230076  1  0  0.304554  0  3.733901  0  0  0.287497  0  4.004869  0  0  0.300026  0  4.019217  0  0  0.210157  0.278698  0  3.995804  0
C  C39  1  0.36233220  0.39416191  0.16820493  1  0  0.303301  0  3.736692  0  0  0.285782  0  4.007203  0  0  0.298312  0  4.02158  0  0  0.209364  0.276982  0  3.998104  0
C  C40  1  0.89163399  0.06526197  0.38463050  1  0  -0.186808  0  3.586675  0  0  -0.291002  0  3.838011  0  0  -0.287976  0  3.844835  0  0  -0.138229  -0.292597  0  3.833523  0
C  C41  1  0.50616553  0.43434565  0.61503024  1  0  -0.186521  0  3.584372  0  0  -0.291355  0  3.836333  0  0  -0.288317  0  3.843238  0  0  -0.138878  -0.293006  0  3.831902  0
C  C42  1  0.10837565  0.93474498  0.61537185  1  0  -0.187  0  3.586745  0  0  -0.291124  0  3.838062  0  0  -0.288096  0  3.844898  0  0  -0.138367  -0.292742  0  3.833577  0
C  C43  1  0.49383978  0.56565706  0.38497312  1  0  -0.186386  0  3.584333  0  0  -0.29132  0  3.836308  0  0  -0.288279  0  3.843213  0  0  -0.138861  -0.292971  0  3.831882  0
N  N44  1  0.34192482  0.08918754  0.22055761  1  0  -0.36817  0  3.224922  0  0  -0.310323  0  3.543501  0  0  -0.328085  0  3.553537  0  0  -0.339768  -0.298526  0  3.536633  0
N  N45  1  0.12026255  0.41047236  0.77922185  1  0  -0.371434  0  3.226675  0  0  -0.313741  0  3.545594  0  0  -0.331507  0  3.555548  0  0  -0.341324  -0.301939  0  3.538774  0
N  N46  1  0.65807721  0.91081688  0.77944883  1  0  -0.368274  0  3.224932  0  0  -0.310362  0  3.543505  0  0  -0.328124  0  3.553548  0  0  -0.339737  -0.298561  0  3.536622  0
N  N47  1  0.87973010  0.58951927  0.22077268  1  0  -0.371479  0  3.226587  0  0  -0.313768  0  3.545486  0  0  -0.33154  0  3.555438  0  0  -0.341318  -0.301967  0  3.538669  0
N  N48  1  0.24004448  0.89573980  0.96210926  1  0  -0.396394  0  2.890903  0  0  -0.35413  0  3.18936  0  0  -0.366312  0  3.193218  0  0  -0.323517  -0.346412  0  3.187093  0
N  N49  1  0.27846970  0.60402746  0.03774696  1  0  -0.396822  0  2.891408  0  0  -0.354752  0  3.190034  0  0  -0.366927  0  3.193881  0  0  -0.324334  -0.347028  0  3.187746  0
N  N50  1  0.75994414  0.10425951  0.03789167  1  0  -0.396329  0  2.8916  0  0  -0.354047  0  3.190047  0  0  -0.366229  0  3.193905  0  0  -0.323486  -0.346335  0  3.187781  0
N  N51  1  0.72151698  0.39597092  0.96224318  1  0  -0.396774  0  2.891169  0  0  -0.354685  0  3.189757  0  0  -0.366856  0  3.193604  0  0  -0.324307  -0.346965  0  3.18748  0
N  N52  1  0.93911945  0.82567951  0.13639706  1  0  -0.372746  0  2.769063  0  0  -0.336464  0  3.045436  0  0  -0.347151  0  3.050274  0  0  -0.307099  -0.329721  0  3.042652  0
N  N53  1  0.80108026  0.67412873  0.86313359  1  0  -0.372066  0  2.768718  0  0  -0.335741  0  3.04488  0  0  -0.346449  0  3.049707  0  0  -0.306397  -0.328987  0  3.042107  0
N  N54  1  0.06086336  0.17432745  0.86360737  1  0  -0.372607  0  2.768816  0  0  -0.336316  0  3.045191  0  0  -0.347006  0  3.050031  0  0  -0.307027  -0.329573  0  3.042403  0
N  N55  1  0.19890480  0.32587062  0.13687466  1  0  -0.371922  0  2.768976  0  0  -0.335614  0  3.04516  0  0  -0.346325  0  3.049984  0  0  -0.306293  -0.328857  0  3.042384  0
N  N56  1  0.68577743  0.05543751  0.30311869  1  0  -0.031587  0  3.544101  0  0  0.060285  0  3.770965  0  0  0.045361  0  3.796174  0  0  -0.218498  0.069851  0  3.754223  0
N  N57  1  0.38134885  0.44425928  0.69648736  1  0  -0.031455  0  3.542451  0  0  0.059962  0  3.769753  0  0  0.04507  0  3.794913  0  0  -0.219229  0.069501  0  3.753028  0
N  N58  1  0.31423205  0.94456859  0.69688406  1  0  -0.031683  0  3.544267  0  0  0.06016  0  3.771131  0  0  0.045239  0  3.796343  0  0  -0.218494  0.069729  0  3.754376  0
N  N59  1  0.61865468  0.55574342  0.30351448  1  0  -0.031473  0  3.542428  0  0  0.060005  0  3.769682  0  0  0.045113  0  3.794843  0  0  -0.219111  0.069541  0  3.752958  0
Cl  Cl60  1  0.94568241  0.37158237  0.38862436  1  0  0.971004  0  4.603321  0  0  0.909328  0  5.130509  0  0  0.950511  0  5.111438  0  0  0.544119  0.880815  0  5.142062  0
Cl  Cl61  1  0.55650252  0.12824788  0.61143988  1  0  0.97116  0  4.603305  0  0  0.909436  0  5.130502  0  0  0.950621  0  5.111425  0  0  0.544227  0.880904  0  5.14205  0
Cl  Cl62  1  0.05431589  0.62841096  0.61137117  1  0  0.970962  0  4.603496  0  0  0.909325  0  5.130648  0  0  0.950502  0  5.111577  0  0  0.544155  0.880808  0  5.1422  0
Cl  Cl63  1  0.44351204  0.87174634  0.38856134  1  0  0.971185  0  4.603225  0  0  0.909423  0  5.130482  0  0  0.950613  0  5.111413  0  0  0.544169  0.880894  0  5.142043  0
O  O64  1  0.77841216  0.30688502  0.28536764  1  0  -0.59911  0  1.859453  0  0  -0.550916  0  2.149914  0  0  -0.571555  0  2.13569  0  0  -0.354665  -0.536112  0  2.158852  0
O  O65  1  0.49211741  0.19287854  0.71467020  1  0  -0.598978  0  1.858523  0  0  -0.550953  0  2.148759  0  0  -0.571487  0  2.134361  0  0  -0.354367  -0.536192  0  2.157801  0
O  O66  1  0.22158406  0.69310664  0.71462993  1  0  -0.599129  0  1.859541  0  0  -0.550919  0  2.149958  0  0  -0.57155  0  2.135733  0  0  -0.354665  -0.536112  0  2.158894  0
O  O67  1  0.50788239  0.80712328  0.28532692  1  0  -0.598935  0  1.858434  0  0  -0.550909  0  2.148681  0  0  -0.571449  0  2.134287  0  0  -0.354318  -0.536154  0  2.157734  0
O  O68  1  0.19165561  0.33401991  0.37392439  1  0  -0.582162  0  1.848817  0  0  -0.531295  0  2.118845  0  0  -0.551076  0  2.104412  0  0  -0.337369  -0.517292  0  2.12803  0
O  O69  1  0.81718430  0.16585648  0.62616719  1  0  -0.582166  0  1.848612  0  0  -0.5305  0  2.117547  0  0  -0.55031  0  2.103186  0  0  -0.336982  -0.516484  0  2.126717  0
O  O70  1  0.80833570  0.66596409  0.62607023  1  0  -0.582095  0  1.848713  0  0  -0.531272  0  2.118776  0  0  -0.551046  0  2.104341  0  0  -0.337354  -0.517269  0  2.127955  0
O  O71  1  0.18282085  0.83414533  0.37382827  1  0  -0.582182  0  1.848475  0  0  -0.530483  0  2.117446  0  0  -0.550292  0  2.103086  0  0  -0.337003  -0.516469  0  2.126625  0
O  O72  1  0.87587814  0.33287398  0.46485380  1  0  -0.55245  0  1.819959  0  0  -0.508941  0  2.084272  0  0  -0.529837  0  2.074002  0  0  -0.329178  -0.494123  0  2.090556  0
O  O73  1  0.41078970  0.16698208  0.53521915  1  0  -0.553043  0  1.820987  0  0  -0.509849  0  2.085879  0  0  -0.53076  0  2.075575  0  0  -0.329988  -0.495035  0  2.092205  0
O  O74  1  0.12411420  0.66712616  0.53514563  1  0  -0.552479  0  1.8201  0  0  -0.508972  0  2.084434  0  0  -0.52987  0  2.07417  0  0  -0.32924  -0.494137  0  2.090674  0
O  O75  1  0.58922442  0.83299937  0.46477499  1  0  -0.553084  0  1.821164  0  0  -0.509876  0  2.085978  0  0  -0.530801  0  2.075701  0  0  -0.32995  -0.495048  0  2.092279  0
