# generated using pymatgen
data_CuH5C5N3ClO2
_symmetry_space_group_name_H-M   'P 1'
_cell_length_a   3.69215817
_cell_length_b   13.15815847
_cell_length_c   15.30877005
_cell_angle_alpha   90.00027414
_cell_angle_beta   90.00012470
_cell_angle_gamma   91.60402042
_symmetry_Int_Tables_number   1
_chemical_formula_structural   CuH5C5N3ClO2
_chemical_formula_sum   'Cu4 H20 C20 N12 Cl4 O8'
_cell_volume   743.43927379
_cell_formula_units_Z   4
loop_
 _symmetry_equiv_pos_site_id
 _symmetry_equiv_pos_as_xyz
  1  'x, y, z'
loop_
 _atom_site_type_symbol
 _atom_site_label
 _atom_site_symmetry_multiplicity
 _atom_site_fract_x
 _atom_site_fract_y
 _atom_site_fract_z
 _atom_site_occupancy
 _atom_site_hle17_bader_spin_density
 _atom_site_hle17_ddec_charge
 _atom_site_hle17_ddec_spin_density
 _atom_site_hle17_ddec_sum_bond_order
 _atom_site_hle17_magmom
 _atom_site_hse06_10hf_bader_spin_density
 _atom_site_hse06_10hf_ddec_charge
 _atom_site_hse06_10hf_ddec_spin_density
 _atom_site_hse06_10hf_ddec_sum_bond_order
 _atom_site_hse06_10hf_magmom
 _atom_site_hse06_bader_spin_density
 _atom_site_hse06_ddec_charge
 _atom_site_hse06_ddec_spin_density
 _atom_site_hse06_ddec_sum_bond_order
 _atom_site_hse06_magmom
 _atom_site_pbe_bader_spin_density
 _atom_site_pbe_cm5_charge
 _atom_site_pbe_ddec_charge
 _atom_site_pbe_ddec_spin_density
 _atom_site_pbe_ddec_sum_bond_order
 _atom_site_pbe_magmom
Cu  Cu0  1  0.82962636  0.08478186  0.97869887  1  0  0.396496  0  1.988598  0  0  0.304665  0  2.475475  0  0  0.313918  0  2.420332  0  0  0.347102  0.301137  0  2.511638  0
Cu  Cu1  1  0.17036832  0.41521723  0.47869709  1  0  0.396481  0  1.988477  0  0  0.304673  0  2.475354  0  0  0.313967  0  2.420247  0  0  0.347119  0.301162  0  2.51148  0
Cu  Cu2  1  0.17037438  0.91521792  0.02130213  1  0  0.396564  0  1.988528  0  0  0.304737  0  2.475409  0  0  0.313979  0  2.420258  0  0  0.347125  0.301206  0  2.511576  0
Cu  Cu3  1  0.82962193  0.58478561  0.52130260  1  0  0.396496  0  1.988574  0  0  0.304699  0  2.475437  0  0  0.313949  0  2.420309  0  0  0.347127  0.301187  0  2.511566  0
H  H4  1  0.15444382  0.01343225  0.81805403  1  0  0.099952  0  0.951498  0  0  0.102444  0  1.026173  0  0  0.10627  0  1.020859  0  0  0.114202  0.099187  0  1.03075  0
H  H5  1  0.84554380  0.48656518  0.31805355  1  0  0.099914  0  0.951549  0  0  0.102373  0  1.026287  0  0  0.106195  0  1.020971  0  0  0.11418  0.099115  0  1.03086  0
H  H6  1  0.84557605  0.98656904  0.18194697  1  0  0.099956  0  0.951441  0  0  0.102438  0  1.026129  0  0  0.106267  0  1.020809  0  0  0.11422  0.099186  0  1.03071  0
H  H7  1  0.15444078  0.51343538  0.68194615  1  0  0.099963  0  0.951497  0  0  0.102412  0  1.026253  0  0  0.10624  0  1.020935  0  0  0.114204  0.099155  0  1.030822  0
H  H8  1  0.85015654  0.36710291  0.75068375  1  0  0.134103  0  0.951866  0  0  0.13989  0  1.015098  0  0  0.143531  0  1.014277  0  0  0.106875  0.137319  0  1.015923  0
H  H9  1  0.14983339  0.13289642  0.25068211  1  0  0.134146  0  0.951836  0  0  0.139885  0  1.015084  0  0  0.143523  0  1.014265  0  0  0.106871  0.137311  0  1.015913  0
H  H10  1  0.14984124  0.63289460  0.24931594  1  0  0.134077  0  0.951879  0  0  0.139857  0  1.015121  0  0  0.143495  0  1.014303  0  0  0.106853  0.137288  0  1.015937  0
H  H11  1  0.85015669  0.86710490  0.74931954  1  0  0.134121  0  0.951767  0  0  0.139841  0  1.015085  0  0  0.143476  0  1.014263  0  0  0.106862  0.13727  0  1.015907  0
H  H12  1  0.63454938  0.26570506  0.96794326  1  0  0.331069  0  0.889449  0  0  0.308821  0  0.965375  0  0  0.317967  0  0.956242  0  0  0.299333  0.302069  0  0.97212  0
H  H13  1  0.36544249  0.23429397  0.46794085  1  0  0.331041  0  0.889521  0  0  0.308799  0  0.965439  0  0  0.317944  0  0.956309  0  0  0.299339  0.302049  0  0.972173  0
H  H14  1  0.36545957  0.73429548  0.03205708  1  0  0.330998  0  0.889484  0  0  0.308774  0  0.965359  0  0  0.317921  0  0.956226  0  0  0.299342  0.302027  0  0.972092  0
H  H15  1  0.63454759  0.76570734  0.53206015  1  0  0.331091  0  0.889536  0  0  0.308831  0  0.965482  0  0  0.31798  0  0.956343  0  0  0.299318  0.302079  0  0.972223  0
H  H16  1  0.61388660  0.37141918  0.89777193  1  0  0.349467  0  0.889663  0  0  0.327297  0  0.955693  0  0  0.335646  0  0.948553  0  0  0.308686  0.321569  0  0.960547  0
H  H17  1  0.38610738  0.12858022  0.39777170  1  0  0.349362  0  0.889817  0  0  0.327195  0  0.955859  0  0  0.335543  0  0.94872  0  0  0.308638  0.321465  0  0.960708  0
H  H18  1  0.38611405  0.62857984  0.10222711  1  0  0.349425  0  0.889705  0  0  0.327254  0  0.955749  0  0  0.335602  0  0.948611  0  0  0.308673  0.321524  0  0.960606  0
H  H19  1  0.61388008  0.87142186  0.60222864  1  0  0.349364  0  0.889791  0  0  0.327194  0  0.955823  0  0  0.33554  0  0.948691  0  0  0.308621  0.321465  0  0.960673  0
H  H20  1  0.15567419  0.26511530  0.63643773  1  0  0.113661  0  0.971758  0  0  0.117704  0  1.043152  0  0  0.121619  0  1.038748  0  0  0.099509  0.114465  0  1.046689  0
H  H21  1  0.84432284  0.23488414  0.13643622  1  0  0.113673  0  0.971809  0  0  0.117725  0  1.043193  0  0  0.121635  0  1.03879  0  0  0.09953  0.114491  0  1.046728  0
H  H22  1  0.84432935  0.73488525  0.36356261  1  0  0.113672  0  0.971745  0  0  0.117719  0  1.04314  0  0  0.121631  0  1.038737  0  0  0.099533  0.11448  0  1.046669  0
H  H23  1  0.15567240  0.76511489  0.86356478  1  0  0.113696  0  0.971786  0  0  0.11775  0  1.043173  0  0  0.121662  0  1.038774  0  0  0.099555  0.114516  0  1.046706  0
C  C24  1  0.08954154  0.09131617  0.80151137  1  0  0.129451  0  3.671146  0  0  0.079581  0  3.942914  0  0  0.095875  0  3.954044  0  0  0.050552  0.068396  0  3.936405  0
C  C25  1  0.91044584  0.40868040  0.30150668  1  0  0.129522  0  3.671245  0  0  0.079649  0  3.942992  0  0  0.095939  0  3.95413  0  0  0.050562  0.068467  0  3.936481  0
C  C26  1  0.91047537  0.90868283  0.19849028  1  0  0.129537  0  3.67109  0  0  0.0797  0  3.942824  0  0  0.095992  0  3.953945  0  0  0.050588  0.068511  0  3.936351  0
C  C27  1  0.08954433  0.59132168  0.69849040  1  0  0.129557  0  3.671129  0  0  0.079666  0  3.942871  0  0  0.095959  0  3.953993  0  0  0.050592  0.068493  0  3.936357  0
C  C28  1  0.92476037  0.28907366  0.76302229  1  0  -0.205669  0  3.66752  0  0  -0.218338  0  3.917621  0  0  -0.232049  0  3.93901  0  0  -0.09346  -0.209923  0  3.903536  0
C  C29  1  0.07523754  0.21092344  0.26302354  1  0  -0.205781  0  3.667587  0  0  -0.218344  0  3.917654  0  0  -0.23205  0  3.939039  0  0  -0.09347  -0.209931  0  3.903581  0
C  C30  1  0.07524299  0.71092536  0.23697806  1  0  -0.205693  0  3.667563  0  0  -0.218349  0  3.917654  0  0  -0.232063  0  3.939051  0  0  -0.093476  -0.209932  0  3.903562  0
C  C31  1  0.92475507  0.78907635  0.73697811  1  0  -0.205709  0  3.66748  0  0  -0.218336  0  3.917678  0  0  -0.232038  0  3.939062  0  0  -0.093455  -0.209916  0  3.903604  0
C  C32  1  0.09031860  0.23285791  0.70003584  1  0  -0.022133  0  3.736798  0  0  -0.054231  0  3.995695  0  0  -0.045328  0  4.012809  0  0  -0.072211  -0.059495  0  3.984185  0
C  C33  1  0.90967083  0.26714113  0.20003057  1  0  -0.022129  0  3.736593  0  0  -0.0543  0  3.995451  0  0  -0.045393  0  4.012562  0  0  -0.072274  -0.059562  0  3.983941  0
C  C34  1  0.90969018  0.76714110  0.29996451  1  0  -0.022106  0  3.736881  0  0  -0.054214  0  3.995762  0  0  -0.045304  0  4.012868  0  0  -0.072214  -0.059471  0  3.984245  0
C  C35  1  0.09032178  0.73285867  0.79996782  1  0  -0.022117  0  3.736764  0  0  -0.054268  0  3.99561  0  0  -0.045366  0  4.012725  0  0  -0.072271  -0.059529  0  3.984096  0
C  C36  1  0.17455932  0.13163220  0.71950946  1  0  -0.019415  0  3.748854  0  0  -0.031623  0  4.011156  0  0  -0.045105  0  4.036539  0  0  0.057523  -0.023006  0  3.994275  0
C  C37  1  0.82543581  0.36836770  0.21950913  1  0  -0.019625  0  3.748985  0  0  -0.031736  0  4.011178  0  0  -0.045213  0  4.036555  0  0  0.057468  -0.023114  0  3.994299  0
C  C38  1  0.82545505  0.86836833  0.28049154  1  0  -0.019574  0  3.749054  0  0  -0.031743  0  4.011364  0  0  -0.045226  0  4.03675  0  0  0.057458  -0.023129  0  3.994503  0
C  C39  1  0.17455969  0.63163361  0.78049056  1  0  -0.019706  0  3.749087  0  0  -0.031703  0  4.011256  0  0  -0.045183  0  4.036636  0  0  0.057479  -0.02309  0  3.994388  0
C  C40  1  0.84629265  0.24499623  0.84584333  1  0  0.494991  0  3.787499  0  0  0.46474  0  4.045099  0  0  0.486994  0  4.058868  0  0  0.236641  0.45037  0  4.035156  0
C  C41  1  0.15368738  0.25500365  0.34583631  1  0  0.495039  0  3.787262  0  0  0.464731  0  4.044905  0  0  0.486979  0  4.058682  0  0  0.236733  0.450366  0  4.034965  0
C  C42  1  0.15371342  0.75500279  0.15415832  1  0  0.494976  0  3.787414  0  0  0.464723  0  4.045028  0  0  0.486975  0  4.0588  0  0  0.236695  0.450358  0  4.035089  0
C  C43  1  0.84629737  0.74499843  0.65416272  1  0  0.495031  0  3.787451  0  0  0.46473  0  4.045123  0  0  0.486981  0  4.058894  0  0  0.236697  0.450354  0  4.035214  0
N  N44  1  0.92841985  0.14575572  0.86363556  1  0  -0.394308  0  3.317016  0  0  -0.321418  0  3.620266  0  0  -0.340919  0  3.62325  0  0  -0.375847  -0.30966  0  3.618562  0
N  N45  1  0.07157354  0.35424120  0.36363479  1  0  -0.394117  0  3.316847  0  0  -0.321233  0  3.62013  0  0  -0.340734  0  3.623132  0  0  -0.375795  -0.309488  0  3.618426  0
N  N46  1  0.07159460  0.85424557  0.13636674  1  0  -0.394292  0  3.31693  0  0  -0.321425  0  3.6202  0  0  -0.340916  0  3.62317  0  0  -0.375856  -0.30968  0  3.618513  0
N  N47  1  0.92841663  0.64576087  0.63636490  1  0  -0.394262  0  3.316879  0  0  -0.321362  0  3.620175  0  0  -0.340853  0  3.623148  0  0  -0.375856  -0.309625  0  3.618485  0
N  N48  1  0.35038558  0.07060020  0.65581778  1  0  0.473181  0  3.97157  0  0  0.513294  0  4.25617  0  0  0.535101  0  4.267334  0  0  0.040037  0.498645  0  4.248773  0
N  N49  1  0.64960579  0.42939554  0.15581304  1  0  0.473305  0  3.971391  0  0  0.513403  0  4.255968  0  0  0.535198  0  4.267148  0  0  0.040153  0.498748  0  4.24858  0
N  N50  1  0.64961762  0.92939730  0.34418518  1  0  0.473367  0  3.971245  0  0  0.51338  0  4.255993  0  0  0.535182  0  4.267164  0  0  0.040114  0.498727  0  4.248606  0
N  N51  1  0.35040019  0.57060272  0.84418273  1  0  0.473586  0  3.971167  0  0  0.513469  0  4.256023  0  0  0.535268  0  4.267201  0  0  0.040167  0.498828  0  4.248617  0
N  N52  1  0.68977025  0.29837358  0.90894579  1  0  -0.613784  0  3.101391  0  0  -0.57755  0  3.336331  0  0  -0.601512  0  3.334071  0  0  -0.549861  -0.56081  0  3.337265  0
N  N53  1  0.31022341  0.20162208  0.40894909  1  0  -0.613793  0  3.101012  0  0  -0.577542  0  3.335948  0  0  -0.601506  0  3.333689  0  0  -0.549947  -0.560799  0  3.336869  0
N  N54  1  0.31023040  0.70162545  0.09105260  1  0  -0.613708  0  3.101437  0  0  -0.577467  0  3.336364  0  0  -0.60143  0  3.334106  0  0  -0.549899  -0.560721  0  3.337291  0
N  N55  1  0.68976396  0.79837924  0.59105256  1  0  -0.613822  0  3.101344  0  0  -0.577537  0  3.336248  0  0  -0.601502  0  3.333987  0  0  -0.549864  -0.560788  0  3.337177  0
Cl  Cl56  1  0.34088505  0.09848710  0.06867204  1  0  -0.495397  0  1.493613  0  0  -0.422429  0  1.893828  0  0  -0.43816  0  1.852086  0  0  -0.272578  -0.410294  0  1.921643  0
Cl  Cl57  1  0.65910887  0.40151423  0.56867307  1  0  -0.495356  0  1.493449  0  0  -0.422404  0  1.893671  0  0  -0.438167  0  1.851975  0  0  -0.272576  -0.410278  0  1.921455  0
Cl  Cl58  1  0.65911569  0.90151268  0.93132896  1  0  -0.495415  0  1.493606  0  0  -0.422454  0  1.893821  0  0  -0.438182  0  1.852074  0  0  -0.272589  -0.410317  0  1.921627  0
Cl  Cl59  1  0.34088113  0.59848632  0.43132859  1  0  -0.495385  0  1.493598  0  0  -0.422436  0  1.893843  0  0  -0.438174  0  1.852108  0  0  -0.272582  -0.41031  0  1.921631  0
O  O60  1  0.43662939  0.10915476  0.58420795  1  0  -0.359393  0  1.746517  0  0  -0.343884  0  1.948879  0  0  -0.352208  0  1.943012  0  0  -0.143928  -0.338951  0  1.953305  0
O  O61  1  0.56336992  0.39084514  0.08420758  1  0  -0.359408  0  1.746674  0  0  -0.343906  0  1.949055  0  0  -0.352226  0  1.943195  0  0  -0.143973  -0.338983  0  1.953494  0
O  O62  1  0.56336847  0.89084351  0.41579044  1  0  -0.359418  0  1.746436  0  0  -0.34389  0  1.948872  0  0  -0.352212  0  1.943005  0  0  -0.143962  -0.33896  0  1.953307  0
O  O63  1  0.43664393  0.60915083  0.91578950  1  0  -0.359438  0  1.746491  0  0  -0.343891  0  1.948979  0  0  -0.35221  0  1.943112  0  0  -0.143934  -0.338977  0  1.953417  0
O  O64  1  0.41376854  0.97975076  0.67539863  1  0  -0.412279  0  1.796065  0  0  -0.38895  0  2.009317  0  0  -0.401622  0  2.00565  0  0  -0.152566  -0.381003  0  2.012257  0
O  O65  1  0.58622596  0.52024833  0.17539741  1  0  -0.412247  0  1.79577  0  0  -0.388954  0  2.009073  0  0  -0.401617  0  2.005405  0  0  -0.152566  -0.381012  0  2.012023  0
O  O66  1  0.58623762  0.02024902  0.32460106  1  0  -0.41237  0  1.795795  0  0  -0.389025  0  2.009106  0  0  -0.401698  0  2.005439  0  0  -0.152606  -0.381074  0  2.012051  0
O  O67  1  0.41377740  0.47975070  0.82459509  1  0  -0.412484  0  1.795782  0  0  -0.389105  0  2.00914  0  0  -0.401775  0  2.00547  0  0  -0.152661  -0.381157  0  2.012075  0
