# generated using pymatgen
data_CdH10C14(SN3)2
_symmetry_space_group_name_H-M   'P 1'
_cell_length_a   5.76807148
_cell_length_b   7.96242821
_cell_length_c   9.87895270
_cell_angle_alpha   72.75423504
_cell_angle_beta   73.83217148
_cell_angle_gamma   80.65978533
_symmetry_Int_Tables_number   1
_chemical_formula_structural   CdH10C14(SN3)2
_chemical_formula_sum   'Cd1 H10 C14 S2 N6'
_cell_volume   414.60728647
_cell_formula_units_Z   1
loop_
 _symmetry_equiv_pos_site_id
 _symmetry_equiv_pos_as_xyz
  1  'x, y, z'
loop_
 _atom_site_type_symbol
 _atom_site_label
 _atom_site_symmetry_multiplicity
 _atom_site_fract_x
 _atom_site_fract_y
 _atom_site_fract_z
 _atom_site_occupancy
 _atom_site_hle17_bader_spin_density
 _atom_site_hle17_ddec_charge
 _atom_site_hle17_ddec_spin_density
 _atom_site_hle17_ddec_sum_bond_order
 _atom_site_hle17_magmom
 _atom_site_hse06_10hf_bader_spin_density
 _atom_site_hse06_10hf_ddec_charge
 _atom_site_hse06_10hf_ddec_spin_density
 _atom_site_hse06_10hf_ddec_sum_bond_order
 _atom_site_hse06_10hf_magmom
 _atom_site_hse06_bader_spin_density
 _atom_site_hse06_ddec_charge
 _atom_site_hse06_ddec_spin_density
 _atom_site_hse06_ddec_sum_bond_order
 _atom_site_hse06_magmom
 _atom_site_pbe_bader_spin_density
 _atom_site_pbe_cm5_charge
 _atom_site_pbe_ddec_charge
 _atom_site_pbe_ddec_spin_density
 _atom_site_pbe_ddec_sum_bond_order
 _atom_site_pbe_magmom
Cd  Cd0  1  0.50000552  0.00000238  0.50000110  1  0  0.946687  0  2.002347  0  0  0.766231  0  2.46905  0  0  0.810739  0  2.433512  0  0  0.72629  0.73581  0  2.492307  0
H  H1  1  0.68369263  0.37191657  0.41575349  1  0  0.081986  0  0.964528  0  0  0.089327  0  1.029442  0  0  0.091622  0  1.028085  0  0  0.111161  0.087813  0  1.030037  0
H  H2  1  0.31630966  0.62809483  0.58423745  1  0  0.081994  0  0.964526  0  0  0.089395  0  1.029401  0  0  0.091693  0  1.02803  0  0  0.111151  0.087884  0  1.029987  0
H  H3  1  0.66942947  0.67889715  0.24992608  1  0  0.107337  0  0.993302  0  0  0.109713  0  1.069327  0  0  0.113635  0  1.067264  0  0  0.097303  0.106788  0  1.071187  0
H  H4  1  0.33056404  0.32111139  0.75006308  1  0  0.107433  0  0.993253  0  0  0.109754  0  1.069301  0  0  0.113672  0  1.067246  0  0  0.097302  0.106832  0  1.071157  0
H  H5  1  0.10520643  0.53482021  0.10589987  1  0  0.106982  0  0.938936  0  0  0.119761  0  0.995035  0  0  0.122895  0  0.994503  0  0  0.108537  0.117708  0  0.994995  0
H  H6  1  0.89480291  0.46516619  0.89409742  1  0  0.10698  0  0.938886  0  0  0.119776  0  0.994968  0  0  0.122911  0  0.994437  0  0  0.108527  0.11772  0  0.994926  0
H  H7  1  0.14376078  0.23518117  0.27650082  1  0  0.075882  0  0.968698  0  0  0.081844  0  1.038476  0  0  0.083387  0  1.037877  0  0  0.108759  0.080556  0  1.0393  0
H  H8  1  0.85624429  0.76480901  0.72349217  1  0  0.07585  0  0.968776  0  0  0.081816  0  1.038548  0  0  0.083359  0  1.037951  0  0  0.108749  0.08053  0  1.039362  0
H  H9  1  0.23882921  0.83866774  0.99566526  1  0  0.076826  0  0.94799  0  0  0.081567  0  1.023715  0  0  0.08599  0  1.018423  0  0  0.10705  0.078889  0  1.026404  0
H  H10  1  0.76116608  0.16134233  0.00432826  1  0  0.076878  0  0.947997  0  0  0.081609  0  1.023704  0  0  0.086033  0  1.018412  0  0  0.10707  0.078929  0  1.026395  0
C  C11  1  0.56016185  0.41425613  0.34367721  1  0  0.115056  0  3.713931  0  0  0.087428  0  3.962386  0  0  0.093145  0  3.981668  0  0  0.039336  0.083853  0  3.948702  0
C  C12  1  0.43982322  0.58575148  0.65632582  1  0  0.115145  0  3.714011  0  0  0.08743  0  3.962417  0  0  0.093151  0  3.9817  0  0  0.039369  0.083859  0  3.948737  0
C  C13  1  0.55256742  0.58335137  0.25140210  1  0  -0.133241  0  3.680624  0  0  -0.151063  0  3.923982  0  0  -0.157803  0  3.944519  0  0  -0.076662  -0.147134  0  3.910228  0
C  C14  1  0.44741954  0.41665482  0.74859794  1  0  -0.133449  0  3.680615  0  0  -0.151141  0  3.924009  0  0  -0.157881  0  3.944547  0  0  -0.076661  -0.147213  0  3.910251  0
C  C15  1  0.38967739  0.63067590  0.16096805  1  0  0.094308  0  3.792391  0  0  0.110764  0  4.021378  0  0  0.113304  0  4.044064  0  0  0.00861  0.109097  0  4.006058  0
C  C16  1  0.61031574  0.36932358  0.83902863  1  0  0.09446  0  3.792286  0  0  0.110738  0  4.021412  0  0  0.113278  0  4.044094  0  0  0.008593  0.109065  0  4.006104  0
C  C17  1  0.23831454  0.50363552  0.17139782  1  0  -0.151137  0  3.690999  0  0  -0.169469  0  3.934281  0  0  -0.177238  0  3.956311  0  0  -0.078356  -0.163873  0  3.918938  0
C  C18  1  0.76168535  0.49635489  0.82860310  1  0  -0.151141  0  3.69078  0  0  -0.169458  0  3.934129  0  0  -0.177229  0  3.956163  0  0  -0.078342  -0.16386  0  3.918782  0
C  C19  1  0.25802035  0.33663084  0.26703218  1  0  0.132711  0  3.699497  0  0  0.104651  0  3.948172  0  0  0.111515  0  3.967366  0  0  0.04443  0.099796  0  3.935537  0
C  C20  1  0.74197741  0.66336223  0.73296943  1  0  0.132699  0  3.699467  0  0  0.104622  0  3.948137  0  0  0.111482  0  3.967335  0  0  0.044422  0.09977  0  3.935498  0
C  C21  1  0.37482959  0.80593423  0.06046730  1  0  0.086842  0  3.658355  0  0  0.052071  0  3.923525  0  0  0.058434  0  3.934457  0  0  0.07348  0.047806  0  3.91558  0
C  C22  1  0.62516335  0.19406657  0.93952906  1  0  0.086686  0  3.658538  0  0  0.05204  0  3.92361  0  0  0.058404  0  3.934542  0  0  0.073483  0.047777  0  3.915671  0
C  C23  1  0.91435113  0.08573641  0.64522135  1  0  0.300918  0  4.008043  0  0  0.279142  0  4.310693  0  0  0.301109  0  4.325516  0  0  0.145485  0.264265  0  4.300587  0
C  C24  1  0.08566470  0.91425991  0.35478841  1  0  0.301095  0  4.007968  0  0  0.279324  0  4.310593  0  0  0.301293  0  4.325414  0  0  0.14562  0.264448  0  4.300489  0
S  S25  1  0.12502411  0.05538145  0.73290286  1  0  -0.328666  0  2.203012  0  0  -0.305115  0  2.547242  0  0  -0.322351  0  2.53952  0  0  -0.129034  -0.293687  0  2.551431  0
S  S26  1  0.87498226  0.94461887  0.26711054  1  0  -0.328671  0  2.203  0  0  -0.305144  0  2.547271  0  0  -0.322384  0  2.539551  0  0  -0.129022  -0.293713  0  2.551465  0
N  N27  1  0.41749225  0.29159186  0.35135923  1  0  -0.321852  0  3.244427  0  0  -0.245389  0  3.501021  0  0  -0.264479  0  3.522024  0  0  -0.324129  -0.232281  0  3.486427  0
N  N28  1  0.58250118  0.70840797  0.64864642  1  0  -0.321893  0  3.244506  0  0  -0.245379  0  3.501071  0  0  -0.264469  0  3.522075  0  0  -0.324113  -0.232281  0  3.48649  0
N  N29  1  0.52040224  0.92023277  0.04920471  1  0  -0.183219  0  3.023525  0  0  -0.152074  0  3.3109  0  0  -0.160721  0  3.327991  0  0  -0.204601  -0.145712  0  3.298622  0
N  N30  1  0.47958510  0.07977081  0.95079696  1  0  -0.183146  0  3.023679  0  0  -0.152036  0  3.311018  0  0  -0.160679  0  3.328106  0  0  -0.204598  -0.145673  0  3.298741  0
N  N31  1  0.75685839  0.11087402  0.58425655  1  0  -0.534092  0  2.90544  0  0  -0.476287  0  3.184579  0  0  -0.497828  0  3.192228  0  0  -0.394535  -0.461805  0  3.179135  0
N  N32  1  0.24315333  0.88912476  0.41574923  1  0  -0.534249  0  2.905375  0  0  -0.476448  0  3.184519  0  0  -0.497988  0  3.192164  0  0  -0.394673  -0.461963  0  3.179071  0
