# generated using pymatgen
data_HoAgH8C14(NO4)2
_symmetry_space_group_name_H-M   'P 1'
_cell_length_a   9.44818815
_cell_length_b   11.99953495
_cell_length_c   16.63652955
_cell_angle_alpha   96.74193383
_cell_angle_beta   89.99756149
_cell_angle_gamma   113.20216727
_symmetry_Int_Tables_number   1
_chemical_formula_structural   HoAgH8C14(NO4)2
_chemical_formula_sum   'Ho4 Ag4 H32 C56 N8 O32'
_cell_volume   1719.40138536
_cell_formula_units_Z   4
loop_
 _symmetry_equiv_pos_site_id
 _symmetry_equiv_pos_as_xyz
  1  'x, y, z'
loop_
 _atom_site_type_symbol
 _atom_site_label
 _atom_site_symmetry_multiplicity
 _atom_site_fract_x
 _atom_site_fract_y
 _atom_site_fract_z
 _atom_site_occupancy
 _atom_site_hle17_bader_spin_density
 _atom_site_hle17_ddec_charge
 _atom_site_hle17_ddec_spin_density
 _atom_site_hle17_ddec_sum_bond_order
 _atom_site_hle17_magmom
 _atom_site_hse06_10hf_bader_spin_density
 _atom_site_hse06_10hf_ddec_charge
 _atom_site_hse06_10hf_ddec_spin_density
 _atom_site_hse06_10hf_ddec_sum_bond_order
 _atom_site_hse06_10hf_magmom
 _atom_site_hse06_bader_spin_density
 _atom_site_hse06_ddec_charge
 _atom_site_hse06_ddec_spin_density
 _atom_site_hse06_ddec_sum_bond_order
 _atom_site_hse06_magmom
 _atom_site_pbe_bader_spin_density
 _atom_site_pbe_cm5_charge
 _atom_site_pbe_ddec_charge
 _atom_site_pbe_ddec_spin_density
 _atom_site_pbe_ddec_sum_bond_order
 _atom_site_pbe_magmom
Ho  Ho0  1  0.70801508  0.00981248  0.43275930  1  0  2.251764  0  1.657445  0  0  2.108697  0  2.138865  0  0  2.240706  0  1.939863  0  0  1.515274  2.072767  0  2.169451  0
Ho  Ho1  1  0.69818397  0.99017887  0.06722300  1  0  2.252336  0  1.657785  0  0  2.109677  0  2.138493  0  0  2.24127  0  1.94025  0  0  1.515745  2.073712  0  2.169106  0
Ho  Ho2  1  0.29199207  0.99019331  0.56723897  1  0  2.251749  0  1.657453  0  0  2.10873  0  2.138804  0  0  2.240691  0  1.93988  0  0  1.515359  2.072764  0  2.169451  0
Ho  Ho3  1  0.30181393  0.00981692  0.93277867  1  0  2.252346  0  1.65779  0  0  2.109645  0  2.138568  0  0  2.241291  0  1.940236  0  0  1.515739  2.07366  0  2.169192  0
Ag  Ag4  1  0.95608450  0.67786744  0.41531199  1  0  0.527291  0  1.377587  0  0  0.36503  0  1.797039  0  0  0.398236  0  1.752441  0  0  0.484732  0.343188  0  1.827352  0
Ag  Ag5  1  0.27817550  0.32212550  0.08461593  1  0  0.527207  0  1.377193  0  0  0.365053  0  1.796519  0  0  0.398286  0  1.751877  0  0  0.484518  0.343117  0  1.826943  0
Ag  Ag6  1  0.04390296  0.32213287  0.58468584  1  0  0.527285  0  1.377567  0  0  0.365007  0  1.79701  0  0  0.398222  0  1.752401  0  0  0.484704  0.343149  0  1.827316  0
Ag  Ag7  1  0.72181798  0.67786566  0.91537996  1  0  0.527246  0  1.377124  0  0  0.365102  0  1.796451  0  0  0.398337  0  1.751804  0  0  0.484505  0.34318  0  1.82688  0
H  H8  1  0.51536309  0.64294999  0.37717840  1  0  0.125869  0  0.912141  0  0  0.137178  0  0.967143  0  0  0.14138  0  0.962551  0  0  0.12431  0.134037  0  0.970422  0
H  H9  1  0.87253972  0.35706331  0.12278183  1  0  0.126215  0  0.911371  0  0  0.137416  0  0.96656  0  0  0.141675  0  0.961875  0  0  0.124431  0.134317  0  0.969763  0
H  H10  1  0.48463872  0.35704302  0.62282004  1  0  0.125894  0  0.912215  0  0  0.137201  0  0.967202  0  0  0.141413  0  0.962597  0  0  0.124327  0.134066  0  0.970475  0
H  H11  1  0.12746047  0.64293705  0.87722081  1  0  0.126184  0  0.911481  0  0  0.13742  0  0.966619  0  0  0.141647  0  0.961979  0  0  0.124408  0.13432  0  0.969821  0
H  H12  1  0.40649944  0.81000525  0.72023510  1  0  0.133248  0  0.942305  0  0  0.143397  0  0.998883  0  0  0.147185  0  0.996573  0  0  0.121352  0.140785  0  1.000278  0
H  H13  1  0.59647842  0.18976855  0.77978823  1  0  0.13239  0  0.943377  0  0  0.143298  0  0.999074  0  0  0.147027  0  0.996863  0  0  0.121471  0.140695  0  1.000423  0
H  H14  1  0.59350374  0.18999686  0.27975986  1  0  0.133212  0  0.942313  0  0  0.143359  0  0.998903  0  0  0.147147  0  0.996594  0  0  0.121349  0.140749  0  1.000301  0
H  H15  1  0.40351861  0.81023184  0.22021742  1  0  0.132419  0  0.943405  0  0  0.143353  0  0.999065  0  0  0.147069  0  0.99687  0  0  0.121474  0.14076  0  1.000401  0
H  H16  1  0.88395530  0.91061369  0.66492254  1  0  0.12279  0  0.938742  0  0  0.131912  0  0.999576  0  0  0.135013  0  0.998792  0  0  0.117838  0.129695  0  1.000113  0
H  H17  1  0.97336236  0.08930464  0.83516442  1  0  0.123872  0  0.938756  0  0  0.132693  0  0.999737  0  0  0.135795  0  0.998949  0  0  0.118422  0.130505  0  1.000234  0
H  H18  1  0.11605045  0.08938298  0.33507680  1  0  0.122817  0  0.938806  0  0  0.131945  0  0.999622  0  0  0.135047  0  0.998838  0  0  0.117856  0.129727  0  1.000169  0
H  H19  1  0.02663814  0.91069845  0.16483724  1  0  0.123901  0  0.938824  0  0  0.13271  0  0.999808  0  0  0.135812  0  0.999021  0  0  0.118432  0.130527  0  1.000304  0
H  H20  1  0.16190471  0.59040396  0.54866469  1  0  0.095468  0  0.929295  0  0  0.103724  0  0.992785  0  0  0.107282  0  0.988443  0  0  0.123963  0.101214  0  0.995725  0
H  H21  1  0.57175296  0.40973214  0.95134643  1  0  0.094879  0  0.928286  0  0  0.103266  0  0.991867  0  0  0.106916  0  0.987408  0  0  0.123744  0.100709  0  0.994848  0
H  H22  1  0.83809364  0.40959907  0.45133095  1  0  0.095472  0  0.929204  0  0  0.103717  0  0.992715  0  0  0.107281  0  0.988367  0  0  0.124005  0.1012  0  0.995656  0
H  H23  1  0.42824296  0.59026180  0.04865389  1  0  0.094878  0  0.928164  0  0  0.103269  0  0.991742  0  0  0.106918  0  0.987283  0  0  0.123715  0.10071  0  0.994723  0
H  H24  1  0.44394262  0.41316157  0.36191038  1  0  0.100041  0  0.957498  0  0  0.110192  0  1.015647  0  0  0.112142  0  1.017754  0  0  0.105925  0.108835  0  1.014289  0
H  H25  1  0.03106287  0.58689289  0.13817675  1  0  0.100759  0  0.957079  0  0  0.111174  0  1.014866  0  0  0.113126  0  1.016979  0  0  0.10634  0.109757  0  1.013612  0
H  H26  1  0.55605073  0.58683146  0.63808986  1  0  0.100052  0  0.957505  0  0  0.110211  0  1.015644  0  0  0.112162  0  1.017754  0  0  0.105927  0.108856  0  1.014277  0
H  H27  1  0.96893353  0.41310835  0.86182295  1  0  0.100843  0  0.956922  0  0  0.111235  0  1.014747  0  0  0.113188  0  1.016858  0  0  0.106369  0.109814  0  1.013492  0
H  H28  1  0.91107178  0.79860703  0.77773512  1  0  0.097572  0  0.936411  0  0  0.108487  0  0.994885  0  0  0.111176  0  0.992404  0  0  0.12285  0.106596  0  0.996497  0
H  H29  1  0.11262850  0.20140361  0.72240079  1  0  0.097587  0  0.936519  0  0  0.108274  0  0.99504  0  0  0.110969  0  0.992556  0  0  0.12318  0.106367  0  0.996652  0
H  H30  1  0.08892657  0.20138965  0.22226542  1  0  0.097561  0  0.936426  0  0  0.108477  0  0.994901  0  0  0.111165  0  0.992419  0  0  0.122851  0.106587  0  0.996512  0
H  H31  1  0.88736973  0.79860129  0.27759921  1  0  0.097528  0  0.936561  0  0  0.108234  0  0.995065  0  0  0.110929  0  0.99258  0  0  0.12316  0.106331  0  0.996683  0
H  H32  1  0.23881021  0.28680582  0.44757038  1  0  0.097615  0  0.937322  0  0  0.105429  0  1.000415  0  0  0.10802  0  0.997941  0  0  0.123274  0.103563  0  1.002019  0
H  H33  1  0.95245792  0.71329817  0.05245052  1  0  0.098039  0  0.937106  0  0  0.105522  0  1.000657  0  0  0.108123  0  0.99816  0  0  0.123209  0.103747  0  1.002107  0
H  H34  1  0.76117906  0.71319175  0.55242783  1  0  0.097626  0  0.937201  0  0  0.10543  0  1.000313  0  0  0.108022  0  0.997838  0  0  0.123261  0.103567  0  1.001913  0
H  H35  1  0.04753618  0.28669847  0.94754581  1  0  0.097984  0  0.937094  0  0  0.105504  0  1.000585  0  0  0.108105  0  0.99809  0  0  0.123196  0.103734  0  1.002027  0
H  H36  1  0.44874632  0.69519539  0.82695892  1  0  0.070395  0  0.959376  0  0  0.083107  0  1.019252  0  0  0.084423  0  1.018578  0  0  0.115479  0.082161  0  1.019677  0
H  H37  1  0.75363284  0.30459340  0.67312462  1  0  0.070082  0  0.959827  0  0  0.082868  0  1.019636  0  0  0.084174  0  1.018976  0  0  0.114879  0.081949  0  1.020015  0
H  H38  1  0.55124869  0.30480307  0.17303636  1  0  0.070324  0  0.95936  0  0  0.083072  0  1.019207  0  0  0.084388  0  1.018533  0  0  0.115471  0.082123  0  1.019634  0
H  H39  1  0.24635935  0.69540789  0.32687990  1  0  0.070122  0  0.959808  0  0  0.08292  0  1.019609  0  0  0.084225  0  1.018947  0  0  0.114916  0.082002  0  1.019986  0
C  C40  1  0.42326907  0.58176645  0.41039271  1  0  -0.008183  0  3.668524  0  0  -0.034493  0  3.909495  0  0  -0.028663  0  3.925317  0  0  -0.052561  -0.037774  0  3.898158  0
C  C41  1  0.84177137  0.41830045  0.08956965  1  0  -0.008839  0  3.667127  0  0  -0.035059  0  3.908412  0  0  -0.02927  0  3.924207  0  0  -0.052707  -0.038312  0  3.897031  0
C  C42  1  0.57672807  0.41823205  0.58960678  1  0  -0.00822  0  3.668616  0  0  -0.034488  0  3.909536  0  0  -0.028665  0  3.92536  0  0  -0.052551  -0.037778  0  3.898201  0
C  C43  1  0.15822715  0.58170082  0.91043246  1  0  -0.008902  0  3.66727  0  0  -0.035125  0  3.908553  0  0  -0.029315  0  3.924356  0  0  -0.052729  -0.03838  0  3.897168  0
C  C44  1  0.51926458  0.80807960  0.73039137  1  0  -0.104933  0  3.671995  0  0  -0.124873  0  3.912581  0  0  -0.129124  0  3.930812  0  0  -0.069474  -0.121982  0  3.899689  0
C  C45  1  0.71116119  0.19165411  0.76964533  1  0  -0.104406  0  3.669617  0  0  -0.124793  0  3.910385  0  0  -0.129002  0  3.928654  0  0  -0.069413  -0.121849  0  3.897518  0
C  C46  1  0.48073908  0.19192345  0.26960668  1  0  -0.104883  0  3.671833  0  0  -0.124841  0  3.912435  0  0  -0.129089  0  3.930668  0  0  -0.069467  -0.12196  0  3.899564  0
C  C47  1  0.28883631  0.80834720  0.23036099  1  0  -0.104567  0  3.669809  0  0  -0.125002  0  3.910566  0  0  -0.129202  0  3.928839  0  0  -0.069488  -0.122061  0  3.897698  0
C  C48  1  0.34080683  0.63095192  0.46290535  1  0  -0.113546  0  3.745572  0  0  -0.087664  0  3.978178  0  0  -0.09993  0  4.00058  0  0  -0.011348  -0.079542  0  3.961874  0
C  C49  1  0.71016682  0.36912273  0.03700602  1  0  -0.113702  0  3.743297  0  0  -0.087867  0  3.976402  0  0  -0.100084  0  3.998711  0  0  -0.011173  -0.079781  0  3.960185  0
C  C50  1  0.65919273  0.36904930  0.53709195  1  0  -0.113606  0  3.745593  0  0  -0.087757  0  3.978195  0  0  -0.100023  0  4.000599  0  0  -0.011386  -0.079636  0  3.961887  0
C  C51  1  0.28983154  0.63087397  0.96299573  1  0  -0.113562  0  3.743147  0  0  -0.087772  0  3.97634  0  0  -0.09999  0  3.998643  0  0  -0.011105  -0.079701  0  3.960148  0
C  C52  1  0.78523414  0.86501408  0.70016519  1  0  -0.114389  0  3.6988  0  0  -0.13578  0  3.947404  0  0  -0.140774  0  3.96808  0  0  -0.071786  -0.132392  0  3.933192  0
C  C53  1  0.92025566  0.13485597  0.79990403  1  0  -0.117297  0  3.700711  0  0  -0.138278  0  3.949935  0  0  -0.143267  0  3.970548  0  0  -0.072804  -0.134872  0  3.935685  0
C  C54  1  0.21476724  0.13498442  0.29983430  1  0  -0.114451  0  3.698841  0  0  -0.135842  0  3.947407  0  0  -0.140835  0  3.968081  0  0  -0.071818  -0.132449  0  3.933214  0
C  C55  1  0.07974575  0.86514894  0.20009778  1  0  -0.117339  0  3.700887  0  0  -0.138334  0  3.950088  0  0  -0.143324  0  3.970698  0  0  -0.072853  -0.134919  0  3.935851  0
C  C56  1  0.96498750  0.93010582  0.48879720  1  0  0.556891  0  3.955839  0  0  0.510882  0  4.250722  0  0  0.541109  0  4.249236  0  0  0.202638  0.489727  0  4.257602  0
C  C57  1  0.03495688  0.06987485  0.01127551  1  0  0.556037  0  3.955312  0  0  0.510091  0  4.249609  0  0  0.540339  0  4.248066  0  0  0.202576  0.488995  0  4.25645  0
C  C58  1  0.03503919  0.06990730  0.51120286  1  0  0.556566  0  3.956366  0  0  0.510678  0  4.251125  0  0  0.540928  0  4.249608  0  0  0.202564  0.489484  0  4.258041  0
C  C59  1  0.96502162  0.93010542  0.98872792  1  0  0.555911  0  3.955597  0  0  0.510147  0  4.249676  0  0  0.540395  0  4.248132  0  0  0.202442  0.489027  0  4.256559  0
C  C60  1  0.22628536  0.55331291  0.50706782  1  0  0.094666  0  3.703162  0  0  0.055836  0  3.943832  0  0  0.064505  0  3.96147  0  0  0.048818  0.050087  0  3.931993  0
C  C61  1  0.67327434  0.44678162  0.99291700  1  0  0.095719  0  3.701246  0  0  0.057036  0  3.941838  0  0  0.065458  0  3.959818  0  0  0.049138  0.051308  0  3.930042  0
C  C62  1  0.77371103  0.44668831  0.49292948  1  0  0.094756  0  3.702907  0  0  0.055965  0  3.94357  0  0  0.064622  0  3.961229  0  0  0.048828  0.050222  0  3.931726  0
C  C63  1  0.32672264  0.55321232  0.00708333  1  0  0.095635  0  3.701052  0  0  0.056967  0  3.941663  0  0  0.065396  0  3.95963  0  0  0.049116  0.051241  0  3.929869  0
C  C64  1  0.38472582  0.45620270  0.40281363  1  0  -0.119697  0  3.74058  0  0  -0.129472  0  3.990094  0  0  -0.138636  0  4.014365  0  0  -0.080816  -0.123671  0  3.973783  0
C  C65  1  0.92884938  0.54387593  0.09720502  1  0  -0.121399  0  3.741365  0  0  -0.131264  0  3.990863  0  0  -0.140436  0  4.015101  0  0  -0.081959  -0.125438  0  3.974593  0
C  C66  1  0.61526830  0.54379398  0.59718631  1  0  -0.119651  0  3.74067  0  0  -0.129449  0  3.990168  0  0  -0.138615  0  4.014438  0  0  -0.080783  -0.123645  0  3.973846  0
C  C67  1  0.07114748  0.45612624  0.90279597  1  0  -0.121426  0  3.741198  0  0  -0.131294  0  3.990724  0  0  -0.140463  0  4.014948  0  0  -0.081964  -0.125454  0  3.974429  0
C  C68  1  0.37724110  0.76574495  0.47512972  1  0  0.705106  0  3.914201  0  0  0.656261  0  4.207592  0  0  0.6923  0  4.202543  0  0  0.228029  0.632344  0  4.213478  0
C  C69  1  0.61195066  0.23429861  0.02470532  1  0  0.707653  0  3.912166  0  0  0.658391  0  4.20629  0  0  0.694528  0  4.200982  0  0  0.228866  0.634476  0  4.212223  0
C  C70  1  0.62275787  0.23425720  0.52486885  1  0  0.705278  0  3.914122  0  0  0.656482  0  4.207437  0  0  0.692514  0  4.202394  0  0  0.228239  0.632569  0  4.213305  0
C  C71  1  0.38805739  0.76569629  0.97529988  1  0  0.707677  0  3.912022  0  0  0.658372  0  4.206276  0  0  0.694509  0  4.200965  0  0  0.228814  0.634454  0  4.21222  0
C  C72  1  0.62176207  0.94586796  0.62198503  1  0  0.706527  0  3.882398  0  0  0.660706  0  4.171712  0  0  0.696905  0  4.164193  0  0  0.228731  0.63669  0  4.178956  0
C  C73  1  0.67584219  0.05376947  0.87801130  1  0  0.705622  0  3.884377  0  0  0.65985  0  4.174314  0  0  0.696035  0  4.166883  0  0  0.228272  0.635854  0  4.181559  0
C  C74  1  0.37823737  0.05413512  0.37801603  1  0  0.70652  0  3.882557  0  0  0.660648  0  4.171922  0  0  0.696852  0  4.164401  0  0  0.228677  0.636655  0  4.179169  0
C  C75  1  0.32417163  0.94623276  0.12199570  1  0  0.705534  0  3.884319  0  0  0.659709  0  4.174325  0  0  0.695876  0  4.166933  0  0  0.228219  0.635711  0  4.181587  0
C  C76  1  0.80070926  0.80173218  0.76225219  1  0  0.114827  0  3.66906  0  0  0.085138  0  3.913219  0  0  0.091004  0  3.93215  0  0  0.047224  0.08125  0  3.900248  0
C  C77  1  0.99908046  0.19818937  0.73784532  1  0  0.116235  0  3.668976  0  0  0.08671  0  3.913183  0  0  0.09258  0  3.932119  0  0  0.047294  0.082843  0  3.900148  0
C  C78  1  0.19928711  0.19826266  0.23774640  1  0  0.114814  0  3.669023  0  0  0.08512  0  3.913182  0  0  0.090985  0  3.932115  0  0  0.047216  0.081227  0  3.900218  0
C  C79  1  0.00091778  0.80181553  0.26215528  1  0  0.116322  0  3.668949  0  0  0.086778  0  3.913155  0  0  0.09265  0  3.93209  0  0  0.0473  0.082912  0  3.90015  0
C  C80  1  0.27048000  0.38480298  0.44995325  1  0  0.138931  0  3.653682  0  0  0.105742  0  3.897592  0  0  0.114589  0  3.915609  0  0  0.054664  0.100109  0  3.88518  0
C  C81  1  0.88606882  0.61529158  0.05005407  1  0  0.139396  0  3.65525  0  0  0.106297  0  3.899437  0  0  0.115155  0  3.917412  0  0  0.055081  0.100695  0  3.886884  0
C  C82  1  0.72951245  0.61519460  0.55004556  1  0  0.138891  0  3.653558  0  0  0.10573  0  3.897481  0  0  0.114579  0  3.915494  0  0  0.054619  0.100094  0  3.885065  0
C  C83  1  0.11392727  0.38470692  0.94994542  1  0  0.139453  0  3.655311  0  0  0.10635  0  3.899467  0  0  0.115207  0  3.917447  0  0  0.055115  0.100736  0  3.886902  0
C  C84  1  0.70780983  0.92906075  0.24447382  1  0  0.544846  0  3.971664  0  0  0.502408  0  4.274811  0  0  0.531654  0  4.274084  0  0  0.202599  0.482188  0  4.280924  0
C  C85  1  0.77879222  0.07075553  0.25544598  1  0  0.544256  0  3.970736  0  0  0.502236  0  4.273392  0  0  0.531497  0  4.272668  0  0  0.202833  0.481977  0  4.279548  0
C  C86  1  0.29219549  0.07094775  0.75552106  1  0  0.54493  0  3.971573  0  0  0.50249  0  4.274678  0  0  0.531732  0  4.273941  0  0  0.202638  0.482267  0  4.280774  0
C  C87  1  0.22121128  0.92924931  0.74454800  1  0  0.544435  0  3.97068  0  0  0.502464  0  4.273272  0  0  0.531743  0  4.272517  0  0  0.202847  0.48221  0  4.279403  0
C  C88  1  0.54276324  0.74483942  0.79028462  1  0  0.118276  0  3.703192  0  0  0.089214  0  3.946237  0  0  0.095806  0  3.96463  0  0  0.044867  0.084848  0  3.933575  0
C  C89  1  0.79798111  0.25495159  0.70977646  1  0  0.118831  0  3.702266  0  0  0.089731  0  3.945297  0  0  0.096318  0  3.963697  0  0  0.045939  0.085368  0  3.932576  0
C  C90  1  0.45723647  0.25515998  0.20971314  1  0  0.11836  0  3.702958  0  0  0.089274  0  3.946028  0  0  0.095863  0  3.964421  0  0  0.044873  0.084916  0  3.933366  0
C  C91  1  0.20201366  0.74505062  0.29022874  1  0  0.11904  0  3.702265  0  0  0.089922  0  3.945308  0  0  0.096512  0  3.963702  0  0  0.046031  0.085571  0  3.932594  0
C  C92  1  0.64324282  0.87159796  0.68491032  1  0  -0.011457  0  3.685824  0  0  0.006906  0  3.915689  0  0  0.005338  0  3.933192  0  0  0.006517  0.008237  0  3.902678  0
C  C93  1  0.77160066  0.12813431  0.81511632  1  0  -0.009819  0  3.683502  0  0  0.007828  0  3.914425  0  0  0.006274  0  3.931912  0  0  0.006164  0.009094  0  3.901496  0
C  C94  1  0.35676296  0.12840510  0.31508834  1  0  -0.011493  0  3.685711  0  0  0.006918  0  3.915551  0  0  0.005343  0  3.933056  0  0  0.006505  0.008242  0  3.902555  0
C  C95  1  0.22839697  0.87186515  0.18488805  1  0  -0.00985  0  3.68342  0  0  0.007896  0  3.914232  0  0  0.006347  0  3.931721  0  0  0.006168  0.009156  0  3.901328  0
N  N96  1  0.19346524  0.43272699  0.50200852  1  0  -0.295301  0  3.367107  0  0  -0.202579  0  3.64628  0  0  -0.223366  0  3.662757  0  0  -0.346638  -0.188509  0  3.634375  0
N  N97  1  0.76108660  0.56737730  0.99801971  1  0  -0.295718  0  3.367986  0  0  -0.20315  0  3.647437  0  0  -0.223863  0  3.663842  0  0  -0.34662  -0.189104  0  3.635599  0
N  N98  1  0.80652858  0.56727333  0.49798991  1  0  -0.295303  0  3.36695  0  0  -0.202637  0  3.64617  0  0  -0.223421  0  3.66264  0  0  -0.346644  -0.188563  0  3.634264  0
N  N99  1  0.23890720  0.43261663  0.00197940  1  0  -0.295732  0  3.368067  0  0  -0.20315  0  3.647494  0  0  -0.223865  0  3.663905  0  0  -0.346648  -0.189101  0  3.635651  0
N  N100  1  0.68150477  0.74328668  0.80756536  1  0  -0.297103  0  3.37416  0  0  -0.208347  0  3.661114  0  0  -0.226499  0  3.676106  0  0  -0.348858  -0.195963  0  3.650388  0
N  N101  1  0.93831213  0.25656990  0.69250677  1  0  -0.298354  0  3.374138  0  0  -0.209436  0  3.661258  0  0  -0.227585  0  3.676204  0  0  -0.349357  -0.197035  0  3.650482  0
N  N102  1  0.31848902  0.25670724  0.19243196  1  0  -0.297052  0  3.373978  0  0  -0.208313  0  3.660972  0  0  -0.226465  0  3.675964  0  0  -0.348852  -0.195916  0  3.650232  0
N  N103  1  0.06168339  0.74343594  0.30749571  1  0  -0.298476  0  3.373968  0  0  -0.209547  0  3.661109  0  0  -0.227697  0  3.676053  0  0  -0.349368  -0.197161  0  3.650374  0
O  O104  1  0.84731612  0.88370963  0.44063717  1  0  -0.663688  0  2.065951  0  0  -0.618309  0  2.324465  0  0  -0.651948  0  2.31165  0  0  -0.371239  -0.601573  0  2.331373  0
O  O105  1  0.96376717  0.11618705  0.05952277  1  0  -0.663168  0  2.067106  0  0  -0.617854  0  2.325794  0  0  -0.651505  0  2.313054  0  0  -0.37116  -0.601292  0  2.332681  0
O  O106  1  0.15270220  0.11630159  0.55935492  1  0  -0.663491  0  2.06665  0  0  -0.618142  0  2.325104  0  0  -0.651778  0  2.312283  0  0  -0.371162  -0.601386  0  2.332015  0
O  O107  1  0.03622616  0.88379324  0.94048307  1  0  -0.663234  0  2.067061  0  0  -0.617952  0  2.325648  0  0  -0.651608  0  2.312898  0  0  -0.371141  -0.601374  0  2.332549  0
O  O108  1  0.66712835  0.87845662  0.30799653  1  0  -0.649097  0  2.036608  0  0  -0.606854  0  2.284526  0  0  -0.638738  0  2.271701  0  0  -0.371302  -0.59116  0  2.291172  0
O  O109  1  0.78872377  0.12139965  0.19195750  1  0  -0.649079  0  2.037351  0  0  -0.606939  0  2.285065  0  0  -0.63877  0  2.272254  0  0  -0.371616  -0.591231  0  2.291745  0
O  O110  1  0.33287443  0.12155103  0.69200490  1  0  -0.649108  0  2.036844  0  0  -0.606872  0  2.284742  0  0  -0.638744  0  2.271921  0  0  -0.371269  -0.591166  0  2.291373  0
O  O111  1  0.21127221  0.87860711  0.80804565  1  0  -0.64915  0  2.037057  0  0  -0.607022  0  2.284752  0  0  -0.638871  0  2.271929  0  0  -0.371601  -0.591309  0  2.291407  0
O  O112  1  0.72892318  0.98627643  0.57390123  1  0  -0.710171  0  2.041195  0  0  -0.660884  0  2.292873  0  0  -0.697627  0  2.28246  0  0  -0.367403  -0.642288  0  2.297576  0
O  O113  1  0.74271833  0.01350632  0.92610537  1  0  -0.710499  0  2.042603  0  0  -0.661094  0  2.294236  0  0  -0.697795  0  2.283912  0  0  -0.367685  -0.642484  0  2.298855  0
O  O114  1  0.27108124  0.01373027  0.42609591  1  0  -0.710087  0  2.041463  0  0  -0.660846  0  2.29328  0  0  -0.697582  0  2.282865  0  0  -0.367319  -0.642258  0  2.298  0
O  O115  1  0.25729212  0.98649127  0.07389405  1  0  -0.710372  0  2.042251  0  0  -0.660943  0  2.293862  0  0  -0.697647  0  2.283546  0  0  -0.36767  -0.642325  0  2.298488  0
O  O116  1  0.50858794  0.83469073  0.45501692  1  0  -0.728941  0  2.119085  0  0  -0.678688  0  2.384492  0  0  -0.717619  0  2.371278  0  0  -0.395331  -0.660889  0  2.391761  0
O  O117  1  0.67448335  0.16546290  0.04477785  1  0  -0.729768  0  2.118253  0  0  -0.679673  0  2.384181  0  0  -0.718527  0  2.370925  0  0  -0.395001  -0.661777  0  2.391385  0
O  O118  1  0.49142856  0.16531050  0.54498159  1  0  -0.728983  0  2.119207  0  0  -0.678771  0  2.384637  0  0  -0.717687  0  2.371427  0  0  -0.395461  -0.660968  0  2.391902  0
O  O119  1  0.32552833  0.83453925  0.95522133  1  0  -0.729779  0  2.118135  0  0  -0.679621  0  2.384015  0  0  -0.718482  0  2.370748  0  0  -0.394972  -0.661714  0  2.391216  0
O  O120  1  0.49644581  0.96090860  0.62260535  1  0  -0.748431  0  2.107125  0  0  -0.698965  0  2.370068  0  0  -0.738675  0  2.359047  0  0  -0.393832  -0.680296  0  2.375445  0
O  O121  1  0.53538231  0.03847219  0.87736200  1  0  -0.7479  0  2.108465  0  0  -0.698063  0  2.370776  0  0  -0.737738  0  2.359821  0  0  -0.392959  -0.679425  0  2.376119  0
O  O122  1  0.50356085  0.03908989  0.37739233  1  0  -0.748459  0  2.106897  0  0  -0.698984  0  2.369905  0  0  -0.73869  0  2.358847  0  0  -0.393808  -0.680299  0  2.375231  0
O  O123  1  0.46462504  0.96153191  0.12264876  1  0  -0.747915  0  2.108789  0  0  -0.698056  0  2.371077  0  0  -0.737711  0  2.360121  0  0  -0.392892  -0.679428  0  2.376443  0
O  O124  1  0.27428893  0.79872133  0.50515193  1  0  -0.715864  0  2.06275  0  0  -0.66538  0  2.328556  0  0  -0.701931  0  2.313093  0  0  -0.379284  -0.647707  0  2.336805  0
O  O125  1  0.47601245  0.20121857  0.99464485  1  0  -0.717384  0  2.062682  0  0  -0.66681  0  2.328735  0  0  -0.703402  0  2.313254  0  0  -0.380251  -0.649016  0  2.336865  0
O  O126  1  0.72572274  0.20128717  0.49484235  1  0  -0.715973  0  2.06258  0  0  -0.665506  0  2.328383  0  0  -0.702063  0  2.312916  0  0  -0.379348  -0.647834  0  2.336614  0
O  O127  1  0.52398110  0.79877274  0.00536668  1  0  -0.717432  0  2.062758  0  0  -0.666883  0  2.3289  0  0  -0.703464  0  2.313421  0  0  -0.380243  -0.649086  0  2.337025  0
O  O128  1  0.69605879  0.87560688  0.17283279  1  0  -0.665065  0  2.017182  0  0  -0.623239  0  2.260533  0  0  -0.65529  0  2.246173  0  0  -0.388656  -0.607937  0  2.267835  0
O  O129  1  0.82069342  0.12418707  0.32709087  1  0  -0.664396  0  2.016229  0  0  -0.622497  0  2.259256  0  0  -0.65461  0  2.244854  0  0  -0.388742  -0.607177  0  2.26654  0
O  O130  1  0.30395065  0.12440352  0.82716885  1  0  -0.665149  0  2.016838  0  0  -0.623327  0  2.260176  0  0  -0.655388  0  2.245814  0  0  -0.388698  -0.60803  0  2.267475  0
O  O131  1  0.17932462  0.87582148  0.67290822  1  0  -0.66455  0  2.016654  0  0  -0.622689  0  2.259677  0  0  -0.654798  0  2.245263  0  0  -0.388825  -0.607373  0  2.266958  0
O  O132  1  0.03202797  0.87159360  0.52044304  1  0  -0.655808  0  2.122494  0  0  -0.594645  0  2.384316  0  0  -0.629816  0  2.371761  0  0  -0.370453  -0.5766  0  2.391519  0
O  O133  1  0.16055442  0.12844285  0.97963126  1  0  -0.655723  0  2.120824  0  0  -0.594661  0  2.38296  0  0  -0.629801  0  2.370349  0  0  -0.37081  -0.576678  0  2.390272  0
O  O134  1  0.96798132  0.12841860  0.47955635  1  0  -0.655794  0  2.122396  0  0  -0.594641  0  2.384141  0  0  -0.62983  0  2.371573  0  0  -0.37042  -0.57659  0  2.391353  0
O  O135  1  0.83942981  0.87153828  0.02036683  1  0  -0.655691  0  2.12126  0  0  -0.594691  0  2.383322  0  0  -0.62983  0  2.370718  0  0  -0.370699  -0.576712  0  2.390658  0
