# generated using pymatgen
data_CdH10C14N4O3
_symmetry_space_group_name_H-M   'P 1'
_cell_length_a   7.53241601
_cell_length_b   15.13588167
_cell_length_c   25.33433416
_cell_angle_alpha   89.99990393
_cell_angle_beta   89.99994303
_cell_angle_gamma   90.00008504
_symmetry_Int_Tables_number   1
_chemical_formula_structural   CdH10C14N4O3
_chemical_formula_sum   'Cd8 H80 C112 N32 O24'
_cell_volume   2888.36129150
_cell_formula_units_Z   8
loop_
 _symmetry_equiv_pos_site_id
 _symmetry_equiv_pos_as_xyz
  1  'x, y, z'
loop_
 _atom_site_type_symbol
 _atom_site_label
 _atom_site_symmetry_multiplicity
 _atom_site_fract_x
 _atom_site_fract_y
 _atom_site_fract_z
 _atom_site_occupancy
 _atom_site_pbe_bader_charge
 _atom_site_pbe_bader_spin_density
 _atom_site_pbe_cm5_charge
 _atom_site_pbe_ddec_charge
 _atom_site_pbe_ddec_spin_density
 _atom_site_pbe_ddec_sum_bond_order
 _atom_site_pbe_magmom
Cd  Cd0  1  0.99078311  0.36019439  0.27462619  1  1.295089  0  0.807433  0.891225  0  2.202062  0
Cd  Cd1  1  0.50921741  0.63980590  0.77462585  1  1.295156  0  0.80746  0.891273  0  2.202019  0
Cd  Cd2  1  0.49078574  0.13980667  0.72537357  1  1.295155  0  0.80743  0.891199  0  2.202092  0
Cd  Cd3  1  0.00921442  0.86019470  0.22537356  1  1.295095  0  0.807453  0.891253  0  2.202016  0
Cd  Cd4  1  0.00921590  0.63980512  0.72537379  1  1.295118  0  0.807432  0.891222  0  2.202036  0
Cd  Cd5  1  0.49078293  0.36019362  0.22537413  1  1.29517  0  0.807445  0.891246  0  2.20203  0
Cd  Cd6  1  0.50921460  0.86019548  0.27462720  1  1.295255  0  0.807455  0.891264  0  2.201999  0
Cd  Cd7  1  0.99078725  0.13980547  0.77462681  1  1.295107  0  0.807459  0.891254  0  2.202045  0
H  H8  1  0.77327832  0.04053305  0.51201214  1  0.054747  0  0.097755  0.096534  0  1.042294  0
H  H9  1  0.72671911  0.95946600  0.01201197  1  0.054514  0  0.097751  0.096529  0  1.042293  0
H  H10  1  0.27328137  0.45946654  0.48798808  1  0.054497  0  0.097751  0.096533  0  1.042259  0
H  H11  1  0.22671790  0.54053344  0.98798974  1  0.054544  0  0.097747  0.096543  0  1.042251  0
H  H12  1  0.22671937  0.95946514  0.48798705  1  0.054627  0  0.097742  0.096507  0  1.042314  0
H  H13  1  0.27328256  0.04053418  0.98798841  1  0.054509  0  0.097751  0.096531  0  1.042282  0
H  H14  1  0.72672030  0.54053364  0.51201111  1  0.054522  0  0.097743  0.096511  0  1.042296  0
H  H15  1  0.77327845  0.45946607  0.01201181  1  0.054648  0  0.097748  0.09655  0  1.042283  0
H  H16  1  0.52268140  0.08843098  0.56922147  1  0.113951  0  0.101767  0.109572  0  1.017934  0
H  H17  1  0.97731583  0.91156791  0.06922127  1  0.113648  0  0.101766  0.109571  0  1.017931  0
H  H18  1  0.02268318  0.41156974  0.43077843  1  0.113951  0  0.10179  0.109596  0  1.017902  0
H  H19  1  0.47731097  0.58843106  0.93077879  1  0.113629  0  0.101771  0.109564  0  1.017905  0
H  H20  1  0.47732026  0.91156920  0.43077811  1  0.113958  0  0.1018  0.10961  0  1.017882  0
H  H21  1  0.02268584  0.08842962  0.93077831  1  0.113931  0  0.101785  0.109591  0  1.01791  0
H  H22  1  0.97731450  0.58843109  0.56922115  1  0.11396  0  0.101757  0.109545  0  1.017933  0
H  H23  1  0.52268140  0.41156846  0.06922159  1  0.113954  0  0.101802  0.109623  0  1.01787  0
H  H24  1  0.30359654  0.19766607  0.53485781  1  0.077218  0  0.096184  0.091661  0  1.055749  0
H  H25  1  0.19640293  0.80233386  0.03485780  1  0.07722  0  0.096183  0.09167  0  1.055739  0
H  H26  1  0.80359575  0.30233551  0.46514241  1  0.07723  0  0.096178  0.091672  0  1.055703  0
H  H27  1  0.69639882  0.69766490  0.96514234  1  0.077263  0  0.096169  0.091644  0  1.055743  0
H  H28  1  0.69640645  0.80233542  0.46514296  1  0.077297  0  0.096151  0.091625  0  1.055776  0
H  H29  1  0.80359874  0.19766433  0.96514218  1  0.077242  0  0.096186  0.091671  0  1.055716  0
H  H30  1  0.19640193  0.69766598  0.53485797  1  0.077229  0  0.096174  0.091664  0  1.055739  0
H  H31  1  0.30359488  0.30233329  0.03485803  1  0.077193  0  0.096167  0.09163  0  1.055751  0
H  H32  1  0.34467524  0.26370267  0.44604154  1  0.065663  0  0.101176  0.102708  0  1.019008  0
H  H33  1  0.15532285  0.73629743  0.94604145  1  0.065906  0  0.101177  0.10274  0  1.018958  0
H  H34  1  0.84467528  0.23629763  0.55395787  1  0.065679  0  0.101169  0.102719  0  1.018994  0
H  H35  1  0.65532332  0.76370262  0.05395831  1  0.065899  0  0.10117  0.102703  0  1.018974  0
H  H36  1  0.65532377  0.73629750  0.55395844  1  0.065668  0  0.101174  0.102713  0  1.019029  0
H  H37  1  0.84467617  0.26370076  0.05395814  1  0.065719  0  0.10119  0.102745  0  1.018944  0
H  H38  1  0.15532638  0.76370255  0.44604132  1  0.065659  0  0.101184  0.102744  0  1.018941  0
H  H39  1  0.34467303  0.23629755  0.94604206  1  0.06566  0  0.101167  0.102723  0  1.018994  0
H  H40  1  0.67048822  0.05495262  0.34876649  1  0.099181  0  0.101722  0.116469  0  1.018254  0
H  H41  1  0.82951073  0.94504812  0.84876535  1  0.099153  0  0.101739  0.116509  0  1.018224  0
H  H42  1  0.17049467  0.44504557  0.65123416  1  0.099187  0  0.10174  0.116458  0  1.018287  0
H  H43  1  0.32950707  0.55495470  0.15123673  1  0.099156  0  0.101744  0.116473  0  1.018276  0
H  H44  1  0.32950814  0.94504425  0.65123349  1  0.099229  0  0.101741  0.116474  0  1.018277  0
H  H45  1  0.17049227  0.05495205  0.15123384  1  0.099193  0  0.101727  0.116479  0  1.018267  0
H  H46  1  0.82950966  0.55495460  0.34876464  1  0.099178  0  0.10171  0.116483  0  1.018263  0
H  H47  1  0.67049062  0.44504614  0.84876562  1  0.099187  0  0.10172  0.116504  0  1.018239  0
H  H48  1  0.29352539  0.05037651  0.41310019  1  0.095878  0  0.103475  0.105226  0  1.026518  0
H  H49  1  0.20647547  0.94962500  0.91310105  1  0.095913  0  0.103503  0.105257  0  1.026466  0
H  H50  1  0.79352861  0.44962574  0.58689845  1  0.09607  0  0.103484  0.105229  0  1.026507  0
H  H51  1  0.70647254  0.55037574  0.08689908  1  0.096104  0  0.103498  0.10527  0  1.026475  0
H  H52  1  0.70647230  0.94962565  0.58690058  1  0.095872  0  0.103486  0.105241  0  1.026449  0
H  H53  1  0.79353018  0.05037781  0.08689971  1  0.096079  0  0.103481  0.105271  0  1.026449  0
H  H54  1  0.20647173  0.55037708  0.41309995  1  0.095974  0  0.103486  0.10524  0  1.02649  0
H  H55  1  0.29352780  0.44962377  0.91310050  1  0.095981  0  0.103495  0.105276  0  1.026467  0
H  H56  1  0.05568271  0.11565037  0.46927613  1  0.087676  0  0.098666  0.1018  0  1.021282  0
H  H57  1  0.44432194  0.88435230  0.96927660  1  0.087922  0  0.098654  0.10176  0  1.021285  0
H  H58  1  0.55568327  0.38435302  0.53072297  1  0.087853  0  0.098652  0.101797  0  1.021328  0
H  H59  1  0.94431807  0.61564796  0.03072426  1  0.087721  0  0.098677  0.101832  0  1.021261  0
H  H60  1  0.94431099  0.88435046  0.53072424  1  0.087653  0  0.098633  0.101795  0  1.0213  0
H  H61  1  0.55568504  0.11565051  0.03072417  1  0.087722  0  0.098655  0.101816  0  1.021287  0
H  H62  1  0.44431441  0.61564980  0.46927582  1  0.087679  0  0.098657  0.101822  0  1.021278  0
H  H63  1  0.05568493  0.38435023  0.96927611  1  0.087675  0  0.098661  0.101798  0  1.021266  0
H  H64  1  0.90643261  0.99486169  0.29246689  1  0.132267  0  0.095424  0.09318  0  1.067679  0
H  H65  1  0.59356520  0.00513855  0.79246676  1  0.132349  0  0.095407  0.09314  0  1.067765  0
H  H66  1  0.40643755  0.50513656  0.70753239  1  0.132442  0  0.095406  0.093174  0  1.067799  0
H  H67  1  0.09355868  0.49486223  0.20753430  1  0.132392  0  0.09542  0.093175  0  1.067694  0
H  H68  1  0.09356641  0.00513650  0.70753269  1  0.1324  0  0.095408  0.093135  0  1.067754  0
H  H69  1  0.40643514  0.99485898  0.20753282  1  0.132197  0  0.095425  0.093177  0  1.067708  0
H  H70  1  0.59356279  0.49486163  0.29246640  1  0.132404  0  0.095435  0.093212  0  1.06764  0
H  H71  1  0.90643635  0.50513861  0.79246686  1  0.13222  0  0.095417  0.093184  0  1.067674  0
H  H72  1  0.25718157  0.24705957  0.33224698  1  0.621642  0  0.278603  0.344579  0  1.013727  0
H  H73  1  0.24281956  0.75294019  0.83224684  1  0.62165  0  0.278617  0.344613  0  1.013681  0
H  H74  1  0.75718261  0.25293935  0.66775128  1  0.621636  0  0.278625  0.344572  0  1.013739  0
H  H75  1  0.74281828  0.74705926  0.16775329  1  0.621642  0  0.278615  0.344589  0  1.013713  0
H  H76  1  0.74281877  0.75294061  0.66775261  1  0.621632  0  0.278627  0.34459  0  1.01371  0
H  H77  1  0.75718078  0.24705998  0.16775274  1  0.621639  0  0.278611  0.344588  0  1.013713  0
H  H78  1  0.24281906  0.74705884  0.33224712  1  0.621643  0  0.278629  0.344603  0  1.013695  0
H  H79  1  0.25718206  0.25294091  0.83224748  1  0.621624  0  0.278619  0.344584  0  1.013717  0
H  H80  1  0.05443780  0.22952960  0.34958870  1  0.638027  0  0.296996  0.373399  0  0.956644  0
H  H81  1  0.44556194  0.77047077  0.84958928  1  0.638017  0  0.296982  0.373375  0  0.956689  0
H  H82  1  0.55443895  0.27046982  0.65040961  1  0.638006  0  0.297009  0.373413  0  0.956623  0
H  H83  1  0.94556199  0.72952883  0.15041119  1  0.638025  0  0.29699  0.373398  0  0.95665  0
H  H84  1  0.94556121  0.77047057  0.65041089  1  0.638025  0  0.296995  0.373386  0  0.956664  0
H  H85  1  0.55443707  0.22952940  0.15041110  1  0.638023  0  0.296997  0.373391  0  0.956657  0
H  H86  1  0.44556272  0.72952837  0.34958918  1  0.638015  0  0.296991  0.373377  0  0.956685  0
H  H87  1  0.05443835  0.27047134  0.84958919  1  0.638021  0  0.296979  0.373374  0  0.956684  0
C  C88  1  0.70160434  0.12368717  0.44679468  1  -0.008668  0  0.001685  0.037832  0  3.954827  0
C  C89  1  0.79839428  0.87631197  0.94679480  1  -0.008546  0  0.00173  0.037822  0  3.954844  0
C  C90  1  0.20160560  0.37631170  0.55320556  1  -0.008549  0  0.00172  0.037842  0  3.954763  0
C  C91  1  0.29839381  0.62368752  0.05320649  1  -0.008641  0  0.001727  0.037812  0  3.954849  0
C  C92  1  0.29839600  0.87631234  0.55320490  1  -0.008656  0  0.001701  0.037853  0  3.954822  0
C  C93  1  0.20160606  0.12368688  0.05320557  1  -0.008656  0  0.001741  0.037856  0  3.954762  0
C  C94  1  0.79839342  0.62368847  0.44679403  1  -0.008582  0  0.001781  0.037966  0  3.954706  0
C  C95  1  0.70160520  0.37631133  0.94679507  1  -0.00866  0  0.001751  0.037925  0  3.95485  0
C  C96  1  0.57996885  0.18798866  0.42829724  1  -0.014327  0  -0.004182  -0.027062  0  3.986997  0
C  C97  1  0.92003115  0.81200987  0.92829739  1  -0.014343  0  -0.004199  -0.027059  0  3.987006  0
C  C98  1  0.07996986  0.31201078  0.57170225  1  -0.014339  0  -0.004172  -0.027032  0  3.986958  0
C  C99  1  0.42003081  0.68798971  0.07170387  1  -0.014272  0  -0.004215  -0.027088  0  3.987003  0
C  C100  1  0.42003016  0.81201085  0.57170274  1  -0.014299  0  -0.004158  -0.027045  0  3.986972  0
C  C101  1  0.07996919  0.18798964  0.07170259  1  -0.014313  0  -0.004215  -0.027105  0  3.986953  0
C  C102  1  0.92003181  0.68799005  0.42829694  1  -0.014314  0  -0.004206  -0.027105  0  3.986956  0
C  C103  1  0.57996820  0.31200980  0.92829769  1  -0.014292  0  -0.004193  -0.027058  0  3.986914  0
C  C104  1  0.67916651  0.08973928  0.49780414  1  -0.007421  0  -0.087252  -0.125986  0  3.972975  0
C  C105  1  0.82083193  0.91025971  0.99780382  1  -0.007295  0  -0.087281  -0.126022  0  3.973034  0
C  C106  1  0.17916937  0.41026023  0.50219611  1  -0.00728  0  -0.087288  -0.125984  0  3.972957  0
C  C107  1  0.32083021  0.58974046  0.00219707  1  -0.007322  0  -0.087279  -0.126008  0  3.973  0
C  C108  1  0.32083383  0.91026089  0.50219584  1  -0.007315  0  -0.087267  -0.125969  0  3.972978  0
C  C109  1  0.17916841  0.08974046  0.00219616  1  -0.007212  0  -0.087285  -0.126016  0  3.973062  0
C  C110  1  0.82083097  0.58974060  0.49780308  1  -0.007272  0  -0.087289  -0.126049  0  3.973043  0
C  C111  1  0.67916615  0.41025972  0.99780409  1  -0.007313  0  -0.08726  -0.126025  0  3.972963  0
C  C112  1  0.53732622  0.11585065  0.52961433  1  -0.121869  0  -0.086894  -0.07052  0  3.984549  0
C  C113  1  0.96266982  0.88414967  0.02961456  1  -0.12133  0  -0.086886  -0.070474  0  3.984391  0
C  C114  1  0.03732911  0.38414942  0.47038556  1  -0.121871  0  -0.086917  -0.070575  0  3.984607  0
C  C115  1  0.46266757  0.61585061  0.97038629  1  -0.121296  0  -0.086858  -0.070415  0  3.984453  0
C  C116  1  0.46267412  0.88414952  0.47038525  1  -0.121882  0  -0.086917  -0.070564  0  3.984501  0
C  C117  1  0.03733052  0.11584984  0.97038542  1  -0.121858  0  -0.086875  -0.070494  0  3.984391  0
C  C118  1  0.96267123  0.61585075  0.52961402  1  -0.121833  0  -0.08688  -0.070426  0  3.98449  0
C  C119  1  0.53732613  0.38414891  0.02961448  1  -0.121862  0  -0.086923  -0.07058  0  3.98454  0
C  C120  1  0.41439633  0.17685798  0.51031758  1  0.004356  0  -0.0926  -0.082208  0  4.006686  0
C  C121  1  0.08560323  0.82314136  0.01031759  1  0.00416  0  -0.092603  -0.082227  0  4.006539  0
C  C122  1  0.91439817  0.32314303  0.48968220  1  0.004796  0  -0.092596  -0.0822  0  4.006722  0
C  C123  1  0.58560030  0.67685731  0.98968258  1  0.003681  0  -0.092606  -0.082261  0  4.00665  0
C  C124  1  0.58560401  0.82314285  0.48968279  1  0.004292  0  -0.092613  -0.082211  0  4.00675  0
C  C125  1  0.91439711  0.17685683  0.98968239  1  0.004808  0  -0.092624  -0.08222  0  4.006468  0
C  C126  1  0.08560217  0.67685846  0.51031738  1  0.004365  0  -0.09262  -0.082304  0  4.006779  0
C  C127  1  0.41439473  0.32314154  0.01031779  1  0.004793  0  -0.092626  -0.082217  0  4.006702  0
C  C128  1  0.43644650  0.21328739  0.46018599  1  -0.034613  0  -0.085841  -0.113072  0  3.976237  0
C  C129  1  0.06355155  0.78671267  0.96018627  1  -0.03488  0  -0.085862  -0.113144  0  3.976308  0
C  C130  1  0.93644674  0.28671298  0.53981339  1  -0.035074  0  -0.085854  -0.113123  0  3.976347  0
C  C131  1  0.56355192  0.71328731  0.03981430  1  -0.034356  0  -0.085827  -0.113026  0  3.976245  0
C  C132  1  0.56355384  0.78671279  0.53981399  1  -0.034647  0  -0.085836  -0.113072  0  3.976346  0
C  C133  1  0.93644747  0.21328486  0.03981410  1  -0.035087  0  -0.085876  -0.113152  0  3.976308  0
C  C134  1  0.06355360  0.71328785  0.46018619  1  -0.034638  0  -0.085832  -0.11306  0  3.976286  0
C  C135  1  0.43644444  0.28671220  0.96018646  1  -0.035102  0  -0.085829  -0.113072  0  3.976215  0
C  C136  1  0.61257475  0.23405940  0.37835314  1  0.91199  0  0.224003  0.24578  0  4.04456  0
C  C137  1  0.88742410  0.76593994  0.87835294  1  0.911902  0  0.224083  0.245867  0  4.044378  0
C  C138  1  0.11257545  0.26593941  0.62164674  1  0.911934  0  0.224003  0.245749  0  4.044517  0
C  C139  1  0.38742506  0.73405962  0.12164793  1  0.911655  0  0.224011  0.245714  0  4.044578  0
C  C140  1  0.38742426  0.76593945  0.62164684  1  0.911915  0  0.224023  0.245772  0  4.044478  0
C  C141  1  0.11257624  0.23406024  0.12164664  1  0.911903  0  0.224122  0.245991  0  4.044341  0
C  C142  1  0.88742622  0.73406011  0.37835285  1  0.911945  0  0.224024  0.245807  0  4.044533  0
C  C143  1  0.61257395  0.26593989  0.87835323  1  0.911928  0  0.223986  0.245724  0  4.04456  0
C  C144  1  0.80735265  0.05514821  0.36280078  1  -0.0062  0  -0.089806  -0.124839  0  3.938636  0
C  C145  1  0.69264890  0.94485051  0.86280126  1  -0.005864  0  -0.089824  -0.124901  0  3.938718  0
C  C146  1  0.30734985  0.44484942  0.63719824  1  -0.006179  0  -0.089827  -0.124765  0  3.938449  0
C  C147  1  0.19264662  0.55514825  0.13720006  1  -0.005874  0  -0.089799  -0.124759  0  3.938675  0
C  C148  1  0.19264902  0.94484998  0.63719762  1  -0.006231  0  -0.089799  -0.124783  0  3.938534  0
C  C149  1  0.30735276  0.05514834  0.13719832  1  -0.006195  0  -0.089811  -0.12484  0  3.938672  0
C  C150  1  0.69264518  0.55514745  0.36280055  1  -0.005987  0  -0.089785  -0.124893  0  3.938694  0
C  C151  1  0.80735505  0.44485325  0.86280149  1  -0.005694  0  -0.089785  -0.124881  0  3.93883  0
C  C152  1  0.15635694  0.05121290  0.39953443  1  0.016284  0  -0.084561  -0.086712  0  3.977396  0
C  C153  1  0.34364794  0.94878931  0.89953368  1  0.016295  0  -0.08466  -0.086835  0  3.97764  0
C  C154  1  0.65636277  0.44878858  0.60046583  1  0.016043  0  -0.084548  -0.086682  0  3.977357  0
C  C155  1  0.84364232  0.55121154  0.10046642  1  0.016089  0  -0.084571  -0.086754  0  3.977404  0
C  C156  1  0.84364075  0.94878794  0.60046673  1  0.016273  0  -0.084574  -0.086658  0  3.977366  0
C  C157  1  0.65636036  0.05121416  0.10046670  1  0.016337  0  -0.084561  -0.08675  0  3.977321  0
C  C158  1  0.34364155  0.55121225  0.39953415  1  0.016168  0  -0.084564  -0.086687  0  3.97733  0
C  C159  1  0.15635669  0.44878798  0.89953395  1  0.016186  0  -0.08461  -0.086837  0  3.9775  0
C  C160  1  0.02296680  0.08722656  0.43092503  1  -0.058045  0  -0.094215  -0.146663  0  3.979808  0
C  C161  1  0.47703532  0.91277358  0.93092585  1  -0.058271  0  -0.094151  -0.146477  0  3.97959  0
C  C162  1  0.52296599  0.41277284  0.56907408  1  -0.058205  0  -0.094203  -0.146659  0  3.979777  0
C  C163  1  0.97703256  0.58722605  0.06907539  1  -0.058063  0  -0.094215  -0.146693  0  3.979775  0
C  C164  1  0.97703088  0.91277229  0.56907455  1  -0.05803  0  -0.094213  -0.146695  0  3.979784  0
C  C165  1  0.52296901  0.08722858  0.06907491  1  -0.058367  0  -0.094231  -0.14675  0  3.979712  0
C  C166  1  0.47703169  0.58722734  0.43092511  1  -0.058037  0  -0.094248  -0.146782  0  3.979791  0
C  C167  1  0.02297043  0.41277346  0.93092499  1  -0.058063  0  -0.094176  -0.146572  0  3.979689  0
C  C168  1  0.11629944  0.01597946  0.34971550  1  -0.084495  0  -0.023656  -0.044476  0  3.984061  0
C  C169  1  0.38370030  0.98401959  0.84971667  1  -0.084504  0  -0.023631  -0.044578  0  3.984117  0
C  C170  1  0.61630122  0.48401935  0.65028319  1  -0.084556  0  -0.023629  -0.044472  0  3.984179  0
C  C171  1  0.88369706  0.51597997  0.15028420  1  -0.084521  0  -0.023634  -0.044414  0  3.983975  0
C  C172  1  0.88369957  0.98401939  0.65028408  1  -0.084538  0  -0.023599  -0.04452  0  3.984184  0
C  C173  1  0.61630137  0.01597992  0.15028370  1  -0.084504  0  -0.023635  -0.044398  0  3.983976  0
C  C174  1  0.38369779  0.51597818  0.34971640  1  -0.084508  0  -0.023609  -0.044418  0  3.983907  0
C  C175  1  0.11630195  0.48402219  0.84971657  1  -0.084466  0  -0.023623  -0.044399  0  3.983834  0
C  C176  1  0.84630957  0.08890568  0.41313404  1  -0.078965  0  -0.001058  0.080986  0  4.002748  0
C  C177  1  0.65369579  0.91109553  0.91313219  1  -0.07926  0  -0.001088  0.08096  0  4.002823  0
C  C178  1  0.34631215  0.41109461  0.58686616  1  -0.07898  0  -0.001073  0.080977  0  4.002888  0
C  C179  1  0.15369113  0.58890517  0.08686757  1  -0.079263  0  -0.001078  0.080992  0  4.002832  0
C  C180  1  0.15368811  0.91109383  0.58686555  1  -0.07895  0  -0.001081  0.080908  0  4.002836  0
C  C181  1  0.34631118  0.08890530  0.08686700  1  -0.078963  0  -0.001055  0.081047  0  4.002809  0
C  C182  1  0.65368952  0.58890622  0.41313263  1  -0.079068  0  -0.001062  0.081053  0  4.002751  0
C  C183  1  0.84630656  0.41109500  0.91313360  1  -0.079228  0  -0.001092  0.080935  0  4.002793  0
C  C184  1  0.94075341  0.01984544  0.33139242  1  -0.062321  0  -0.086009  -0.0744  0  3.960662  0
C  C185  1  0.55924958  0.98015469  0.83138974  1  -0.062505  0  -0.085961  -0.074284  0  3.960346  0
C  C186  1  0.44075990  0.48015625  0.66860854  1  -0.062398  0  -0.085991  -0.074448  0  3.96051  0
C  C187  1  0.05924443  0.51984463  0.16860925  1  -0.062452  0  -0.086071  -0.074534  0  3.960463  0
C  C188  1  0.05924561  0.98015540  0.66860835  1  -0.062411  0  -0.085989  -0.074318  0  3.960473  0
C  C189  1  0.44075342  0.01984350  0.16860905  1  -0.062234  0  -0.086027  -0.074466  0  3.960397  0
C  C190  1  0.55924575  0.51984326  0.33139143  1  -0.062517  0  -0.086058  -0.074482  0  3.960441  0
C  C191  1  0.94074927  0.48015621  0.83139191  1  -0.062476  0  -0.086042  -0.074471  0  3.960518  0
C  C192  1  0.25753847  0.97134973  0.31867847  1  1.510551  0  0.205478  0.583866  0  4.158673  0
C  C193  1  0.24246536  0.02864940  0.81867826  1  1.510547  0  0.205581  0.584102  0  4.158319  0
C  C194  1  0.75754012  0.52864973  0.68132126  1  1.510587  0  0.205389  0.583746  0  4.158387  0
C  C195  1  0.74245939  0.47134884  0.18132157  1  1.510575  0  0.205405  0.58375  0  4.158622  0
C  C196  1  0.74246320  0.02865044  0.68132230  1  1.510541  0  0.205481  0.583884  0  4.158451  0
C  C197  1  0.75753764  0.97134879  0.18132171  1  1.510567  0  0.205429  0.583743  0  4.158656  0
C  C198  1  0.24246022  0.47134912  0.31867832  1  1.510565  0  0.205403  0.583776  0  4.158627  0
C  C199  1  0.25753829  0.52865199  0.81867841  1  1.510563  0  0.205428  0.583767  0  4.158761  0
N  N200  1  0.75008594  0.30027768  0.31682591  1  -0.182693  0  -0.116948  -0.057453  0  3.507529  0
N  N201  1  0.74991311  0.69972249  0.81682622  1  -0.182664  0  -0.116966  -0.057505  0  3.507536  0
N  N202  1  0.25008624  0.19972255  0.68317353  1  -0.182686  0  -0.116962  -0.057486  0  3.507537  0
N  N203  1  0.24991406  0.80027829  0.18317430  1  -0.18272  0  -0.116953  -0.057482  0  3.507549  0
N  N204  1  0.24991440  0.69972183  0.68317407  1  -0.182712  0  -0.116955  -0.057509  0  3.507542  0
N  N205  1  0.25008590  0.30027768  0.18317416  1  -0.182704  0  -0.116958  -0.057454  0  3.507513  0
N  N206  1  0.74991410  0.80027763  0.31682605  1  -0.182703  0  -0.116933  -0.057437  0  3.507487  0
N  N207  1  0.75008761  0.19972320  0.81682647  1  -0.182687  0  -0.116919  -0.057406  0  3.507426  0
N  N208  1  0.77610402  0.25964438  0.36258675  1  -0.628737  0  -0.201828  -0.252664  0  3.233825  0
N  N209  1  0.72389488  0.74035566  0.86258663  1  -0.628703  0  -0.201857  -0.2527  0  3.233845  0
N  N210  1  0.27610459  0.24035587  0.63741268  1  -0.628721  0  -0.201848  -0.252694  0  3.233893  0
N  N211  1  0.22389586  0.75964444  0.13741390  1  -0.628478  0  -0.201819  -0.252633  0  3.233906  0
N  N212  1  0.22389500  0.74035513  0.63741323  1  -0.628696  0  -0.201827  -0.252615  0  3.233779  0
N  N213  1  0.27610546  0.25964517  0.13741335  1  -0.628693  0  -0.201846  -0.252723  0  3.233824  0
N  N214  1  0.72389575  0.75964497  0.36258690  1  -0.628731  0  -0.201844  -0.252707  0  3.233872  0
N  N215  1  0.77610448  0.24035640  0.86258727  1  -0.628707  0  -0.201875  -0.252753  0  3.23389  0
N  N216  1  0.48866639  0.25939258  0.34284560  1  -0.653954  0  -0.192516  -0.228587  0  3.232948  0
N  N217  1  0.01133204  0.74060781  0.84284515  1  -0.653921  0  -0.1926  -0.228709  0  3.232881  0
N  N218  1  0.98866876  0.24060848  0.65715456  1  -0.653945  0  -0.192588  -0.228666  0  3.233045  0
N  N219  1  0.51133349  0.75939280  0.15715584  1  -0.653863  0  -0.192556  -0.228599  0  3.233119  0
N  N220  1  0.51133262  0.74060759  0.65715478  1  -0.653923  0  -0.192561  -0.228654  0  3.232908  0
N  N221  1  0.98866697  0.25939303  0.15715444  1  -0.653894  0  -0.192564  -0.228692  0  3.232903  0
N  N222  1  0.01133291  0.75939235  0.34284463  1  -0.653922  0  -0.192569  -0.228675  0  3.23302  0
N  N223  1  0.48866685  0.24060738  0.84284533  1  -0.653955  0  -0.192533  -0.228611  0  3.232977  0
N  N224  1  0.57927357  0.30017655  0.30473878  1  -0.197993  0  -0.113015  -0.059805  0  3.486319  0
N  N225  1  0.92072552  0.69982299  0.80473904  1  -0.19801  0  -0.112963  -0.059682  0  3.48625  0
N  N226  1  0.07927515  0.19982421  0.69526111  1  -0.197966  0  -0.112909  -0.059622  0  3.486275  0
N  N227  1  0.42072643  0.80017725  0.19526182  1  -0.198177  0  -0.112974  -0.059749  0  3.486444  0
N  N228  1  0.42072544  0.69982296  0.69526120  1  -0.197988  0  -0.11299  -0.059734  0  3.486336  0
N  N229  1  0.07927349  0.30017718  0.19526133  1  -0.198003  0  -0.113028  -0.0598  0  3.486287  0
N  N230  1  0.92072651  0.80017662  0.30473848  1  -0.198002  0  -0.11299  -0.059733  0  3.486291  0
N  N231  1  0.57927523  0.19982424  0.80473855  1  -0.197958  0  -0.112958  -0.059684  0  3.486206  0
O  O232  1  0.13160302  0.24261117  0.31945882  1  -1.249426  0  -0.592281  -0.756012  0  2.130297  0
O  O233  1  0.36839815  0.75738929  0.81945904  1  -1.249421  0  -0.592268  -0.755995  0  2.130283  0
O  O234  1  0.63160535  0.25738699  0.68053947  1  -1.249383  0  -0.592307  -0.756021  0  2.130325  0
O  O235  1  0.86839681  0.74261092  0.18054105  1  -1.249423  0  -0.592283  -0.756021  0  2.130301  0
O  O236  1  0.86839599  0.75738768  0.68054077  1  -1.249434  0  -0.59229  -0.755988  0  2.130321  0
O  O237  1  0.63160352  0.24261155  0.18054094  1  -1.249436  0  -0.592287  -0.756004  0  2.130309  0
O  O238  1  0.36839764  0.74261186  0.31945932  1  -1.249413  0  -0.592292  -0.755991  0  2.130269  0
O  O239  1  0.13160353  0.25738793  0.81945932  1  -1.249412  0  -0.592276  -0.755968  0  2.130319  0
O  O240  1  0.22264000  0.93833420  0.27271478  1  -1.182958  0  -0.341934  -0.592368  0  2.354434  0
O  O241  1  0.27736266  0.06166638  0.77271572  1  -1.182912  0  -0.342055  -0.592522  0  2.354406  0
O  O242  1  0.72264026  0.56166656  0.72728496  1  -1.18293  0  -0.341934  -0.592353  0  2.354315  0
O  O243  1  0.77735776  0.43833320  0.22728490  1  -1.182963  0  -0.341915  -0.592345  0  2.354446  0
O  O244  1  0.77736300  0.06166729  0.72728520  1  -1.18295  0  -0.341979  -0.59241  0  2.354363  0
O  O245  1  0.72263901  0.93833445  0.22728466  1  -1.182941  0  -0.341919  -0.592323  0  2.35444  0
O  O246  1  0.27735875  0.43833428  0.27271502  1  -1.182962  0  -0.341914  -0.592344  0  2.354437  0
O  O247  1  0.22264125  0.56166631  0.77271508  1  -1.182974  0  -0.341922  -0.592352  0  2.354467  0
O  O248  1  0.41252322  0.96292806  0.33807623  1  -1.151894  0  -0.315783  -0.532025  0  2.192443  0
O  O249  1  0.08747523  0.03706904  0.83807646  1  -1.15185  0  -0.315755  -0.532048  0  2.192284  0
O  O250  1  0.91252762  0.53707086  0.66192384  1  -1.151919  0  -0.31571  -0.531925  0  2.192342  0
O  O251  1  0.58747195  0.46292776  0.16192381  1  -1.151993  0  -0.315736  -0.531932  0  2.192367  0
O  O252  1  0.58747579  0.03707014  0.66192493  1  -1.151905  0  -0.31577  -0.53199  0  2.192372  0
O  O253  1  0.91252644  0.96292717  0.16192351  1  -1.151901  0  -0.315746  -0.531942  0  2.192392  0
O  O254  1  0.08747272  0.46292799  0.33807614  1  -1.151913  0  -0.31573  -0.531953  0  2.192345  0
O  O255  1  0.41252573  0.53707307  0.83807617  1  -1.151957  0  -0.315746  -0.531942  0  2.192411  0
