# generated using pymatgen
data_InH11C9I2
_symmetry_space_group_name_H-M   'P 1'
_cell_length_a   7.62790347
_cell_length_b   8.12799595
_cell_length_c   19.53628385
_cell_angle_alpha   90.00028603
_cell_angle_beta   90.00043218
_cell_angle_gamma   90.67057054
_symmetry_Int_Tables_number   1
_chemical_formula_structural   InH11C9I2
_chemical_formula_sum   'In4 H44 C36 I8'
_cell_volume   1211.15821401
_cell_formula_units_Z   4
loop_
 _symmetry_equiv_pos_site_id
 _symmetry_equiv_pos_as_xyz
  1  'x, y, z'
loop_
 _atom_site_type_symbol
 _atom_site_label
 _atom_site_symmetry_multiplicity
 _atom_site_fract_x
 _atom_site_fract_y
 _atom_site_fract_z
 _atom_site_occupancy
 _atom_site_hle17_bader_spin_density
 _atom_site_hle17_ddec_charge
 _atom_site_hle17_ddec_spin_density
 _atom_site_hle17_ddec_sum_bond_order
 _atom_site_hle17_magmom
 _atom_site_hse06_10hf_bader_spin_density
 _atom_site_hse06_10hf_ddec_charge
 _atom_site_hse06_10hf_ddec_spin_density
 _atom_site_hse06_10hf_ddec_sum_bond_order
 _atom_site_hse06_10hf_magmom
 _atom_site_hse06_bader_spin_density
 _atom_site_hse06_ddec_charge
 _atom_site_hse06_ddec_spin_density
 _atom_site_hse06_ddec_sum_bond_order
 _atom_site_hse06_magmom
 _atom_site_pbe_bader_spin_density
 _atom_site_pbe_cm5_charge
 _atom_site_pbe_ddec_charge
 _atom_site_pbe_ddec_spin_density
 _atom_site_pbe_ddec_sum_bond_order
 _atom_site_pbe_magmom
In  In0  1  0.25594133  0.44434643  0.45707902  1  0  0.870391  0  2.477739  0  0  0.71797  0  2.941796  0  0  0.768007  0  2.918402  0  0  0.277891  0.684681  0  2.955662  0
In  In1  1  0.24411397  0.55559185  0.95706058  1  0  0.87021  0  2.477675  0  0  0.717755  0  2.941778  0  0  0.767852  0  2.918299  0  0  0.277843  0.684477  0  2.955629  0
In  In2  1  0.74403202  0.55564469  0.54291247  1  0  0.870279  0  2.477724  0  0  0.717869  0  2.941766  0  0  0.767961  0  2.918283  0  0  0.277824  0.684567  0  2.95565  0
In  In3  1  0.75584277  0.44442030  0.04293603  1  0  0.870416  0  2.477496  0  0  0.717993  0  2.941534  0  0  0.768085  0  2.918093  0  0  0.277895  0.684755  0  2.955305  0
H  H4  1  0.07819067  0.94021946  0.30671590  1  0  0.088926  0  0.954092  0  0  0.103567  0  1.012265  0  0  0.105898  0  1.011896  0  0  0.092819  0.101882  0  1.012635  0
H  H5  1  0.42182141  0.05979211  0.80670786  1  0  0.08898  0  0.95418  0  0  0.103639  0  1.012327  0  0  0.105973  0  1.011956  0  0  0.092852  0.101921  0  1.012738  0
H  H6  1  0.92180055  0.05974816  0.69328327  1  0  0.088775  0  0.954223  0  0  0.103477  0  1.012333  0  0  0.105804  0  1.011975  0  0  0.092834  0.101793  0  1.012701  0
H  H7  1  0.57817516  0.94024438  0.19329182  1  0  0.088757  0  0.954215  0  0  0.103481  0  1.012317  0  0  0.105809  0  1.011959  0  0  0.092837  0.101798  0  1.012685  0
H  H8  1  0.32576479  0.33040885  0.19224258  1  0  0.089473  0  0.974535  0  0  0.100936  0  1.041189  0  0  0.103298  0  1.040974  0  0  0.086871  0.099201  0  1.041535  0
H  H9  1  0.17418864  0.66959415  0.69224000  1  0  0.089405  0  0.974354  0  0  0.100813  0  1.041124  0  0  0.103187  0  1.040893  0  0  0.086727  0.099033  0  1.041509  0
H  H10  1  0.67422941  0.66957597  0.80775762  1  0  0.089443  0  0.974538  0  0  0.100895  0  1.041214  0  0  0.103258  0  1.041  0  0  0.086818  0.099144  0  1.041573  0
H  H11  1  0.82576440  0.33042910  0.30776941  1  0  0.089413  0  0.974398  0  0  0.100864  0  1.041098  0  0  0.103231  0  1.040876  0  0  0.086753  0.099089  0  1.041481  0
H  H12  1  0.97924660  0.15721165  0.44999920  1  0  0.091383  0  0.97964  0  0  0.109736  0  1.05094  0  0  0.110447  0  1.051756  0  0  0.076646  0.109174  0  1.05041  0
H  H13  1  0.52076131  0.84277807  0.94999493  1  0  0.091387  0  0.979555  0  0  0.109711  0  1.05089  0  0  0.110421  0  1.051706  0  0  0.076661  0.109155  0  1.050354  0
H  H14  1  0.02073565  0.84276587  0.55000202  1  0  0.091461  0  0.979547  0  0  0.109767  0  1.050884  0  0  0.110478  0  1.051701  0  0  0.076678  0.109209  0  1.050351  0
H  H15  1  0.47926337  0.15722253  0.05000169  1  0  0.091449  0  0.979645  0  0  0.109779  0  1.050964  0  0  0.110491  0  1.05178  0  0  0.076695  0.10922  0  1.050429  0
H  H16  1  0.18888984  0.08140163  0.47195911  1  0  0.092272  0  0.977194  0  0  0.112282  0  1.044126  0  0  0.113189  0  1.04441  0  0  0.072286  0.111505  0  1.044088  0
H  H17  1  0.31112230  0.91859254  0.97195740  1  0  0.09229  0  0.977201  0  0  0.112287  0  1.044141  0  0  0.113193  0  1.044428  0  0  0.072316  0.11151  0  1.044102  0
H  H18  1  0.81109781  0.91858324  0.52803904  1  0  0.0922  0  0.977245  0  0  0.112219  0  1.044158  0  0  0.113127  0  1.044441  0  0  0.07224  0.111443  0  1.04412  0
H  H19  1  0.68890613  0.08139942  0.02803922  1  0  0.092196  0  0.977213  0  0  0.112218  0  1.044124  0  0  0.11313  0  1.044404  0  0  0.07223  0.111434  0  1.044094  0
H  H20  1  0.04020087  0.95647026  0.42485194  1  0  0.107533  0  0.98267  0  0  0.125655  0  1.049652  0  0  0.127781  0  1.048744  0  0  0.076065  0.124093  0  1.050313  0
H  H21  1  0.45982375  0.04353547  0.92486497  1  0  0.107457  0  0.982826  0  0  0.125607  0  1.049785  0  0  0.127732  0  1.048878  0  0  0.076077  0.124045  0  1.050445  0
H  H22  1  0.95977364  0.04351347  0.57515030  1  0  0.107377  0  0.982686  0  0  0.125483  0  1.0497  0  0  0.12761  0  1.048791  0  0  0.076001  0.123923  0  1.05036  0
H  H23  1  0.54021676  0.95646994  0.07514290  1  0  0.107406  0  0.982678  0  0  0.125508  0  1.049689  0  0  0.127635  0  1.048781  0  0  0.076034  0.123951  0  1.050345  0
H  H24  1  0.20790058  0.10088385  0.13150751  1  0  0.103329  0  0.967028  0  0  0.122488  0  1.033238  0  0  0.12415  0  1.032652  0  0  0.078084  0.121216  0  1.033756  0
H  H25  1  0.29210946  0.89912161  0.63150570  1  0  0.103304  0  0.967071  0  0  0.122478  0  1.033269  0  0  0.124141  0  1.032682  0  0  0.078065  0.121209  0  1.033791  0
H  H26  1  0.79210290  0.89910583  0.86848962  1  0  0.103236  0  0.967101  0  0  0.122369  0  1.033364  0  0  0.124029  0  1.032781  0  0  0.078042  0.1211  0  1.033883  0
H  H27  1  0.70791027  0.10089380  0.36849500  1  0  0.103251  0  0.966948  0  0  0.122405  0  1.033196  0  0  0.124067  0  1.032613  0  0  0.078041  0.121138  0  1.03372  0
H  H28  1  0.02680375  0.99924550  0.17074529  1  0  0.108127  0  0.955643  0  0  0.127588  0  1.020433  0  0  0.128577  0  1.021475  0  0  0.085205  0.126872  0  1.019689  0
H  H29  1  0.47320171  0.00075684  0.67074958  1  0  0.108068  0  0.95567  0  0  0.127524  0  1.020488  0  0  0.128512  0  1.021532  0  0  0.085192  0.126807  0  1.019748  0
H  H30  1  0.97319841  0.00074418  0.82925081  1  0  0.108062  0  0.955615  0  0  0.127537  0  1.020412  0  0  0.128524  0  1.021456  0  0  0.085212  0.12682  0  1.019676  0
H  H31  1  0.52681395  0.99925121  0.32925880  1  0  0.108043  0  0.955688  0  0  0.127563  0  1.020423  0  0  0.12855  0  1.021478  0  0  0.085224  0.126849  0  1.019679  0
H  H32  1  0.23864564  0.91350984  0.17636431  1  0  0.096677  0  0.965316  0  0  0.114608  0  1.035318  0  0  0.116028  0  1.034593  0  0  0.076265  0.113578  0  1.035796  0
H  H33  1  0.26136413  0.08650609  0.67635685  1  0  0.096657  0  0.965246  0  0  0.114583  0  1.035267  0  0  0.116005  0  1.034541  0  0  0.076258  0.113554  0  1.035747  0
H  H34  1  0.76135784  0.08647984  0.82363537  1  0  0.096476  0  0.965397  0  0  0.114482  0  1.035349  0  0  0.115901  0  1.034624  0  0  0.076232  0.113453  0  1.035826  0
H  H35  1  0.73865583  0.91352039  0.32363976  1  0  0.096603  0  0.965315  0  0  0.114577  0  1.035297  0  0  0.116001  0  1.034569  0  0  0.076288  0.113545  0  1.035778  0
H  H36  1  0.42611421  0.59238058  0.34504276  1  0  0.079451  0  1.014414  0  0  0.098176  0  1.086836  0  0  0.098874  0  1.08712  0  0  0.069622  0.097633  0  1.086549  0
H  H37  1  0.07388420  0.40763285  0.84504042  1  0  0.079385  0  1.014483  0  0  0.098137  0  1.086878  0  0  0.098829  0  1.087169  0  0  0.069587  0.097596  0  1.086587  0
H  H38  1  0.57385635  0.40760195  0.65495846  1  0  0.079521  0  1.014419  0  0  0.098245  0  1.086804  0  0  0.098937  0  1.087092  0  0  0.069599  0.097704  0  1.086514  0
H  H39  1  0.92610761  0.59236307  0.15496080  1  0  0.079392  0  1.014403  0  0  0.098139  0  1.086805  0  0  0.09883  0  1.087095  0  0  0.069595  0.0976  0  1.086516  0
H  H40  1  0.30747699  0.62791118  0.26847789  1  0  0.104952  0  0.94322  0  0  0.12782  0  1.002585  0  0  0.129436  0  1.001736  0  0  0.085908  0.126637  0  1.003209  0
H  H41  1  0.19251865  0.37209997  0.76847483  1  0  0.104898  0  0.943316  0  0  0.127786  0  1.002651  0  0  0.129399  0  1.001805  0  0  0.085895  0.126607  0  1.003273  0
H  H42  1  0.69249342  0.37206396  0.73152384  1  0  0.10498  0  0.943279  0  0  0.127843  0  1.002624  0  0  0.129455  0  1.001779  0  0  0.085842  0.126662  0  1.003249  0
H  H43  1  0.80748942  0.62792167  0.23152844  1  0  0.105005  0  0.943321  0  0  0.127854  0  1.002692  0  0  0.129466  0  1.001847  0  0  0.085905  0.12667  0  1.003319  0
H  H44  1  0.51383622  0.53013877  0.26524670  1  0  0.112204  0  0.959564  0  0  0.134209  0  1.020096  0  0  0.135462  0  1.020588  0  0  0.088142  0.133272  0  1.019816  0
H  H45  1  0.98616511  0.46988781  0.76524420  1  0  0.112265  0  0.959438  0  0  0.13425  0  1.019994  0  0  0.135501  0  1.020488  0  0  0.088151  0.133312  0  1.019715  0
H  H46  1  0.48613966  0.46984741  0.73475247  1  0  0.112358  0  0.959419  0  0  0.134256  0  1.020052  0  0  0.135505  0  1.020549  0  0  0.08818  0.133324  0  1.019767  0
H  H47  1  0.01384585  0.53014735  0.23475600  1  0  0.112175  0  0.95955  0  0  0.134176  0  1.020085  0  0  0.135428  0  1.020577  0  0  0.088136  0.133239  0  1.019808  0
C  C48  1  0.24302752  0.30673659  0.36262028  1  0  -0.401909  0  3.650634  0  0  -0.360151  0  3.903341  0  0  -0.382541  0  3.942321  0  0  -0.120063  -0.345443  0  3.877119  0
C  C49  1  0.25698341  0.69329668  0.86261902  1  0  -0.401657  0  3.650296  0  0  -0.359863  0  3.903001  0  0  -0.382262  0  3.941999  0  0  -0.119939  -0.345159  0  3.876773  0
C  C50  1  0.75696242  0.69323226  0.63737889  1  0  -0.401565  0  3.650486  0  0  -0.359868  0  3.90312  0  0  -0.382263  0  3.942115  0  0  -0.119935  -0.345159  0  3.876884  0
C  C51  1  0.74303022  0.30674092  0.13738783  1  0  -0.401832  0  3.650396  0  0  -0.360052  0  3.903075  0  0  -0.382452  0  3.942074  0  0  -0.119987  -0.345353  0  3.876862  0
C  C52  1  0.16116240  0.15057926  0.36538717  1  0  0.169392  0  3.8269  0  0  0.190479  0  4.061  0  0  0.194825  0  4.088544  0  0  -0.020749  0.187583  0  4.042293  0
C  C53  1  0.33884196  0.84945040  0.86538542  1  0  0.169443  0  3.826684  0  0  0.190471  0  4.060896  0  0  0.194818  0  4.088446  0  0  -0.020792  0.187576  0  4.042181  0
C  C54  1  0.83881585  0.84939459  0.63461251  1  0  0.169122  0  3.827135  0  0  0.190376  0  4.061025  0  0  0.194718  0  4.088578  0  0  -0.020764  0.187483  0  4.042311  0
C  C55  1  0.66117798  0.15057485  0.13461580  1  0  0.169405  0  3.827121  0  0  0.190481  0  4.061238  0  0  0.194829  0  4.088785  0  0  -0.020792  0.187583  0  4.042531  0
C  C56  1  0.14239270  0.06107346  0.30473581  1  0  -0.186147  0  3.685628  0  0  -0.210742  0  3.923079  0  0  -0.216538  0  3.944106  0  0  -0.098487  -0.206837  0  3.90878  0
C  C57  1  0.35761433  0.93894919  0.80472967  1  0  -0.18629  0  3.685376  0  0  -0.210977  0  3.922875  0  0  -0.216767  0  3.943879  0  0  -0.098562  -0.207041  0  3.908578  0
C  C58  1  0.85758940  0.93889668  0.69526080  1  0  -0.185825  0  3.686081  0  0  -0.210558  0  3.923452  0  0  -0.216361  0  3.944497  0  0  -0.098495  -0.206647  0  3.909135  0
C  C59  1  0.64241118  0.06109201  0.19526489  1  0  -0.185902  0  3.685904  0  0  -0.21063  0  3.923347  0  0  -0.216425  0  3.944366  0  0  -0.098489  -0.206724  0  3.909037  0
C  C60  1  0.19797056  0.12502400  0.24160624  1  0  0.165651  0  3.773218  0  0  0.194172  0  4.006877  0  0  0.197405  0  4.030394  0  0  -0.006466  0.192084  0  3.990697  0
C  C61  1  0.30202294  0.87497080  0.74160084  1  0  0.165605  0  3.773235  0  0  0.194271  0  4.00673  0  0  0.197503  0  4.030251  0  0  -0.006427  0.19219  0  3.990528  0
C  C62  1  0.80200927  0.87496338  0.75839139  1  0  0.165396  0  3.773453  0  0  0.194074  0  4.006946  0  0  0.197306  0  4.030464  0  0  -0.006542  0.191988  0  3.99076  0
C  C63  1  0.69798997  0.12503112  0.25839731  1  0  0.165458  0  3.773557  0  0  0.194162  0  4.007018  0  0  0.197395  0  4.030539  0  0  -0.006482  0.192079  0  3.99082  0
C  C64  1  0.27920474  0.27969068  0.24082693  1  0  -0.179506  0  3.666913  0  0  -0.205139  0  3.905839  0  0  -0.211232  0  3.927422  0  0  -0.096792  -0.201055  0  3.891192  0
C  C65  1  0.22078004  0.72032755  0.74082458  1  0  -0.179353  0  3.666791  0  0  -0.204971  0  3.905637  0  0  -0.21107  0  3.927215  0  0  -0.096681  -0.200851  0  3.891013  0
C  C66  1  0.72078671  0.72028801  0.75917122  1  0  -0.179434  0  3.667064  0  0  -0.205093  0  3.905903  0  0  -0.211187  0  3.927484  0  0  -0.096696  -0.200999  0  3.891267  0
C  C67  1  0.77921620  0.27969294  0.25917817  1  0  -0.17951  0  3.667182  0  0  -0.205173  0  3.906042  0  0  -0.211267  0  3.927624  0  0  -0.096722  -0.201058  0  3.891418  0
C  C68  1  0.30411212  0.37307989  0.30072432  1  0  0.17466  0  3.806786  0  0  0.196439  0  4.04094  0  0  0.201188  0  4.068322  0  0  -0.016044  0.193295  0  4.022362  0
C  C69  1  0.19588939  0.62693290  0.80072531  1  0  0.1746  0  3.806496  0  0  0.196372  0  4.040668  0  0  0.201116  0  4.068069  0  0  -0.01595  0.193237  0  4.022061  0
C  C70  1  0.69587664  0.62689512  0.69927434  1  0  0.174498  0  3.806974  0  0  0.19629  0  4.041081  0  0  0.20104  0  4.068463  0  0  -0.016105  0.193148  0  4.022494  0
C  C71  1  0.80411728  0.37308506  0.19928615  1  0  0.174687  0  3.806753  0  0  0.196438  0  4.040935  0  0  0.201185  0  4.068325  0  0  -0.016002  0.193296  0  4.022351  0
C  C72  1  0.08920314  0.08283474  0.43121067  1  0  -0.349959  0  3.754838  0  0  -0.42166  0  3.978468  0  0  -0.425243  0  3.989498  0  0  -0.254489  -0.418829  0  3.970865  0
C  C73  1  0.41081386  0.91717729  0.93121029  1  0  -0.349914  0  3.754787  0  0  -0.421566  0  3.978397  0  0  -0.42515  0  3.989429  0  0  -0.254561  -0.41874  0  3.970784  0
C  C74  1  0.91078194  0.91715261  0.56878696  1  0  -0.349743  0  3.754459  0  0  -0.421465  0  3.978134  0  0  -0.425052  0  3.989167  0  0  -0.254455  -0.418641  0  3.970523  0
C  C75  1  0.58921760  0.08283434  0.06878888  1  0  -0.349814  0  3.754658  0  0  -0.421507  0  3.978366  0  0  -0.425097  0  3.989396  0  0  -0.25445  -0.418679  0  3.970762  0
C  C76  1  0.16678833  0.03014694  0.17666336  1  0  -0.335765  0  3.730604  0  0  -0.413746  0  3.963509  0  0  -0.416308  0  3.972662  0  0  -0.246498  -0.411686  0  3.957072  0
C  C77  1  0.33321479  0.96986411  0.67665822  1  0  -0.335721  0  3.730335  0  0  -0.413756  0  3.963212  0  0  -0.416321  0  3.972365  0  0  -0.246536  -0.411703  0  3.956782  0
C  C78  1  0.83320857  0.96984155  0.82333428  1  0  -0.335293  0  3.73044  0  0  -0.413394  0  3.963331  0  0  -0.415953  0  3.972488  0  0  -0.246397  -0.411336  0  3.956892  0
C  C79  1  0.66679720  0.03015750  0.32334044  1  0  -0.335488  0  3.730382  0  0  -0.413624  0  3.963212  0  0  -0.416195  0  3.972364  0  0  -0.246536  -0.411569  0  3.956783  0
C  C80  1  0.39209666  0.53927468  0.29500858  1  0  -0.33535  0  3.731704  0  0  -0.413419  0  3.962518  0  0  -0.415878  0  3.971509  0  0  -0.245141  -0.411449  0  3.956258  0
C  C81  1  0.10791009  0.46074291  0.79500848  1  0  -0.335292  0  3.731842  0  0  -0.413376  0  3.962647  0  0  -0.41583  0  3.971652  0  0  -0.245098  -0.411408  0  3.956379  0
C  C82  1  0.60788300  0.46070409  0.70499264  1  0  -0.335592  0  3.731868  0  0  -0.413586  0  3.962677  0  0  -0.416038  0  3.971678  0  0  -0.245076  -0.411608  0  3.956386  0
C  C83  1  0.89209399  0.53927630  0.20499683  1  0  -0.335272  0  3.731886  0  0  -0.413326  0  3.962676  0  0  -0.41578  0  3.971686  0  0  -0.245075  -0.411354  0  3.956391  0
I  I84  1  0.10151609  0.38883915  0.58617340  1  0  -0.344857  0  1.23496  0  0  -0.289029  0  1.552321  0  0  -0.307135  0  1.535806  0  0  -0.032522  -0.276817  0  1.562837  0
I  I85  1  0.39850176  0.61113978  0.08617467  1  0  -0.344679  0  1.2353  0  0  -0.288851  0  1.552759  0  0  -0.306964  0  1.536233  0  0  -0.032347  -0.276639  0  1.563253  0
I  I86  1  0.89850014  0.61113321  0.41382270  1  0  -0.344823  0  1.235118  0  0  -0.289014  0  1.552532  0  0  -0.307122  0  1.536012  0  0  -0.032428  -0.276766  0  1.562986  0
I  I87  1  0.60155740  0.38888027  0.91382655  1  0  -0.344688  0  1.235357  0  0  -0.288814  0  1.552734  0  0  -0.30693  0  1.536211  0  0  -0.032348  -0.276624  0  1.563254  0
I  I88  1  0.41728206  0.74891836  0.48603797  1  0  -0.320907  0  1.23074  0  0  -0.262197  0  1.545197  0  0  -0.27966  0  1.528556  0  0  -0.028555  -0.250567  0  1.555926  0
I  I89  1  0.08272634  0.25107234  0.98603025  1  0  -0.321071  0  1.230454  0  0  -0.262391  0  1.544929  0  0  -0.27987  0  1.528281  0  0  -0.028702  -0.250765  0  1.555647  0
I  I90  1  0.58271476  0.25106644  0.51395711  1  0  -0.320913  0  1.230694  0  0  -0.262211  0  1.545156  0  0  -0.279677  0  1.528509  0  0  -0.028577  -0.250579  0  1.555889  0
I  I91  1  0.91731344  0.74896138  0.01397045  1  0  -0.321146  0  1.230252  0  0  -0.262479  0  1.54475  0  0  -0.279961  0  1.528102  0  0  -0.028809  -0.250857  0  1.555468  0
