# generated using pymatgen
data_DyH6C7O9
_symmetry_space_group_name_H-M   'P 1'
_cell_length_a   9.84941857
_cell_length_b   9.84947884
_cell_length_c   13.04176442
_cell_angle_alpha   95.40035970
_cell_angle_beta   108.93723574
_cell_angle_gamma   116.46486679
_symmetry_Int_Tables_number   1
_chemical_formula_structural   DyH6C7O9
_chemical_formula_sum   'Dy4 H24 C28 O36'
_cell_volume   1027.85200342
_cell_formula_units_Z   4
loop_
 _symmetry_equiv_pos_site_id
 _symmetry_equiv_pos_as_xyz
  1  'x, y, z'
loop_
 _atom_site_type_symbol
 _atom_site_label
 _atom_site_symmetry_multiplicity
 _atom_site_fract_x
 _atom_site_fract_y
 _atom_site_fract_z
 _atom_site_occupancy
 _atom_site_hle17_bader_spin_density
 _atom_site_hle17_ddec_charge
 _atom_site_hle17_ddec_spin_density
 _atom_site_hle17_ddec_sum_bond_order
 _atom_site_hle17_magmom
 _atom_site_hse06_10hf_bader_spin_density
 _atom_site_hse06_10hf_ddec_charge
 _atom_site_hse06_10hf_ddec_spin_density
 _atom_site_hse06_10hf_ddec_sum_bond_order
 _atom_site_hse06_10hf_magmom
 _atom_site_hse06_bader_spin_density
 _atom_site_hse06_ddec_charge
 _atom_site_hse06_ddec_spin_density
 _atom_site_hse06_ddec_sum_bond_order
 _atom_site_hse06_magmom
 _atom_site_pbe_bader_spin_density
 _atom_site_pbe_cm5_charge
 _atom_site_pbe_ddec_charge
 _atom_site_pbe_ddec_spin_density
 _atom_site_pbe_ddec_sum_bond_order
 _atom_site_pbe_magmom
Dy  Dy0  1  0.46116696  0.73612052  0.00422998  1  0  2.272843  0  1.648934  0  0  2.126779  0  2.126977  0  0  2.251747  0  1.937566  0  0  1.513842  2.090915  0  2.158768  0
Dy  Dy1  1  0.23219452  0.45724461  0.49574683  1  0  2.27286  0  1.650099  0  0  2.127678  0  2.127025  0  0  2.251698  0  1.938879  0  0  1.514378  2.091435  0  2.159476  0
Dy  Dy2  1  0.53883432  0.26388888  0.99576451  1  0  2.272769  0  1.649069  0  0  2.126742  0  2.127071  0  0  2.251681  0  1.937711  0  0  1.513833  2.090877  0  2.158859  0
Dy  Dy3  1  0.76780067  0.54274713  0.50424959  1  0  2.272895  0  1.650038  0  0  2.127703  0  2.126985  0  0  2.251737  0  1.938814  0  0  1.514373  2.091456  0  2.159441  0
H  H4  1  0.69197320  0.93685469  0.23500376  1  0  0.440181  0  0.811797  0  0  0.421658  0  0.867568  0  0  0.430724  0  0.855643  0  0  0.328052  0.415006  0  0.875664  0
H  H5  1  0.20217002  0.45707674  0.26496548  1  0  0.440489  0  0.811472  0  0  0.422109  0  0.866926  0  0  0.43113  0  0.854961  0  0  0.328327  0.415489  0  0.874972  0
H  H6  1  0.30803625  0.06315596  0.76499360  1  0  0.440177  0  0.811796  0  0  0.421655  0  0.867565  0  0  0.43072  0  0.855647  0  0  0.328057  0.415003  0  0.875661  0
H  H7  1  0.79782550  0.54291971  0.73503132  1  0  0.440349  0  0.811581  0  0  0.421973  0  0.86703  0  0  0.430993  0  0.855123  0  0  0.328265  0.415354  0  0.875074  0
H  H8  1  0.63491128  0.04941702  0.18257946  1  0  0.442405  0  0.849551  0  0  0.410963  0  0.913995  0  0  0.422216  0  0.897583  0  0  0.306702  0.403062  0  0.925694  0
H  H9  1  0.36713814  0.45237887  0.31740177  1  0  0.443607  0  0.848438  0  0  0.412073  0  0.912889  0  0  0.423357  0  0.896452  0  0  0.307263  0.40417  0  0.924549  0
H  H10  1  0.36509029  0.95058888  0.81741717  1  0  0.44235  0  0.849628  0  0  0.410921  0  0.914043  0  0  0.422174  0  0.897632  0  0  0.306716  0.403023  0  0.925738  0
H  H11  1  0.63285676  0.54761639  0.68259404  1  0  0.443576  0  0.84848  0  0  0.412035  0  0.912942  0  0  0.423321  0  0.896504  0  0  0.307266  0.404133  0  0.924599  0
H  H12  1  0.78433579  0.83996805  0.85318129  1  0  0.139833  0  0.95016  0  0  0.147755  0  1.009787  0  0  0.151603  0  1.007412  0  0  0.113255  0.14486  0  1.011632  0
H  H13  1  0.48713641  0.93106286  0.64669359  1  0  0.140323  0  0.948935  0  0  0.148399  0  1.008332  0  0  0.152263  0  1.005903  0  0  0.114001  0.145514  0  1.01016  0
H  H14  1  0.21566991  0.16003562  0.14682695  1  0  0.139767  0  0.950193  0  0  0.147697  0  1.009824  0  0  0.151545  0  1.007441  0  0  0.113223  0.144803  0  1.011668  0
H  H15  1  0.51287336  0.06892204  0.35331750  1  0  0.140392  0  0.948795  0  0  0.148469  0  1.008182  0  0  0.152324  0  1.005775  0  0  0.113981  0.14555  0  1.010054  0
H  H16  1  0.05096194  0.97607969  0.79950304  1  0  0.140617  0  0.937153  0  0  0.149515  0  0.995997  0  0  0.153637  0  0.992539  0  0  0.119288  0.146687  0  0.998276  0
H  H17  1  0.67690243  0.25138976  0.70064211  1  0  0.140765  0  0.935668  0  0  0.150151  0  0.993894  0  0  0.154209  0  0.990497  0  0  0.120052  0.147376  0  0.996106  0
H  H18  1  0.94904675  0.02393576  0.20050518  1  0  0.140659  0  0.937105  0  0  0.149564  0  0.995936  0  0  0.153682  0  0.992485  0  0  0.119331  0.146739  0  0.998213  0
H  H19  1  0.32310211  0.74859746  0.29936936  1  0  0.140773  0  0.935723  0  0  0.150158  0  0.99396  0  0  0.154218  0  0.990558  0  0  0.120044  0.14738  0  0.996176  0
H  H20  1  0.23014553  0.52668532  0.07927236  1  0  0.435794  0  0.817177  0  0  0.413664  0  0.878946  0  0  0.423145  0  0.868636  0  0  0.324075  0.40652  0  0.887895  0
H  H21  1  0.94778883  0.15093477  0.42062885  1  0  0.435017  0  0.815508  0  0  0.412717  0  0.877797  0  0  0.422182  0  0.867498  0  0  0.323093  0.405547  0  0.886799  0
H  H22  1  0.76985468  0.47332406  0.92072032  1  0  0.435768  0  0.81711  0  0  0.413597  0  0.878981  0  0  0.423078  0  0.868668  0  0  0.324007  0.406447  0  0.887946  0
H  H23  1  0.05220176  0.84906049  0.57936972  1  0  0.435043  0  0.815505  0  0  0.41274  0  0.8778  0  0  0.422209  0  0.867495  0  0  0.3231  0.40557  0  0.886803  0
H  H24  1  0.38752272  0.51305680  0.13842504  1  0  0.428427  0  0.867327  0  0  0.395464  0  0.937695  0  0  0.406897  0  0.920963  0  0  0.300235  0.387207  0  0.949906  0
H  H25  1  0.87479263  0.24903869  0.36152881  1  0  0.428625  0  0.867168  0  0  0.395551  0  0.937748  0  0  0.406997  0  0.920978  0  0  0.300274  0.387294  0  0.949959  0
H  H26  1  0.61247749  0.48695259  0.86156918  1  0  0.428418  0  0.867278  0  0  0.395448  0  0.937713  0  0  0.40688  0  0.920981  0  0  0.300223  0.387191  0  0.949924  0
H  H27  1  0.12520753  0.75096249  0.63846716  1  0  0.428611  0  0.867071  0  0  0.395528  0  0.937765  0  0  0.406973  0  0.920996  0  0  0.300279  0.387274  0  0.949974  0
C  C28  1  0.74191373  0.08811599  0.96930160  1  0  0.709269  0  3.908192  0  0  0.665051  0  4.192451  0  0  0.701508  0  4.18354  0  0  0.236004  0.640397  0  4.200785  0
C  C29  1  0.61913987  0.77275857  0.53049978  1  0  0.7094  0  3.907313  0  0  0.664593  0  4.192916  0  0  0.701011  0  4.184007  0  0  0.236977  0.639934  0  4.201237  0
C  C30  1  0.25808617  0.91189701  0.03070121  1  0  0.709138  0  3.908181  0  0  0.664942  0  4.192434  0  0  0.7014  0  4.183517  0  0  0.236053  0.640294  0  4.200754  0
C  C31  1  0.38085884  0.22722973  0.46950418  1  0  0.709224  0  3.907536  0  0  0.664584  0  4.192859  0  0  0.701  0  4.183947  0  0  0.236992  0.639936  0  4.201159  0
C  C32  1  0.07496600  0.19786292  0.88078873  1  0  0.066764  0  3.660079  0  0  0.056635  0  3.936106  0  0  0.057793  0  3.948684  0  0  0.070026  0.056153  0  3.926815  0
C  C33  1  0.81753022  0.19437772  0.61928524  1  0  0.067562  0  3.660476  0  0  0.057754  0  3.935058  0  0  0.059104  0  3.947565  0  0  0.068551  0.057149  0  3.925846  0
C  C34  1  0.92503142  0.80214537  0.11921623  1  0  0.066645  0  3.660068  0  0  0.0566  0  3.935933  0  0  0.057761  0  3.948504  0  0  0.070089  0.056124  0  3.92664  0
C  C35  1  0.18247682  0.80561421  0.38072486  1  0  0.067651  0  3.660262  0  0  0.057941  0  3.934855  0  0  0.059297  0  3.947359  0  0  0.068597  0.057339  0  3.925641  0
C  C36  1  0.86748879  0.96507624  0.86921553  1  0  -0.134415  0  3.714883  0  0  -0.167914  0  3.982977  0  0  -0.169691  0  4.001378  0  0  -0.098488  -0.166113  0  3.969805  0
C  C37  1  0.59628496  0.99833593  0.63077997  1  0  -0.13273  0  3.713637  0  0  -0.166102  0  3.981753  0  0  -0.167889  0  4.000158  0  0  -0.097892  -0.164283  0  3.968583  0
C  C38  1  0.13250647  0.03493202  0.13078658  1  0  -0.134335  0  3.714887  0  0  -0.167828  0  3.982994  0  0  -0.169598  0  4.001376  0  0  -0.098476  -0.166025  0  3.969821  0
C  C39  1  0.40371929  0.00165482  0.36923090  1  0  -0.132919  0  3.713628  0  0  -0.166278  0  3.981734  0  0  -0.168083  0  4.000163  0  0  -0.097918  -0.164434  0  3.968584  0
C  C40  1  0.22974020  0.33450694  0.89062097  1  0  0.700634  0  3.914873  0  0  0.648813  0  4.21649  0  0  0.685501  0  4.20765  0  0  0.230471  0.623574  0  4.225844  0
C  C41  1  0.94421676  0.33940431  0.60939032  1  0  0.69898  0  3.917371  0  0  0.647976  0  4.217173  0  0  0.684562  0  4.208421  0  0  0.230719  0.622764  0  4.226469  0
C  C42  1  0.77025660  0.66550012  0.10937838  1  0  0.700739  0  3.915084  0  0  0.64898  0  4.216537  0  0  0.685671  0  4.207689  0  0  0.230514  0.623736  0  4.22589  0
C  C43  1  0.05577793  0.66058040  0.39061010  1  0  0.698881  0  3.916898  0  0  0.647748  0  4.216922  0  0  0.684316  0  4.208198  0  0  0.230611  0.622535  0  4.226214  0
C  C44  1  0.00691220  0.03657061  0.84221885  1  0  -0.114875  0  3.695556  0  0  -0.150628  0  3.967725  0  0  -0.151093  0  3.98422  0  0  -0.087131  -0.149807  0  3.955971  0
C  C45  1  0.69476452  0.16475234  0.65786321  1  0  -0.11743  0  3.696215  0  0  -0.153943  0  3.968665  0  0  -0.15442  0  3.985154  0  0  -0.089768  -0.153105  0  3.956925  0
C  C46  1  0.99308816  0.96344125  0.15778707  1  0  -0.114886  0  3.695537  0  0  -0.150677  0  3.967669  0  0  -0.151156  0  3.984197  0  0  -0.087181  -0.149854  0  3.955904  0
C  C47  1  0.30524143  0.83523960  0.34214892  1  0  -0.117449  0  3.696355  0  0  -0.153981  0  3.968777  0  0  -0.154457  0  3.985259  0  0  -0.089754  -0.15314  0  3.957026  0
C  C48  1  0.33787732  0.68137462  0.73646441  1  0  0.574343  0  3.883845  0  0  0.529481  0  4.176824  0  0  0.559467  0  4.174574  0  0  0.227265  0.508858  0  4.183448  0
C  C49  1  0.44487105  0.60140732  0.76355202  1  0  0.576832  0  3.881313  0  0  0.530183  0  4.176577  0  0  0.560227  0  4.174202  0  0  0.226304  0.509569  0  4.183223  0
C  C50  1  0.66212099  0.31862296  0.26352626  1  0  0.574403  0  3.88393  0  0  0.529498  0  4.177019  0  0  0.559488  0  4.174758  0  0  0.227264  0.508891  0  4.18361  0
C  C51  1  0.55512812  0.39857969  0.23643971  1  0  0.57687  0  3.881134  0  0  0.5302  0  4.176458  0  0  0.560241  0  4.174082  0  0  0.226317  0.509584  0  4.1831  0
C  C52  1  0.85822508  0.08623003  0.92263963  1  0  0.078726  0  3.662928  0  0  0.074085  0  3.923211  0  0  0.075187  0  3.935537  0  0  0.071984  0.073658  0  3.913497  0
C  C53  1  0.66401795  0.93574032  0.57729322  1  0  0.081251  0  3.659702  0  0  0.076122  0  3.920628  0  0  0.077348  0  3.932948  0  0  0.073522  0.075621  0  3.910954  0
C  C54  1  0.14177171  0.91377705  0.07736125  1  0  0.078794  0  3.663064  0  0  0.074101  0  3.923393  0  0  0.075217  0  3.935706  0  0  0.072013  0.073672  0  3.913677  0
C  C55  1  0.33598585  0.06425157  0.42271455  1  0  0.081325  0  3.659915  0  0  0.076192  0  3.92079  0  0  0.077418  0  3.933102  0  0  0.07354  0.075688  0  3.911107  0
O  O56  1  0.64656016  0.96008337  0.98386014  1  0  -0.77685  0  2.119729  0  0  -0.728749  0  2.391812  0  0  -0.768244  0  2.377743  0  0  -0.418433  -0.709842  0  2.399644  0
O  O57  1  0.47651553  0.66288623  0.51595728  1  0  -0.777016  0  2.120564  0  0  -0.728662  0  2.392473  0  0  -0.767993  0  2.378532  0  0  -0.417668  -0.70971  0  2.400397  0
O  O58  1  0.35344422  0.03993202  0.01614318  1  0  -0.776853  0  2.119805  0  0  -0.728749  0  2.391844  0  0  -0.768259  0  2.377822  0  0  -0.4185  -0.70985  0  2.399684  0
O  O59  1  0.52348503  0.33710564  0.48405045  1  0  -0.776899  0  2.120564  0  0  -0.728606  0  2.392381  0  0  -0.767934  0  2.378438  0  0  -0.41764  -0.709659  0  2.400303  0
O  O60  1  0.74233752  0.21696878  0.99046447  1  0  -0.703382  0  2.007175  0  0  -0.657598  0  2.254718  0  0  -0.691429  0  2.23556  0  0  -0.413505  -0.640756  0  2.264514  0
O  O61  1  0.72673651  0.75192625  0.50926775  1  0  -0.704606  0  2.006288  0  0  -0.658686  0  2.254132  0  0  -0.69232  0  2.235055  0  0  -0.415558  -0.641771  0  2.263934  0
O  O62  1  0.25766686  0.78304657  0.00953577  1  0  -0.703277  0  2.007008  0  0  -0.657503  0  2.254552  0  0  -0.691336  0  2.235394  0  0  -0.413484  -0.640662  0  2.26434  0
O  O63  1  0.27325664  0.24805962  0.49073084  1  0  -0.704627  0  2.006288  0  0  -0.658741  0  2.254014  0  0  -0.692377  0  2.23495  0  0  -0.415631  -0.641832  0  2.263815  0
O  O64  1  0.33452887  0.75550657  0.81954832  1  0  -0.652886  0  2.101196  0  0  -0.596316  0  2.335271  0  0  -0.629129  0  2.32406  0  0  -0.351077  -0.579588  0  2.341306  0
O  O65  1  0.43610741  0.51525780  0.68041354  1  0  -0.652759  0  2.101575  0  0  -0.596048  0  2.336656  0  0  -0.628714  0  2.325429  0  0  -0.351235  -0.579271  0  2.342672  0
O  O66  1  0.66547872  0.24450052  0.18044681  1  0  -0.652828  0  2.101362  0  0  -0.596253  0  2.335467  0  0  -0.629056  0  2.324246  0  0  -0.351012  -0.579531  0  2.341494  0
O  O67  1  0.56388285  0.48473266  0.31957466  1  0  -0.652902  0  2.101259  0  0  -0.596168  0  2.336345  0  0  -0.628838  0  2.325115  0  0  -0.351252  -0.57939  0  2.342363  0
O  O68  1  0.33993423  0.30475868  0.88165022  1  0  -0.751408  0  2.036516  0  0  -0.69619  0  2.294407  0  0  -0.734139  0  2.278623  0  0  -0.419892  -0.677249  0  2.302799  0
O  O69  1  0.92332826  0.45849770  0.61839794  1  0  -0.74991  0  2.038096  0  0  -0.695  0  2.295085  0  0  -0.732738  0  2.279387  0  0  -0.41895  -0.676032  0  2.303535  0
O  O70  1  0.66005951  0.69525068  0.11834392  1  0  -0.751468  0  2.036568  0  0  -0.696267  0  2.294411  0  0  -0.734215  0  2.278615  0  0  -0.419935  -0.677355  0  2.302873  0
O  O71  1  0.07665533  0.54148219  0.38159635  1  0  -0.749722  0  2.037858  0  0  -0.694794  0  2.294962  0  0  -0.732521  0  2.279274  0  0  -0.418823  -0.675826  0  2.303406  0
O  O72  1  0.98310409  0.22926411  0.92850567  1  0  -0.176787  0  2.403671  0  0  -0.112087  0  2.62136  0  0  -0.125364  0  2.626647  0  0  -0.111238  -0.102928  0  2.617218  0
O  O73  1  0.80118029  0.05483412  0.57143903  1  0  -0.179069  0  2.402811  0  0  -0.113961  0  2.61994  0  0  -0.127554  0  2.625391  0  0  -0.110437  -0.104605  0  2.615718  0
O  O74  1  0.01690013  0.77074888  0.07149361  1  0  -0.176762  0  2.403624  0  0  -0.112059  0  2.621274  0  0  -0.125348  0  2.62657  0  0  -0.111283  -0.1029  0  2.61713  0
O  O75  1  0.19882537  0.94516130  0.42856789  1  0  -0.179068  0  2.402681  0  0  -0.114058  0  2.619874  0  0  -0.127641  0  2.625314  0  0  -0.110481  -0.104704  0  2.615655  0
O  O76  1  0.24684473  0.47106337  0.91083793  1  0  -0.720094  0  2.029979  0  0  -0.674336  0  2.284084  0  0  -0.708132  0  2.266515  0  0  -0.385447  -0.657602  0  2.293866  0
O  O77  1  0.06052414  0.33639839  0.58907385  1  0  -0.720327  0  2.030271  0  0  -0.675091  0  2.284132  0  0  -0.708735  0  2.266629  0  0  -0.386784  -0.658246  0  2.293854  0
O  O78  1  0.75315208  0.52894364  0.08915606  1  0  -0.720146  0  2.030121  0  0  -0.674415  0  2.284181  0  0  -0.708211  0  2.266613  0  0  -0.385497  -0.657677  0  2.293968  0
O  O79  1  0.93946922  0.66359807  0.41092549  1  0  -0.720346  0  2.030025  0  0  -0.675084  0  2.283988  0  0  -0.70873  0  2.2665  0  0  -0.386777  -0.658236  0  2.293704  0
O  O80  1  0.26626648  0.67213612  0.63379711  1  0  -0.668636  0  2.099315  0  0  -0.6188  0  2.341959  0  0  -0.652061  0  2.332261  0  0  -0.338282  -0.601921  0  2.34856  0
O  O81  1  0.53800222  0.63211094  0.86624030  1  0  -0.670752  0  2.099587  0  0  -0.619793  0  2.342118  0  0  -0.653275  0  2.332547  0  0  -0.337354  -0.602904  0  2.34864  0
O  O82  1  0.73373534  0.32785796  0.36619420  1  0  -0.66872  0  2.099161  0  0  -0.618859  0  2.341811  0  0  -0.652125  0  2.332122  0  0  -0.338328  -0.601977  0  2.348394  0
O  O83  1  0.46200719  0.36789145  0.13375421  1  0  -0.670686  0  2.099585  0  0  -0.619744  0  2.342154  0  0  -0.653212  0  2.332564  0  0  -0.337366  -0.602856  0  2.348677  0
O  O84  1  0.59481652  0.93830101  0.18522993  1  0  -0.874424  0  1.83896  0  0  -0.828286  0  2.024951  0  0  -0.855295  0  1.989587  0  0  -0.615311  -0.81562  0  2.044942  0
O  O85  1  0.25340622  0.40977808  0.31481235  1  0  -0.876319  0  1.838177  0  0  -0.830135  0  2.024524  0  0  -0.857104  0  1.989095  0  0  -0.616508  -0.817361  0  2.044564  0
O  O86  1  0.40518828  0.06170493  0.81476980  1  0  -0.874356  0  1.839004  0  0  -0.828223  0  2.025007  0  0  -0.855228  0  1.989649  0  0  -0.615335  -0.81556  0  2.044997  0
O  O87  1  0.74659054  0.59022074  0.68518568  1  0  -0.876147  0  1.838294  0  0  -0.829946  0  2.024624  0  0  -0.856918  0  1.989251  0  0  -0.616449  -0.817173  0  2.044659  0
O  O88  1  0.34633400  0.58883359  0.13383234  1  0  -0.855924  0  1.82608  0  0  -0.808941  0  2.009803  0  0  -0.834642  0  1.976964  0  0  -0.602552  -0.795578  0  2.030068  0
O  O89  1  0.95528717  0.21263073  0.36610485  1  0  -0.854953  0  1.824189  0  0  -0.807901  0  2.007743  0  0  -0.833533  0  1.975049  0  0  -0.601126  -0.794454  0  2.028017  0
O  O90  1  0.65366558  0.41117462  0.86616241  1  0  -0.855855  0  1.825899  0  0  -0.808881  0  2.009674  0  0  -0.834579  0  1.976847  0  0  -0.602465  -0.795519  0  2.029937  0
O  O91  1  0.04471266  0.78736578  0.63389610  1  0  -0.854959  0  1.824054  0  0  -0.807903  0  2.007678  0  0  -0.833542  0  1.974981  0  0  -0.601124  -0.794456  0  2.027946  0
