# generated using pymatgen
data_Er4Si3H48(C7O2)12
_symmetry_space_group_name_H-M   'P 1'
_cell_length_a   17.49705844
_cell_length_b   17.49721221
_cell_length_c   24.89211499
_cell_angle_alpha   89.99625122
_cell_angle_beta   90.00202330
_cell_angle_gamma   114.59732045
_symmetry_Int_Tables_number   1
_chemical_formula_structural   Er4Si3H48(C7O2)12
_chemical_formula_sum   'Er8 Si6 H96 C168 O48'
_cell_volume   6929.17727175
_cell_formula_units_Z   2
loop_
 _symmetry_equiv_pos_site_id
 _symmetry_equiv_pos_as_xyz
  1  'x, y, z'
loop_
 _atom_site_type_symbol
 _atom_site_label
 _atom_site_symmetry_multiplicity
 _atom_site_fract_x
 _atom_site_fract_y
 _atom_site_fract_z
 _atom_site_occupancy
 _atom_site_pbe_bader_charge
 _atom_site_pbe_bader_spin_density
 _atom_site_pbe_cm5_charge
 _atom_site_pbe_ddec_charge
 _atom_site_pbe_ddec_spin_density
 _atom_site_pbe_ddec_sum_bond_order
 _atom_site_pbe_magmom
Er  Er0  1  0.00220103  0.61645240  0.99998721  1  2.156001  0  1.573447  2.104164  0  2.169915  0
Er  Er1  1  0.99778946  0.38354893  0.99998376  1  2.155936  0  1.573445  2.10417  0  2.169776  0
Er  Er2  1  0.38354265  0.99778884  0.49999794  1  2.155941  0  1.573459  2.104268  0  2.16959  0
Er  Er3  1  0.61646412  0.00221319  0.49998246  1  2.156216  0  1.573413  2.104073  0  2.169819  0
Er  Er4  1  0.75572513  0.66882972  0.00000769  1  2.1393  0  1.627284  2.062235  0  2.136158  0
Er  Er5  1  0.24427632  0.33120778  0.99996950  1  2.143234  0  1.627407  2.062283  0  2.135955  0
Er  Er6  1  0.33109673  0.24424880  0.50003155  1  2.140491  0  1.627296  2.062031  0  2.13658  0
Er  Er7  1  0.66888802  0.75574735  0.49994644  1  2.144315  0  1.627326  2.062567  0  2.135817  0
Si  Si8  1  0.99995235  0.99997611  0.25001601  1  2.67847  0  0.142609  0.668448  0  3.847991  0
Si  Si9  1  0.00005754  0.00003124  0.75003108  1  2.67867  0  0.142686  0.668061  0  3.847414  0
Si  Si10  1  0.37954384  0.62044280  0.75000987  1  2.688433  0  0.139923  0.670946  0  3.851029  0
Si  Si11  1  0.62047016  0.37960995  0.74997466  1  2.68787  0  0.139738  0.67042  0  3.850366  0
Si  Si12  1  0.62039144  0.37950901  0.24997456  1  2.688441  0  0.139819  0.670766  0  3.849755  0
Si  Si13  1  0.37956792  0.62042074  0.25001820  1  2.68777  0  0.139694  0.670512  0  3.850624  0
H  H14  1  0.08065086  0.81881752  0.12514986  1  0.099747  0  0.110895  0.114689  0  0.988368  0
H  H15  1  0.91934533  0.18119711  0.12512286  1  0.098901  0  0.110931  0.114748  0  0.988411  0
H  H16  1  0.18120165  0.91935645  0.37487045  1  0.099048  0  0.110989  0.114821  0  0.988369  0
H  H17  1  0.81865546  0.08054764  0.37484115  1  0.099434  0  0.110881  0.114741  0  0.988761  0
H  H18  1  0.91945331  0.18131083  0.87485144  1  0.099989  0  0.110874  0.114775  0  0.988685  0
H  H19  1  0.08054903  0.81866368  0.87486840  1  0.099041  0  0.110893  0.114821  0  0.988386  0
H  H20  1  0.81889293  0.08070784  0.62513888  1  0.097761  0  0.110813  0.114662  0  0.988535  0
H  H21  1  0.18129613  0.91941506  0.62516175  1  0.099326  0  0.110836  0.114815  0  0.988447  0
H  H22  1  0.84458210  0.87370138  0.19963958  1  0.057983  0  0.101956  0.093564  0  1.005558  0
H  H23  1  0.15531736  0.12622487  0.19965744  1  0.059628  0  0.101914  0.093499  0  1.006009  0
H  H24  1  0.12622009  0.15535949  0.30037866  1  0.058867  0  0.101979  0.093627  0  1.005548  0
H  H25  1  0.87369372  0.84459091  0.30036729  1  0.057516  0  0.101944  0.093446  0  1.005544  0
H  H26  1  0.15544487  0.12629889  0.80038984  1  0.056937  0  0.101948  0.093399  0  1.005449  0
H  H27  1  0.84463344  0.87375694  0.80036475  1  0.058372  0  0.101925  0.093577  0  1.005656  0
H  H28  1  0.87379717  0.84467326  0.69964915  1  0.059238  0  0.101964  0.093613  0  1.005829  0
H  H29  1  0.12631321  0.15539175  0.69965891  1  0.059014  0  0.101976  0.093579  0  1.005747  0
H  H30  1  0.81833229  0.76909645  0.12735572  1  0.097023  0  0.105979  0.106951  0  1.030517  0
H  H31  1  0.18161792  0.23083396  0.12735816  1  0.097838  0  0.105964  0.106688  0  1.030492  0
H  H32  1  0.23085106  0.18164186  0.37265928  1  0.097297  0  0.10605  0.107  0  1.030273  0
H  H33  1  0.76898030  0.81824355  0.37259749  1  0.092451  0  0.105849  0.107152  0  1.031395  0
H  H34  1  0.18175708  0.23098850  0.87262750  1  0.098149  0  0.105868  0.107219  0  1.031177  0
H  H35  1  0.81827370  0.76905596  0.87260778  1  0.097309  0  0.105877  0.106931  0  1.031183  0
H  H36  1  0.76922133  0.81843591  0.62734121  1  0.097865  0  0.105917  0.106427  0  1.030232  0
H  H37  1  0.23097389  0.18170825  0.62740742  1  0.097974  0  0.10585  0.106834  0  1.031164  0
H  H38  1  0.10880704  0.92591775  0.19692991  1  0.0428  0  0.102069  0.093273  0  1.003529  0
H  H39  1  0.89113139  0.07410067  0.19692281  1  0.041757  0  0.102165  0.0934  0  1.003466  0
H  H40  1  0.07407819  0.89117234  0.30309321  1  0.043174  0  0.102177  0.093364  0  1.003531  0
H  H41  1  0.92584385  0.10877785  0.30310386  1  0.042777  0  0.102054  0.09307  0  1.003504  0
H  H42  1  0.89124401  0.07414701  0.80311477  1  0.043382  0  0.102087  0.09315  0  1.003466  0
H  H43  1  0.10880894  0.92585041  0.80312870  1  0.043297  0  0.102123  0.093246  0  1.003487  0
H  H44  1  0.92596916  0.10888227  0.69694746  1  0.041738  0  0.10223  0.093535  0  1.003431  0
H  H45  1  0.07415057  0.89119152  0.69691672  1  0.042576  0  0.101975  0.092943  0  1.003594  0
H  H46  1  0.19894930  0.70002930  0.87276111  1  0.070231  0  0.10907  0.113805  0  0.992114  0
H  H47  1  0.80104578  0.29998348  0.87272727  1  0.070647  0  0.109091  0.113829  0  0.992397  0
H  H48  1  0.29998914  0.80108884  0.62725981  1  0.070848  0  0.109075  0.113825  0  0.992281  0
H  H49  1  0.70003767  0.19897901  0.62723413  1  0.070433  0  0.109101  0.1139  0  0.992065  0
H  H50  1  0.80104246  0.29995724  0.12723457  1  0.070166  0  0.109078  0.113771  0  0.992239  0
H  H51  1  0.19893266  0.70001343  0.12727564  1  0.070339  0  0.109012  0.113776  0  0.99238  0
H  H52  1  0.70000554  0.19892694  0.37273305  1  0.070595  0  0.109027  0.113732  0  0.992498  0
H  H53  1  0.29996141  0.80103921  0.37274226  1  0.070413  0  0.10903  0.113799  0  0.992283  0
H  H54  1  0.30180364  0.72645283  0.79813534  1  0.075095  0  0.101944  0.093543  0  1.008837  0
H  H55  1  0.69820602  0.27358848  0.79809412  1  0.074688  0  0.102015  0.093632  0  1.008394  0
H  H56  1  0.27354187  0.69822367  0.70188629  1  0.07351  0  0.101967  0.093641  0  1.008471  0
H  H57  1  0.72648499  0.30187956  0.70182438  1  0.074564  0  0.10182  0.093462  0  1.00912  0
H  H58  1  0.69815806  0.27350729  0.20184587  1  0.074306  0  0.101895  0.093488  0  1.008881  0
H  H59  1  0.30180754  0.72643299  0.20189553  1  0.074696  0  0.10198  0.093526  0  1.00871  0
H  H60  1  0.72640713  0.30174651  0.29807966  1  0.073707  0  0.102026  0.093738  0  1.008337  0
H  H61  1  0.27355360  0.69816678  0.29812550  1  0.07486  0  0.101933  0.093437  0  1.008681  0
H  H62  1  0.25007691  0.46251572  0.79666080  1  0.022384  0  0.099682  0.089566  0  1.016047  0
H  H63  1  0.74991823  0.53752416  0.79665529  1  0.022151  0  0.099754  0.089858  0  1.016031  0
H  H64  1  0.53747563  0.74986573  0.70333303  1  0.022684  0  0.099744  0.089784  0  1.016301  0
H  H65  1  0.46252368  0.25013314  0.70331551  1  0.023897  0  0.099597  0.089507  0  1.016079  0
H  H66  1  0.74984505  0.53744418  0.20331840  1  0.023683  0  0.099653  0.089654  0  1.016084  0
H  H67  1  0.25016838  0.46250933  0.20331990  1  0.023446  0  0.099688  0.089735  0  1.016301  0
H  H68  1  0.46248494  0.25007620  0.29664175  1  0.021442  0  0.099792  0.089774  0  1.016097  0
H  H69  1  0.53748864  0.74988552  0.29667173  1  0.023077  0  0.09965  0.089718  0  1.016104  0
H  H70  1  0.15068266  0.43845027  0.87269222  1  0.069042  0  0.107232  0.112728  0  1.013733  0
H  H71  1  0.84930992  0.56155975  0.87269009  1  0.069087  0  0.10725  0.112711  0  1.0137  0
H  H72  1  0.56155860  0.84927970  0.62731018  1  0.068795  0  0.107337  0.112648  0  1.013329  0
H  H73  1  0.43845693  0.15069936  0.62730709  1  0.069196  0  0.107223  0.112704  0  1.013786  0
H  H74  1  0.84927819  0.56153806  0.12730265  1  0.069134  0  0.1073  0.112711  0  1.013617  0
H  H75  1  0.15073977  0.43843870  0.12729995  1  0.072944  0  0.107295  0.112496  0  1.013691  0
H  H76  1  0.43842248  0.15070233  0.37269313  1  0.068587  0  0.107273  0.112609  0  1.013702  0
H  H77  1  0.56155113  0.84929979  0.37269582  1  0.068843  0  0.107182  0.112743  0  1.013996  0
H  H78  1  0.38929006  0.63894532  0.12962033  1  0.084553  0  0.100103  0.093338  0  1.026269  0
H  H79  1  0.61064165  0.36093534  0.12957007  1  0.080236  0  0.100172  0.093661  0  1.026418  0
H  H80  1  0.36102812  0.61069245  0.37042098  1  0.084249  0  0.100112  0.093446  0  1.026225  0
H  H81  1  0.63845226  0.38899394  0.37041351  1  0.080244  0  0.100096  0.093381  0  1.026248  0
H  H82  1  0.61093242  0.36145480  0.87039703  1  0.081347  0  0.100012  0.093315  0  1.026527  0
H  H83  1  0.38910539  0.63865342  0.87042360  1  0.080666  0  0.100182  0.093613  0  1.0263  0
H  H84  1  0.63911162  0.38940293  0.62959397  1  0.083951  0  0.100122  0.093603  0  1.026472  0
H  H85  1  0.36138824  0.61090066  0.62959703  1  0.081729  0  0.100121  0.093471  0  1.026408  0
H  H86  1  0.49826260  0.65541860  0.06242333  1  0.07676  0  0.108544  0.10625  0  0.987902  0
H  H87  1  0.50161035  0.34444803  0.06239841  1  0.075869  0  0.10863  0.10627  0  0.988081  0
H  H88  1  0.34453679  0.50168146  0.43760039  1  0.075567  0  0.10861  0.106257  0  0.988371  0
H  H89  1  0.65473046  0.49787032  0.43762445  1  0.072703  0  0.108432  0.106084  0  0.988187  0
H  H90  1  0.50205675  0.34517507  0.93761331  1  0.073663  0  0.108426  0.106041  0  0.988047  0
H  H91  1  0.49801267  0.65495285  0.93763101  1  0.073105  0  0.108446  0.105979  0  0.988291  0
H  H92  1  0.65566584  0.49843537  0.56241216  1  0.076239  0  0.10848  0.106034  0  0.988108  0
H  H93  1  0.34505852  0.50199964  0.56238769  1  0.073747  0  0.108495  0.105978  0  0.988123  0
H  H94  1  0.66368569  0.64600987  0.18755641  1  0.068249  0  0.102036  0.098641  0  1.011619  0
H  H95  1  0.33633471  0.35407550  0.18755423  1  0.069493  0  0.101979  0.098453  0  1.011567  0
H  H96  1  0.35400116  0.33631539  0.31244983  1  0.068196  0  0.101986  0.098516  0  1.011347  0
H  H97  1  0.64657737  0.66381142  0.31242224  1  0.069728  0  0.101968  0.098524  0  1.011078  0
H  H98  1  0.33620908  0.35355846  0.81242762  1  0.069642  0  0.102026  0.098645  0  1.011393  0
H  H99  1  0.66374886  0.64634706  0.81244304  1  0.068416  0  0.102088  0.09855  0  1.011332  0
H  H100  1  0.64583684  0.66365646  0.68753861  1  0.068549  0  0.101936  0.098218  0  1.011977  0
H  H101  1  0.35359817  0.33622137  0.68757705  1  0.069509  0  0.102001  0.098551  0  1.011434  0
H  H102  1  0.55326224  0.62822886  0.25539017  1  0.062799  0  0.096246  0.079249  0  1.07116  0
H  H103  1  0.44679748  0.37177825  0.25536182  1  0.062904  0  0.096255  0.079329  0  1.071674  0
H  H104  1  0.37175054  0.44678178  0.24463728  1  0.063404  0  0.096248  0.079133  0  1.071696  0
H  H105  1  0.62867940  0.55336395  0.24461514  1  0.062377  0  0.096347  0.079354  0  1.071232  0
H  H106  1  0.44663940  0.37142811  0.74460631  1  0.063056  0  0.096221  0.079412  0  1.070699  0
H  H107  1  0.55330003  0.62855419  0.74463425  1  0.063175  0  0.096158  0.079177  0  1.071078  0
H  H108  1  0.62810815  0.55320566  0.75536000  1  0.059539  0  0.096175  0.079096  0  1.071175  0
H  H109  1  0.37146716  0.44666516  0.75539339  1  0.063113  0  0.096202  0.079256  0  1.071004  0
C  C110  1  0.93221749  0.72603070  0.07695142  1  1.56533  0  0.244034  0.674948  0  4.134832  0
C  C111  1  0.06777151  0.27393679  0.07692893  1  1.565088  0  0.243981  0.674925  0  4.133874  0
C  C112  1  0.27393787  0.06778421  0.42307399  1  1.565059  0  0.244103  0.675359  0  4.133758  0
C  C113  1  0.72579644  0.93209551  0.42298498  1  1.566685  0  0.24431  0.674865  0  4.134476  0
C  C114  1  0.06789953  0.27414710  0.92299886  1  1.566041  0  0.244078  0.674865  0  4.13435  0
C  C115  1  0.93210429  0.72587900  0.92302416  1  1.566211  0  0.244277  0.675563  0  4.133897  0
C  C116  1  0.72619823  0.93229249  0.57690722  1  1.577961  0  0.244259  0.675735  0  4.133635  0
C  C117  1  0.27411165  0.06786424  0.57700547  1  1.566237  0  0.244183  0.675249  0  4.134068  0
C  C118  1  0.94799946  0.78732333  0.12183630  1  0.018854  0  -0.016113  -0.04794  0  3.954429  0
C  C119  1  0.05196562  0.21263216  0.12181585  1  0.019603  0  -0.01606  -0.047595  0  3.954421  0
C  C120  1  0.21264499  0.05198810  0.37818628  1  0.019454  0  -0.01612  -0.048013  0  3.954524  0
C  C121  1  0.78717066  0.94789930  0.37814428  1  0.017719  0  -0.016062  -0.047927  0  3.955039  0
C  C122  1  0.05210353  0.21279310  0.87815174  1  0.018657  0  -0.016027  -0.048038  0  3.955121  0
C  C123  1  0.94791555  0.78722362  0.87816215  1  0.018177  0  -0.015953  -0.047963  0  3.955031  0
C  C124  1  0.78747028  0.94809008  0.62180979  1  0.019732  0  -0.016146  -0.047855  0  3.95422  0
C  C125  1  0.21278662  0.05206066  0.62187711  1  0.017151  0  -0.016189  -0.04786  0  3.955087  0
C  C126  1  0.97874273  0.90792005  0.20401133  1  -0.614266  0  -0.052262  -0.201048  0  3.966077  0
C  C127  1  0.02118045  0.09204440  0.20402098  1  -0.615416  0  -0.05211  -0.200934  0  3.965926  0
C  C128  1  0.09202423  0.02121355  0.29602011  1  -0.614411  0  -0.052488  -0.201586  0  3.966283  0
C  C129  1  0.90786755  0.97872394  0.29600742  1  -0.612543  0  -0.052573  -0.201643  0  3.96606  0
C  C130  1  0.02130031  0.09212075  0.79602773  1  -0.612369  0  -0.052543  -0.201518  0  3.965999  0
C  C131  1  0.97877300  0.90792251  0.79602973  1  -0.612573  0  -0.052429  -0.20106  0  3.965634  0
C  C132  1  0.90800747  0.97882588  0.70401936  1  -0.616025  0  -0.052181  -0.200854  0  3.965511  0
C  C133  1  0.09214570  0.02125682  0.70403967  1  -0.616233  0  -0.052447  -0.201241  0  3.966022  0
C  C134  1  0.02955543  0.83137509  0.14208522  1  -0.085813  0  -0.076964  -0.078678  0  3.943977  0
C  C135  1  0.97041527  0.16862148  0.14207855  1  -0.08592  0  -0.077049  -0.078982  0  3.944654  0
C  C136  1  0.16862563  0.97043928  0.35793202  1  -0.086362  0  -0.07718  -0.079033  0  3.944589  0
C  C137  1  0.83124253  0.02947562  0.35791223  1  -0.085804  0  -0.077227  -0.07926  0  3.944968  0
C  C138  1  0.97053185  0.16873527  0.85792090  1  -0.085558  0  -0.077289  -0.079016  0  3.944849  0
C  C139  1  0.02948400  0.83125738  0.85792837  1  -0.084142  0  -0.07735  -0.079238  0  3.94499  0
C  C140  1  0.83147328  0.02963484  0.64208052  1  -0.086664  0  -0.076868  -0.07883  0  3.9441  0
C  C141  1  0.16872857  0.97049190  0.64211358  1  -0.085299  0  -0.077236  -0.079748  0  3.944664  0
C  C142  1  0.89704450  0.86205935  0.18394638  1  -0.015702  0  -0.082003  -0.068225  0  4.007939  0
C  C143  1  0.10287859  0.13788406  0.18394993  1  -0.016565  0  -0.082086  -0.068293  0  4.008502  0
C  C144  1  0.13788103  0.10291145  0.31607334  1  -0.016974  0  -0.081996  -0.068117  0  4.008019  0
C  C145  1  0.86199531  0.89701708  0.31606247  1  -0.075162  0  -0.08188  -0.067701  0  4.007873  0
C  C146  1  0.10300608  0.13798634  0.81607741  1  -0.075659  0  -0.081731  -0.06737  0  4.007661  0
C  C147  1  0.89705737  0.86206117  0.81606502  1  -0.015739  0  -0.082047  -0.068255  0  4.00811  0
C  C148  1  0.86216325  0.89713329  0.68394443  1  -0.017157  0  -0.082069  -0.068519  0  4.008619  0
C  C149  1  0.13799089  0.10295453  0.68397056  1  -0.015922  0  -0.082053  -0.068407  0  4.008561  0
C  C150  1  0.88159562  0.80268650  0.14334996  1  -0.091032  0  -0.079114  -0.082217  0  3.941575  0
C  C151  1  0.11835153  0.19725885  0.14334835  1  -0.090614  0  -0.079168  -0.08209  0  3.942039  0
C  C152  1  0.19726690  0.11838006  0.35666690  1  -0.090535  0  -0.079275  -0.082312  0  3.941545  0
C  C153  1  0.80256353  0.88151845  0.35662714  1  -0.026615  0  -0.079301  -0.082643  0  3.942096  0
C  C154  1  0.11849366  0.19741042  0.85664129  1  -0.033609  0  -0.079387  -0.082945  0  3.9422  0
C  C155  1  0.88154454  0.80262552  0.85663367  1  -0.092769  0  -0.079151  -0.082119  0  3.942104  0
C  C156  1  0.80281504  0.88168633  0.64333640  1  -0.089318  0  -0.078871  -0.081334  0  3.942021  0
C  C157  1  0.19740571  0.11844428  0.64339625  1  -0.091976  0  -0.079188  -0.082017  0  3.942051  0
C  C158  1  0.04457408  0.89108791  0.18249240  1  -0.0628  0  -0.08143  -0.069126  0  4.011098  0
C  C159  1  0.95536884  0.10889774  0.18248692  1  -0.061777  0  -0.081375  -0.069124  0  4.011025  0
C  C160  1  0.10890213  0.95540464  0.31752967  1  -0.062284  0  -0.081113  -0.068638  0  4.011078  0
C  C161  1  0.89100819  0.04453584  0.31753357  1  -0.062361  0  -0.081112  -0.068288  0  4.010407  0
C  C162  1  0.95548511  0.10898543  0.81754224  1  -0.062278  0  -0.081095  -0.068505  0  4.010846  0
C  C163  1  0.04456788  0.89103067  0.81755254  1  -0.063925  0  -0.081157  -0.068828  0  4.01098  0
C  C164  1  0.89116916  0.04465381  0.68249533  1  -0.060301  0  -0.08158  -0.069472  0  4.010889  0
C  C165  1  0.10897484  0.95543786  0.68249544  1  -0.060336  0  -0.081064  -0.068022  0  4.010524  0
C  C166  1  0.11315547  0.55408224  0.92422026  1  1.574393  0  0.241809  0.67427  0  4.132999  0
C  C167  1  0.88684549  0.44590711  0.92420272  1  1.57565  0  0.241566  0.67408  0  4.132658  0
C  C168  1  0.44593935  0.88684719  0.57577789  1  1.574002  0  0.24166  0.673813  0  4.132902  0
C  C169  1  0.55409432  0.11314660  0.57578626  1  1.574366  0  0.241753  0.67405  0  4.132683  0
C  C170  1  0.88685705  0.44590965  0.07576376  1  1.572484  0  0.241766  0.674032  0  4.133035  0
C  C171  1  0.11313689  0.55406918  0.07578090  1  1.57455  0  0.241636  0.673608  0  4.132884  0
C  C172  1  0.55406626  0.11314177  0.42421979  1  1.574444  0  0.241773  0.673936  0  4.13304  0
C  C173  1  0.44591166  0.88687738  0.42421825  1  1.573717  0  0.241613  0.674087  0  4.132793  0
C  C174  1  0.16974670  0.56807243  0.87724633  1  -0.021456  0  -0.016475  -0.043002  0  3.962907  0
C  C175  1  0.83025409  0.43194349  0.87722722  1  -0.021752  0  -0.016495  -0.043161  0  3.963581  0
C  C176  1  0.43194613  0.83025969  0.62276499  1  -0.021465  0  -0.016644  -0.043182  0  3.962901  0
C  C177  1  0.56808533  0.16977053  0.62275663  1  -0.019602  0  -0.016455  -0.042849  0  3.962341  0
C  C178  1  0.83024379  0.43191528  0.12274211  1  -0.020263  0  -0.016509  -0.04287  0  3.961894  0
C  C179  1  0.16974773  0.56804730  0.12276685  1  -0.021072  0  -0.016562  -0.043103  0  3.962586  0
C  C180  1  0.56803684  0.16972199  0.37723109  1  -0.021781  0  -0.016434  -0.043221  0  3.963111  0
C  C181  1  0.43192821  0.83025379  0.37725150  1  -0.021824  0  -0.016504  -0.042786  0  3.96233  0
C  C182  1  0.28345506  0.59630501  0.79194700  1  -0.636043  0  -0.052725  -0.20336  0  3.98109  0
C  C183  1  0.71654947  0.40373699  0.79192232  1  -0.636732  0  -0.052835  -0.203386  0  3.981079  0
C  C184  1  0.40368719  0.71652353  0.70807058  1  -0.635584  0  -0.052757  -0.203375  0  3.981436  0
C  C185  1  0.59632678  0.28354340  0.70803076  1  -0.634877  0  -0.052639  -0.203151  0  3.980738  0
C  C186  1  0.71647132  0.40365561  0.20803180  1  -0.635095  0  -0.0527  -0.203094  0  3.981239  0
C  C187  1  0.28350435  0.59629636  0.20806692  1  -0.636825  0  -0.052861  -0.203581  0  3.981354  0
C  C188  1  0.59627023  0.28341821  0.29191184  1  -0.636394  0  -0.05287  -0.203559  0  3.981498  0
C  C189  1  0.40369853  0.71650648  0.29195969  1  -0.635499  0  -0.052707  -0.203379  0  3.981234  0
C  C190  1  0.21082114  0.64880758  0.85542602  1  -0.022162  0  -0.078984  -0.085281  0  3.958933  0
C  C191  1  0.78917619  0.35121119  0.85540037  1  -0.022175  0  -0.078855  -0.08507  0  3.958993  0
C  C192  1  0.35120260  0.78919054  0.64459272  1  -0.022531  0  -0.078928  -0.085294  0  3.958806  0
C  C193  1  0.64882821  0.21087852  0.64456641  1  -0.025186  0  -0.079095  -0.085402  0  3.958858  0
C  C194  1  0.78914548  0.35116833  0.14456443  1  -0.025634  0  -0.07901  -0.08519  0  3.958277  0
C  C195  1  0.21082806  0.64879092  0.14459571  1  -0.021567  0  -0.078814  -0.085127  0  3.958539  0
C  C196  1  0.64877409  0.21078848  0.35540095  1  -0.022346  0  -0.078907  -0.084993  0  3.958896  0
C  C197  1  0.35119274  0.78916551  0.35542324  1  -0.021953  0  -0.078866  -0.085287  0  3.958399  0
C  C198  1  0.26754837  0.66266814  0.81342717  1  -0.05541  0  -0.08316  -0.077316  0  4.026095  0
C  C199  1  0.73245145  0.33736645  0.81339471  1  -0.055343  0  -0.083214  -0.077409  0  4.025302  0
C  C200  1  0.33733414  0.73245083  0.68659310  1  -0.054868  0  -0.083229  -0.077447  0  4.025653  0
C  C201  1  0.66269390  0.26763661  0.68654804  1  -0.054296  0  -0.082988  -0.077276  0  4.02649  0
C  C202  1  0.73238804  0.33730072  0.18655484  1  -0.053598  0  -0.0831  -0.077424  0  4.026294  0
C  C203  1  0.26758040  0.66265476  0.18659012  1  -0.055645  0  -0.083156  -0.077204  0  4.025387  0
C  C204  1  0.66263259  0.26750971  0.31338932  1  -0.053934  0  -0.083286  -0.077648  0  4.025457  0
C  C205  1  0.33733581  0.73241570  0.31343236  1  -0.056209  0  -0.083204  -0.07716  0  4.025537  0
C  C206  1  0.23896299  0.51503632  0.81278664  1  -0.022522  0  -0.079264  -0.061425  0  4.006572  0
C  C207  1  0.76103934  0.48499881  0.81276656  1  -0.017857  0  -0.079458  -0.062147  0  4.00675  0
C  C208  1  0.48495396  0.76099724  0.68722581  1  -0.018697  0  -0.079368  -0.061857  0  4.006798  0
C  C209  1  0.51505999  0.23903903  0.68719244  1  -0.02325  0  -0.079277  -0.061521  0  4.006509  0
C  C210  1  0.76095711  0.48492050  0.18719216  1  -0.023112  0  -0.079434  -0.061918  0  4.006603  0
C  C211  1  0.23903529  0.51503533  0.18721666  1  -0.01906  0  -0.07945  -0.062017  0  4.006917  0
C  C212  1  0.51500907  0.23895316  0.31275660  1  -0.017781  0  -0.079511  -0.061972  0  4.006651  0
C  C213  1  0.48496165  0.76099786  0.31280122  1  -0.019845  0  -0.079228  -0.0617  0  4.006815  0
C  C214  1  0.18305827  0.50083357  0.85526036  1  -0.041116  0  -0.076172  -0.07835  0  3.938327  0
C  C215  1  0.81694034  0.49918233  0.85525107  1  -0.04538  0  -0.07599  -0.077868  0  3.938421  0
C  C216  1  0.49917005  0.81691231  0.64474579  1  -0.04501  0  -0.075844  -0.077671  0  3.938078  0
C  C217  1  0.50084798  0.18309705  0.64473513  1  -0.041611  0  -0.076142  -0.078356  0  3.938522  0
C  C218  1  0.81689260  0.49913969  0.14472326  1  -0.040438  0  -0.076086  -0.078215  0  3.938073  0
C  C219  1  0.18311306  0.50082455  0.14473938  1  -0.049478  0  -0.075851  -0.077498  0  3.938106  0
C  C220  1  0.50080106  0.18305350  0.35524828  1  -0.044621  0  -0.07588  -0.07757  0  3.937902  0
C  C221  1  0.49916430  0.81692560  0.35527099  1  -0.043467  0  -0.076173  -0.078497  0  3.938372  0
C  C222  1  0.36702403  0.53694560  0.69826031  1  -0.642731  0  -0.059105  -0.213425  0  3.963277  0
C  C223  1  0.63303622  0.46315551  0.69823763  1  -0.641901  0  -0.058641  -0.212434  0  3.963048  0
C  C224  1  0.46303340  0.63297235  0.80176597  1  -0.642894  0  -0.059215  -0.213377  0  3.964079  0
C  C225  1  0.53696681  0.36707320  0.80173366  1  -0.643153  0  -0.059387  -0.213255  0  3.963002  0
C  C226  1  0.63295037  0.46300274  0.30174018  1  -0.644002  0  -0.059208  -0.213147  0  3.963333  0
C  C227  1  0.36699472  0.53690131  0.30176086  1  -0.641748  0  -0.058851  -0.212527  0  3.962804  0
C  C228  1  0.53687436  0.36695011  0.19823131  1  -0.64406  0  -0.05869  -0.21238  0  3.963331  0
C  C229  1  0.46311065  0.63300157  0.19827928  1  -0.642976  0  -0.059148  -0.212933  0  3.962906  0
C  C230  1  0.34226767  0.34763777  0.57953119  1  1.516769  0  0.196085  0.593221  0  4.181783  0
C  C231  1  0.65779717  0.65248830  0.57951525  1  1.521199  0  0.196495  0.594602  0  4.181589  0
C  C232  1  0.65235479  0.65768198  0.92049332  1  1.515985  0  0.196244  0.59346  0  4.181506  0
C  C233  1  0.34766415  0.34234046  0.92048071  1  1.516501  0  0.196504  0.593872  0  4.180006  0
C  C234  1  0.65771936  0.65230905  0.42047694  1  1.51164  0  0.19616  0.593589  0  4.181768  0
C  C235  1  0.34219129  0.34751628  0.42046797  1  1.516795  0  0.196216  0.593548  0  4.183105  0
C  C236  1  0.34754905  0.34225711  0.07952686  1  1.516522  0  0.196249  0.593682  0  4.18287  0
C  C237  1  0.65244281  0.65775250  0.07955915  1  1.51645  0  0.196203  0.593125  0  4.18284  0
C  C238  1  0.34915393  0.41239404  0.62070185  1  -0.004206  0  -0.004275  0.010845  0  3.947159  0
C  C239  1  0.65094339  0.58775851  0.62070159  1  -0.004609  0  -0.004367  0.010925  0  3.945877  0
C  C240  1  0.58758982  0.65080170  0.87932220  1  -0.002856  0  -0.004169  0.01102  0  3.946331  0
C  C241  1  0.41241917  0.34921749  0.87930809  1  -0.004517  0  -0.004079  0.011063  0  3.946389  0
C  C242  1  0.65082868  0.58755376  0.37930266  1  -0.002037  0  -0.004  0.011367  0  3.946567  0
C  C243  1  0.34908701  0.41228665  0.37929730  1  -0.004332  0  -0.004055  0.011518  0  3.945571  0
C  C244  1  0.41227417  0.34907367  0.12071244  1  -0.004409  0  -0.004287  0.011269  0  3.945789  0
C  C245  1  0.58768197  0.65089472  0.12072455  1  -0.004925  0  -0.004071  0.011372  0  3.945566  0
C  C246  1  0.35940359  0.55089135  0.64319788  1  -0.041551  0  -0.076716  -0.04676  0  3.993161  0
C  C247  1  0.64092489  0.44933453  0.64318728  1  -0.039641  0  -0.077122  -0.047544  0  3.993344  0
C  C248  1  0.44909200  0.64059078  0.85682643  1  -0.04048  0  -0.076542  -0.046944  0  3.993047  0
C  C249  1  0.55092949  0.35948551  0.85679844  1  -0.040031  0  -0.076506  -0.046682  0  3.992613  0
C  C250  1  0.64047593  0.44901345  0.35680623  1  -0.039839  0  -0.076444  -0.046502  0  3.992344  0
C  C251  1  0.35917963  0.55074768  0.35681562  1  -0.042566  0  -0.077073  -0.047073  0  3.992754  0
C  C252  1  0.55070653  0.35910661  0.14317809  1  -0.035371  0  -0.077179  -0.047424  0  3.993864  0
C  C253  1  0.44924024  0.64080601  0.14322415  1  -0.04144  0  -0.07697  -0.046589  0  3.992215  0
C  C254  1  0.35024860  0.48956136  0.60486134  1  -0.028606  0  -0.07965  -0.098276  0  3.950313  0
C  C255  1  0.65018546  0.51072815  0.60487023  1  -0.033904  0  -0.079256  -0.098058  0  3.949709  0
C  C256  1  0.51043946  0.64973875  0.89516242  1  -0.029921  0  -0.079775  -0.098397  0  3.949768  0
C  C257  1  0.48960326  0.35034639  0.89514215  1  -0.029043  0  -0.079583  -0.098401  0  3.949548  0
C  C258  1  0.64962333  0.51034596  0.39514880  1  -0.028599  0  -0.079668  -0.098803  0  3.949771  0
C  C259  1  0.34995241  0.48936416  0.39513709  1  -0.030718  0  -0.07967  -0.098961  0  3.950214  0
C  C260  1  0.48931997  0.34987811  0.10486419  1  -0.033352  0  -0.079497  -0.098611  0  3.950201  0
C  C261  1  0.51060367  0.65002544  0.10489128  1  -0.031492  0  -0.079489  -0.098917  0  3.949987  0
C  C262  1  0.35544403  0.39680178  0.67521072  1  -0.082931  0  -0.088836  -0.114046  0  3.970985  0
C  C263  1  0.64424485  0.60317135  0.67519029  1  -0.078212  0  -0.088796  -0.113136  0  3.969429  0
C  C264  1  0.60317621  0.64451240  0.82481452  1  -0.0824  0  -0.089007  -0.113926  0  3.969806  0
C  C265  1  0.39680720  0.35546219  0.82479490  1  -0.083885  0  -0.088925  -0.114254  0  3.970112  0
C  C266  1  0.64464474  0.60319833  0.32479339  1  -0.085724  0  -0.088932  -0.114046  0  3.970033  0
C  C267  1  0.35566981  0.39683575  0.32480458  1  -0.077519  0  -0.088694  -0.113345  0  3.969358  0
C  C268  1  0.39683464  0.35569425  0.17520164  1  -0.078924  0  -0.088656  -0.113205  0  3.969765  0
C  C269  1  0.60316331  0.64433877  0.17522006  1  -0.077615  0  -0.088811  -0.113546  0  3.969495  0
C  C270  1  0.36433640  0.45856889  0.71320979  1  -0.073127  0  -0.086115  -0.06656  0  4.032594  0
C  C271  1  0.63544497  0.54141352  0.71319159  1  -0.072708  0  -0.08612  -0.067151  0  4.032463  0
C  C272  1  0.54139649  0.63564122  0.78681838  1  -0.07124  0  -0.086076  -0.066635  0  4.03214  0
C  C273  1  0.45857682  0.36435206  0.78679147  1  -0.071812  0  -0.086125  -0.066856  0  4.032068  0
C  C274  1  0.63572918  0.54141227  0.28679593  1  -0.068824  0  -0.086422  -0.067141  0  4.032685  0
C  C275  1  0.36450614  0.45861013  0.28681011  1  -0.077031  0  -0.086196  -0.067281  0  4.033085  0
C  C276  1  0.45860037  0.36449837  0.21319055  1  -0.075396  0  -0.086347  -0.067725  0  4.033995  0
C  C277  1  0.54140594  0.63549466  0.21322028  1  -0.077795  0  -0.08612  -0.067202  0  4.03345  0
O  O278  1  0.85720135  0.69055810  0.05806138  1  -1.221875  0  -0.440554  -0.76118  0  2.363017  0
O  O279  1  0.14278087  0.30935855  0.05802869  1  -1.221902  0  -0.440452  -0.761195  0  2.362883  0
O  O280  1  0.30938681  0.14279556  0.44196945  1  -1.221768  0  -0.440552  -0.7614  0  2.362772  0
O  O281  1  0.69003477  0.85702624  0.44177454  1  -1.223085  0  -0.440484  -0.761302  0  2.361525  0
O  O282  1  0.14295211  0.30987801  0.94181377  1  -1.223256  0  -0.44043  -0.761239  0  2.361783  0
O  O283  1  0.85706534  0.69020926  0.94185169  1  -1.222958  0  -0.440434  -0.761575  0  2.362088  0
O  O284  1  0.69086767  0.85730261  0.55797038  1  -1.235124  0  -0.440778  -0.761827  0  2.363115  0
O  O285  1  0.30978766  0.14292017  0.55818457  1  -1.221913  0  -0.440388  -0.761451  0  2.361555  0
O  O286  1  0.99266399  0.71120694  0.05931159  1  -1.18718  0  -0.390861  -0.6595  0  2.250221  0
O  O287  1  0.00736146  0.28882789  0.05928730  1  -1.187594  0  -0.390998  -0.659523  0  2.250311  0
O  O288  1  0.28880937  0.00736916  0.44072092  1  -1.187643  0  -0.391139  -0.659728  0  2.25057  0
O  O289  1  0.71118224  0.99261940  0.44071753  1  -1.188061  0  -0.391271  -0.659503  0  2.250777  0
O  O290  1  0.00738614  0.28881457  0.94070015  1  -1.187614  0  -0.391058  -0.659562  0  2.250308  0
O  O291  1  0.99258550  0.71116200  0.94073408  1  -1.187276  0  -0.391391  -0.659936  0  2.250741  0
O  O292  1  0.71123500  0.99266420  0.55928721  1  -1.188245  0  -0.390948  -0.659718  0  2.250256  0
O  O293  1  0.28881069  0.00737850  0.55929823  1  -1.188043  0  -0.390944  -0.659516  0  2.250317  0
O  O294  1  0.10073590  0.61605043  0.94230994  1  -1.186162  0  -0.405467  -0.670523  0  2.26385  0
O  O295  1  0.89921069  0.38390511  0.94228915  1  -1.18605  0  -0.405127  -0.670215  0  2.263303  0
O  O296  1  0.38394973  0.89922344  0.55767913  1  -1.185417  0  -0.405252  -0.670314  0  2.263238  0
O  O297  1  0.61607000  0.10074842  0.55769444  1  -1.18644  0  -0.405274  -0.670247  0  2.263663  0
O  O298  1  0.89924647  0.38392643  0.05767408  1  -1.185178  0  -0.40531  -0.670318  0  2.26375  0
O  O299  1  0.10074908  0.61605933  0.05770371  1  -1.186063  0  -0.405069  -0.670008  0  2.26354  0
O  O300  1  0.61606343  0.10076871  0.44230931  1  -1.186012  0  -0.405362  -0.670171  0  2.26347  0
O  O301  1  0.38392590  0.89927245  0.44229440  1  -1.185222  0  -0.405335  -0.670254  0  2.263659  0
O  O302  1  0.07964545  0.48002126  0.94395229  1  -1.212527  0  -0.426519  -0.727225  0  2.379116  0
O  O303  1  0.92039996  0.51996104  0.94394423  1  -1.213773  0  -0.426497  -0.727345  0  2.378573  0
O  O304  1  0.52000387  0.92035676  0.55604770  1  -1.212311  0  -0.426357  -0.726991  0  2.378656  0
O  O305  1  0.48003270  0.07963666  0.55605014  1  -1.213311  0  -0.426353  -0.727317  0  2.378458  0
O  O306  1  0.92036259  0.51998016  0.05604137  1  -1.21229  0  -0.426388  -0.727136  0  2.378856  0
O  O307  1  0.07965748  0.48001269  0.05603176  1  -1.212241  0  -0.426439  -0.727019  0  2.378404  0
O  O308  1  0.48000179  0.07962708  0.44395239  1  -1.212385  0  -0.426396  -0.727055  0  2.378935  0
O  O309  1  0.51997885  0.92039940  0.44394513  1  -1.213041  0  -0.426352  -0.727285  0  2.379054  0
O  O310  1  0.26996601  0.30135041  0.55951377  1  -1.153038  0  -0.401504  -0.640261  0  2.12728  0
O  O311  1  0.72990612  0.69774392  0.55881056  1  -1.160074  0  -0.402529  -0.642118  0  2.12605  0
O  O312  1  0.69861128  0.72998192  0.94053793  1  -1.153515  0  -0.401579  -0.640591  0  2.127193  0
O  O313  1  0.30128632  0.27002624  0.94044836  1  -1.15381  0  -0.401578  -0.640332  0  2.126793  0
O  O314  1  0.73007559  0.69887496  0.44030313  1  -1.152317  0  -0.401092  -0.640039  0  2.127444  0
O  O315  1  0.27001558  0.30192839  0.44095091  1  -1.158465  0  -0.40206  -0.641255  0  2.127016  0
O  O316  1  0.30207318  0.27013112  0.05894031  1  -1.159001  0  -0.402179  -0.641508  0  2.127098  0
O  O317  1  0.69810849  0.72992633  0.05910419  1  -1.157243  0  -0.402069  -0.64109  0  2.1274  0
O  O318  1  0.40859015  0.33960415  0.56396704  1  -1.156318  0  -0.399188  -0.640248  0  2.093295  0
O  O319  1  0.59172055  0.66155428  0.56463119  1  -1.160334  0  -0.399161  -0.64083  0  2.094254  0
O  O320  1  0.66041640  0.59135541  0.93601673  1  -1.15544  0  -0.399194  -0.640322  0  2.093175  0
O  O321  1  0.33973806  0.40870116  0.93609005  1  -1.15592  0  -0.399487  -0.640747  0  2.092604  0
O  O322  1  0.59132532  0.66005865  0.43621424  1  -1.153039  0  -0.399518  -0.640837  0  2.09336  0
O  O323  1  0.40834798  0.33877504  0.43556615  1  -1.155354  0  -0.399207  -0.640433  0  2.095164  0
O  O324  1  0.33871818  0.40840995  0.06453212  1  -1.1565  0  -0.39926  -0.640564  0  2.094557  0
O  O325  1  0.66108707  0.59156789  0.06441302  1  -1.154441  0  -0.399175  -0.640222  0  2.094621  0
