# generated using pymatgen
data_Cu2H9C17N8
_symmetry_space_group_name_H-M   'P 1'
_cell_length_a   5.76762361
_cell_length_b   10.91316186
_cell_length_c   13.67227985
_cell_angle_alpha   93.87685426
_cell_angle_beta   100.96065197
_cell_angle_gamma   99.55469417
_symmetry_Int_Tables_number   1
_chemical_formula_structural   Cu2H9C17N8
_chemical_formula_sum   'Cu4 H18 C34 N16'
_cell_volume   828.77262350
_cell_formula_units_Z   2
loop_
 _symmetry_equiv_pos_site_id
 _symmetry_equiv_pos_as_xyz
  1  'x, y, z'
loop_
 _atom_site_type_symbol
 _atom_site_label
 _atom_site_symmetry_multiplicity
 _atom_site_fract_x
 _atom_site_fract_y
 _atom_site_fract_z
 _atom_site_occupancy
 _atom_site_pbe_bader_charge
 _atom_site_pbe_bader_spin_density
 _atom_site_pbe_cm5_charge
 _atom_site_pbe_ddec_charge
 _atom_site_pbe_ddec_spin_density
 _atom_site_pbe_ddec_sum_bond_order
 _atom_site_pbe_magmom
Cu  Cu0  1  0.50815558  0.91952293  0.38331538  1  0.694072  0  0.572498  0.278313  0  2.343044  0
Cu  Cu1  1  0.49183704  0.08047681  0.61668325  1  0.694072  0  0.572496  0.278304  0  2.34298  0
Cu  Cu2  1  0.91713893  0.75506483  0.28619334  1  0.690452  0  0.581561  0.285926  0  2.343402  0
Cu  Cu3  1  0.08285616  0.24493676  0.71380631  1  0.690431  0  0.581584  0.285959  0  2.34333  0
H  H4  1  0.83479682  0.51272878  0.22401285  1  0.091884  0  0.095209  0.090046  0  1.055464  0
H  H5  1  0.16519971  0.48727653  0.77598861  1  0.091849  0  0.095201  0.090033  0  1.05554  0
H  H6  1  0.87665138  0.30326047  0.15722996  1  0.072489  0  0.102653  0.113157  0  0.995304  0
H  H7  1  0.12335048  0.69674479  0.84277335  1  0.072707  0  0.102663  0.113172  0  0.995323  0
H  H8  1  0.16185711  0.25146570  0.97671700  1  0.060734  0  0.096143  0.093493  0  1.042709  0
H  H9  1  0.83814195  0.74853211  0.02328417  1  0.060722  0  0.096149  0.093501  0  1.042728  0
H  H10  1  0.12380334  0.46189999  0.04026913  1  0.093406  0  0.102895  0.099459  0  1.048387  0
H  H11  1  0.87619217  0.53809784  0.95973104  1  0.093529  0  0.102894  0.099454  0  1.048361  0
H  H12  1  0.73983310  0.16635770  0.92789328  1  0.073068  0  0.10038  0.106297  0  1.041175  0
H  H13  1  0.26017586  0.83364286  0.07211025  1  0.073122  0  0.100395  0.10633  0  1.041201  0
H  H14  1  0.92017738  0.93851541  0.09736079  1  0.062342  0  0.096059  0.0943  0  1.053759  0
H  H15  1  0.07983702  0.06148612  0.90263808  1  0.062387  0  0.096067  0.094295  0  1.053759  0
H  H16  1  0.73629063  0.97545119  0.24259599  1  0.093064  0  0.088151  0.075262  0  1.101532  0
H  H17  1  0.26371387  0.02454759  0.75740052  1  0.092985  0  0.088152  0.075256  0  1.101481  0
H  H18  1  0.38207877  0.22805538  0.39074050  1  0.102105  0  0.107525  0.11693  0  0.996519  0
H  H19  1  0.61791601  0.77194526  0.60925980  1  0.102081  0  0.107539  0.116937  0  0.996507  0
H  H20  1  0.56693131  0.18967270  0.24602631  1  0.088732  0  0.099952  0.105401  0  1.032754  0
H  H21  1  0.43307239  0.81032787  0.75397757  1  0.088759  0  0.099936  0.105363  0  1.032704  0
C  C22  1  0.42225515  0.61628174  0.18351427  1  0.927011  0  0.221156  0.252464  0  4.008693  0
C  C23  1  0.57773953  0.38371894  0.81648310  1  0.926877  0  0.221145  0.252414  0  4.008908  0
C  C24  1  0.47387095  0.50135258  0.13824715  1  -0.032409  0  -0.007537  0.017701  0  4.012341  0
C  C25  1  0.52613151  0.49864991  0.86175238  1  -0.032614  0  -0.007551  0.01767  0  4.012337  0
C  C26  1  0.68768936  0.45654353  0.16882937  1  0.015645  0  -0.083829  -0.09892  0  3.96969  0
C  C27  1  0.31230360  0.54345714  0.83116934  1  0.016041  0  -0.083795  -0.09886  0  3.969657  0
C  C28  1  0.71163239  0.33831139  0.13090695  1  -0.060423  0  -0.087732  -0.122807  0  3.952248  0
C  C29  1  0.28836697  0.66169203  0.86909460  1  -0.06067  0  -0.087768  -0.122852  0  3.952237  0
C  C30  1  0.51933486  0.26073759  0.06479774  1  -0.009861  0  -0.006748  0.069863  0  3.996693  0
C  C31  1  0.48067087  0.73926393  0.93520415  1  -0.009943  0  -0.006832  0.069655  0  3.996733  0
C  C32  1  0.31043469  0.30850643  0.03079271  1  -0.066073  0  -0.09186  -0.132286  0  3.990268  0
C  C33  1  0.68956859  0.69149323  0.96920889  1  -0.066012  0  -0.091784  -0.132138  0  3.990284  0
C  C34  1  0.28831655  0.42706413  0.06621175  1  -0.008648  0  -0.080311  -0.092779  0  3.970403  0
C  C35  1  0.71167962  0.57293558  0.93378786  1  -0.008652  0  -0.080306  -0.092759  0  3.970542  0
C  C36  1  0.51860588  0.12674560  0.03533492  1  -0.065681  0  -0.00283  0.032518  0  3.956486  0
C  C37  1  0.48139987  0.87325591  0.96466770  1  -0.065626  0  -0.002807  0.032586  0  3.95655  0
C  C38  1  0.63781199  0.09265198  0.96076256  1  -0.029942  0  -0.088134  -0.16269  0  3.930988  0
C  C39  1  0.36219866  0.90734859  0.03923890  1  -0.030037  0  -0.088144  -0.162747  0  3.931097  0
C  C40  1  0.37819660  0.03227845  0.07651605  1  0.018351  0  -0.004415  0.029949  0  3.950668  0
C  C41  1  0.62181407  0.96772211  0.92348615  1  0.018316  0  -0.00445  0.029856  0  3.950657  0
C  C42  1  0.25904222  0.06038528  0.16030846  1  0.091497  0  -0.00898  0.066673  0  3.985863  0
C  C43  1  0.74096873  0.93961157  0.83969060  1  0.091476  0  -0.008967  0.066719  0  3.985846  0
C  C44  1  0.02449224  0.00093842  0.16186744  1  -0.07709  0  -0.093035  -0.128089  0  3.986623  0
C  C45  1  0.97551385  0.99905937  0.83813351  1  -0.077122  0  -0.093007  -0.128088  0  3.986668  0
C  C46  1  0.91996265  0.02154471  0.24410473  1  -0.103852  0  -0.102583  -0.136932  0  4.026889  0
C  C47  1  0.08003733  0.97845127  0.75589200  1  -0.103834  0  -0.102599  -0.136958  0  4.026833  0
C  C48  1  0.04812680  0.10306181  0.32794260  1  0.041786  0  -0.011863  0.016435  0  4.02608  0
C  C49  1  0.95187042  0.89693603  0.67205624  1  0.041763  0  -0.011889  0.016459  0  4.026136  0
C  C50  1  0.28102584  0.16504927  0.32592572  1  -0.047755  0  -0.088952  -0.111132  0  3.972164  0
C  C51  1  0.71897041  0.83495042  0.67407609  1  -0.04731  0  -0.088946  -0.111123  0  3.972256  0
C  C52  1  0.38395982  0.14342963  0.24408924  1  -0.136303  0  -0.091235  -0.124743  0  3.989014  0
C  C53  1  0.61605120  0.85657187  0.75591304  1  -0.136689  0  -0.091216  -0.124649  0  3.989047  0
C  C54  1  0.95821107  0.12248423  0.41955121  1  0.913184  0  0.215251  0.24924  0  4.005144  0
C  C55  1  0.04178226  0.87751270  0.58044656  1  0.91313  0  0.215155  0.248989  0  4.005372  0
N  N56  1  0.57346267  0.71193535  0.24443123  1  -0.703592  0  -0.276367  -0.210396  0  3.573045  0
N  N57  1  0.42653277  0.28806718  0.75556851  1  -0.703182  0  -0.276333  -0.210367  0  3.573066  0
N  N58  1  0.42998055  0.78598505  0.27641747  1  -0.22653  0  -0.177168  -0.042788  0  3.597275  0
N  N59  1  0.57001310  0.21401749  0.72358141  1  -0.226957  0  -0.177151  -0.042806  0  3.597328  0
N  N60  1  0.20206778  0.73689139  0.23327966  1  -0.214722  0  -0.164833  -0.037615  0  3.670268  0
N  N61  1  0.79792582  0.26311116  0.76671775  1  -0.214679  0  -0.16483  -0.037567  0  3.670167  0
N  N62  1  0.19360153  0.63322932  0.17472049  1  -0.619077  0  -0.210274  -0.245741  0  3.214995  0
N  N63  1  0.80639067  0.36677417  0.82527761  1  -0.619036  0  -0.21033  -0.245775  0  3.215056  0
N  N64  1  0.08506960  0.20287001  0.49822234  1  -0.630921  0  -0.220132  -0.268004  0  3.202651  0
N  N65  1  0.91492665  0.79712502  0.50177772  1  -0.630763  0  -0.220018  -0.267777  0  3.202691  0
N  N66  1  0.95375906  0.19276274  0.56846752  1  -0.183696  0  -0.151561  -0.030416  0  3.657143  0
N  N67  1  0.04623753  0.80723322  0.43153262  1  -0.183939  0  -0.151583  -0.030527  0  3.65721  0
N  N68  1  0.75233223  0.10994796  0.53590854  1  -0.20374  0  -0.154195  -0.044396  0  3.538128  0
N  N69  1  0.24766534  0.89005081  0.46409039  1  -0.20312  0  -0.154162  -0.044355  0  3.538194  0
N  N70  1  0.75202955  0.06263948  0.44206926  1  -0.709562  0  -0.27488  -0.203681  0  3.576965  0
N  N71  1  0.24796446  0.93735932  0.55792868  1  -0.710006  0  -0.274884  -0.203615  0  3.576981  0
