# generated using pymatgen
data_AlH3C7SO8
_symmetry_space_group_name_H-M   'P 1'
_cell_length_a   6.68307661
_cell_length_b   14.52280041
_cell_length_c   16.75123417
_cell_angle_alpha   94.57016335
_cell_angle_beta   90.00042190
_cell_angle_gamma   89.99869090
_symmetry_Int_Tables_number   1
_chemical_formula_structural   AlH3C7SO8
_chemical_formula_sum   'Al4 H12 C28 S4 O32'
_cell_volume   1620.65503169
_cell_formula_units_Z   4
loop_
 _symmetry_equiv_pos_site_id
 _symmetry_equiv_pos_as_xyz
  1  'x, y, z'
loop_
 _atom_site_type_symbol
 _atom_site_label
 _atom_site_symmetry_multiplicity
 _atom_site_fract_x
 _atom_site_fract_y
 _atom_site_fract_z
 _atom_site_occupancy
 _atom_site_pbe_bader_charge
 _atom_site_pbe_bader_spin_density
 _atom_site_pbe_cm5_charge
 _atom_site_pbe_ddec_charge
 _atom_site_pbe_ddec_spin_density
 _atom_site_pbe_ddec_sum_bond_order
 _atom_site_pbe_magmom
Al  Al0  1  0.74952225  0.24937328  0.74763653  1  2.501027  0  0.40564  1.642146  0  2.567086  0
Al  Al1  1  0.25782690  0.74906417  0.24847495  1  2.500047  0  0.404932  1.634085  0  2.578142  0
Al  Al2  1  0.24952500  0.25062136  0.75235854  1  2.500946  0  0.405607  1.642008  0  2.567145  0
Al  Al3  1  0.75782415  0.75093244  0.25152637  1  2.500092  0  0.404858  1.63406  0  2.578285  0
H  H4  1  0.22697321  0.50623332  0.88797804  1  0.164815  0  0.125268  0.142484  0  0.980075  0
H  H5  1  0.75328659  0.49572952  0.11411273  1  0.139287  0  0.123092  0.137234  0  0.986227  0
H  H6  1  0.72697625  0.99376002  0.61201940  1  0.16484  0  0.125213  0.142313  0  0.980052  0
H  H7  1  0.25327912  0.00426865  0.38588617  1  0.13918  0  0.123049  0.13722  0  0.986179  0
H  H8  1  0.23355571  0.77799733  0.07137470  1  0.667606  0  0.322535  0.381633  0  0.938996  0
H  H9  1  0.40412199  0.36781164  0.96709659  1  0.655358  0  0.342656  0.390235  0  0.869407  0
H  H10  1  0.73355781  0.72199395  0.42862597  1  0.66769  0  0.322538  0.381659  0  0.938997  0
H  H11  1  0.90420946  0.13225040  0.53290729  1  0.656415  0  0.342647  0.390467  0  0.869344  0
H  H12  1  0.49843117  0.36182858  0.72288927  1  0.633052  0  0.360542  0.441498  0  0.835989  0
H  H13  1  0.51099118  0.63956595  0.20827997  1  0.631454  0  0.358307  0.442631  0  0.838029  0
H  H14  1  0.99844069  0.13816565  0.77710634  1  0.633123  0  0.360506  0.441437  0  0.836126  0
H  H15  1  0.01098005  0.86042897  0.29172082  1  0.631485  0  0.358375  0.442668  0  0.838086  0
C  C16  1  0.50170901  0.14157434  0.85129024  1  1.728187  0  0.284811  0.713959  0  4.160571  0
C  C17  1  0.51291829  0.85330380  0.14138742  1  1.663052  0  0.280812  0.704471  0  4.158592  0
C  C18  1  0.00170125  0.35842500  0.64871388  1  1.728227  0  0.284816  0.714076  0  4.160844  0
C  C19  1  0.01294637  0.64669603  0.35861458  1  1.662814  0  0.280651  0.704106  0  4.159061  0
C  C20  1  0.49500051  0.13912530  0.63375451  1  1.631446  0  0.271228  0.638051  0  4.116353  0
C  C21  1  0.50367735  0.86437146  0.36148308  1  1.598577  0  0.282802  0.661334  0  4.077543  0
C  C22  1  0.99496585  0.36087335  0.86623632  1  1.631716  0  0.271373  0.638179  0  4.115662  0
C  C23  1  0.00370630  0.63562434  0.13851889  1  1.598814  0  0.282829  0.661454  0  4.077548  0
C  C24  1  0.12609360  0.50266631  0.93874746  1  0.005769  0  -0.0684  -0.113443  0  3.936827  0
C  C25  1  0.85799233  0.49803048  0.06456688  1  0.035921  0  -0.058776  -0.074294  0  3.916953  0
C  C26  1  0.62609399  0.99731886  0.56124735  1  0.005921  0  -0.068418  -0.113227  0  3.936652  0
C  C27  1  0.35798293  0.00196803  0.43543224  1  0.036017  0  -0.058755  -0.074269  0  3.916854  0
C  C28  1  0.13322483  0.57181658  0.00149484  1  -0.186209  0  0.004069  -0.075193  0  3.886019  0
C  C29  1  0.85288360  0.42846261  0.00242879  1  -0.108311  0  0.000515  -0.092985  0  3.903572  0
C  C30  1  0.63320867  0.92817019  0.49850560  1  -0.186368  0  0.004004  -0.075421  0  3.886592  0
C  C31  1  0.35288378  0.07154140  0.49756973  1  -0.10826  0  0.000605  -0.092868  0  3.903363  0
C  C32  1  0.99950617  0.56911848  0.06600601  1  0.008423  0  0.008033  -0.019923  0  3.912958  0
C  C33  1  0.98913960  0.42968833  0.93840406  1  0.003094  0  0.010657  -0.007123  0  3.897926  0
C  C34  1  0.49949562  0.93087657  0.43399763  1  0.008227  0  0.007975  -0.020028  0  3.913485  0
C  C35  1  0.48915698  0.07031225  0.56159214  1  0.003337  0  0.01075  -0.007052  0  3.897921  0
C  C36  1  0.01738061  0.58656813  0.42246647  1  0.195811  0  -0.002616  -0.157266  0  3.842997  0
C  C37  1  0.00688229  0.42063706  0.58609696  1  0.082596  0  0.013161  -0.122386  0  3.819179  0
C  C38  1  0.51735271  0.91344110  0.07754093  1  0.195762  0  -0.002595  -0.157255  0  3.843007  0
C  C39  1  0.50690642  0.07936848  0.91390778  1  0.083489  0  0.013207  -0.122246  0  3.819203  0
C  C40  1  0.01528316  0.53303765  0.47521099  1  -0.280017  0  0.018571  0.072957  0  4.176638  0
C  C41  1  0.01156987  0.47411693  0.53340986  1  -0.134576  0  0.011922  0.049626  0  4.181475  0
C  C42  1  0.51526497  0.96697457  0.02479880  1  -0.280516  0  0.018503  0.07287  0  4.176884  0
C  C43  1  0.51153790  0.02588325  0.96658949  1  -0.134553  0  0.01191  0.049569  0  4.181482  0
S  S44  1  0.31465584  0.66160009  0.98883442  1  3.104827  0  0.541186  1.153711  0  6.031319  0
S  S45  1  0.68893177  0.33328336  0.01729962  1  3.091544  0  0.545997  1.14819  0  6.012461  0
S  S46  1  0.81464849  0.83838645  0.51116620  1  3.104282  0  0.541238  1.153996  0  6.030976  0
S  S47  1  0.18901654  0.16673761  0.48267761  1  3.090523  0  0.545676  1.147356  0  6.013413  0
O  O48  1  0.32907215  0.16229549  0.66539861  1  -1.241317  0  -0.223011  -0.567662  0  2.383964  0
O  O49  1  0.67461104  0.83774204  0.33586881  1  -1.255121  0  -0.228027  -0.599522  0  2.414426  0
O  O50  1  0.82904107  0.33769268  0.83459483  1  -1.242106  0  -0.223095  -0.56779  0  2.38382  0
O  O51  1  0.17460918  0.66224951  0.16413592  1  -1.255516  0  -0.228013  -0.599626  0  2.41513  0
O  O52  1  0.66922384  0.16328259  0.82215640  1  -1.23383  0  -0.218635  -0.575036  0  2.306522  0
O  O53  1  0.33819281  0.82428662  0.16072697  1  -1.231811  0  -0.228028  -0.593167  0  2.322235  0
O  O54  1  0.16922972  0.33671078  0.67783850  1  -1.233628  0  -0.218677  -0.57512  0  2.306602  0
O  O55  1  0.83820008  0.67571077  0.33926914  1  -1.231266  0  -0.228071  -0.593202  0  2.32218  0
O  O56  1  0.66902776  0.16305475  0.65832683  1  -1.237214  0  -0.228474  -0.579595  0  2.342508  0
O  O57  1  0.33743383  0.84157449  0.32896602  1  -1.252258  0  -0.220192  -0.572111  0  2.342209  0
O  O58  1  0.16899784  0.33695450  0.84166090  1  -1.236713  0  -0.228573  -0.579627  0  2.342225  0
O  O59  1  0.83743580  0.65842418  0.17103668  1  -1.252123  0  -0.220248  -0.572208  0  2.34165  0
O  O60  1  0.82974591  0.33193988  0.67006491  1  -1.233411  0  -0.220115  -0.575581  0  2.291044  0
O  O61  1  0.17798185  0.66512051  0.32653587  1  -1.219444  0  -0.213284  -0.550018  0  2.28994  0
O  O62  1  0.32973943  0.16806309  0.82993993  1  -1.233378  0  -0.220167  -0.575557  0  2.290703  0
O  O63  1  0.67797628  0.83487716  0.17346827  1  -1.219225  0  -0.213409  -0.550347  0  2.289728  0
O  O64  1  0.49998755  0.30587256  0.75100783  1  -1.429021  0  -0.444852  -0.984457  0  2.174542  0
O  O65  1  0.50865141  0.69358677  0.24656902  1  -1.428389  0  -0.446959  -0.985436  0  2.155679  0
O  O66  1  0.00000063  0.19412282  0.74899030  1  -1.429096  0  -0.444782  -0.984376  0  2.174621  0
O  O67  1  0.00864234  0.80640945  0.25343056  1  -1.428388  0  -0.447047  -0.985501  0  2.155701  0
O  O68  1  0.48280918  0.65069576  0.04133167  1  -1.296163  0  -0.311147  -0.544302  0  2.18247  0
O  O69  1  0.34555097  0.66183286  0.90415152  1  -1.260936  0  -0.306364  -0.506423  0  2.101739  0
O  O70  1  0.19336328  0.75238999  0.01614690  1  -1.242821  0  -0.351093  -0.519439  0  2.203388  0
O  O71  1  0.80263189  0.25054317  0.99950448  1  -1.274879  0  -0.294463  -0.498096  0  2.126463  0
O  O72  1  0.59015860  0.35335890  0.09311507  1  -1.295425  0  -0.317548  -0.535355  0  2.108475  0
O  O73  1  0.52490385  0.33475093  0.94785028  1  -1.201315  0  -0.334464  -0.504958  0  2.280419  0
O  O74  1  0.98280529  0.84929205  0.45867372  1  -1.295979  0  -0.311083  -0.544301  0  2.182346  0
O  O75  1  0.84553628  0.83815274  0.59584976  1  -1.261095  0  -0.306523  -0.506604  0  2.10142  0
O  O76  1  0.69335613  0.74760343  0.48385008  1  -1.242517  0  -0.351019  -0.519441  0  2.203698  0
O  O77  1  0.30282593  0.24944424  0.50044699  1  -1.274723  0  -0.294457  -0.4977  0  2.126869  0
O  O78  1  0.09023099  0.14667365  0.40686496  1  -1.295407  0  -0.31751  -0.535093  0  2.108652  0
O  O79  1  0.02498649  0.16532512  0.55213662  1  -1.201466  0  -0.334174  -0.505057  0  2.280189  0
