# generated using pymatgen
data_CdH11C11(NO2)2
_symmetry_space_group_name_H-M   'P 1'
_cell_length_a   7.66641515
_cell_length_b   8.29415462
_cell_length_c   18.02790000
_cell_angle_alpha   97.67134294
_cell_angle_beta   90.00000000
_cell_angle_gamma   90.00000000
_symmetry_Int_Tables_number   1
_chemical_formula_structural   CdH11C11(NO2)2
_chemical_formula_sum   'Cd4 H44 C44 N8 O16'
_cell_volume   1136.07030012
_cell_formula_units_Z   4
loop_
 _symmetry_equiv_pos_site_id
 _symmetry_equiv_pos_as_xyz
  1  'x, y, z'
loop_
 _atom_site_type_symbol
 _atom_site_label
 _atom_site_symmetry_multiplicity
 _atom_site_fract_x
 _atom_site_fract_y
 _atom_site_fract_z
 _atom_site_occupancy
 _atom_site_hle17_bader_spin_density
 _atom_site_hle17_ddec_charge
 _atom_site_hle17_ddec_spin_density
 _atom_site_hle17_ddec_sum_bond_order
 _atom_site_hle17_magmom
 _atom_site_hse06_10hf_bader_spin_density
 _atom_site_hse06_10hf_ddec_charge
 _atom_site_hse06_10hf_ddec_spin_density
 _atom_site_hse06_10hf_ddec_sum_bond_order
 _atom_site_hse06_10hf_magmom
 _atom_site_hse06_bader_spin_density
 _atom_site_hse06_ddec_charge
 _atom_site_hse06_ddec_spin_density
 _atom_site_hse06_ddec_sum_bond_order
 _atom_site_hse06_magmom
 _atom_site_pbe_bader_charge
 _atom_site_pbe_bader_spin_density
 _atom_site_pbe_cm5_charge
 _atom_site_pbe_ddec_charge
 _atom_site_pbe_ddec_spin_density
 _atom_site_pbe_ddec_sum_bond_order
 _atom_site_pbe_magmom
Cd  Cd0  1  0.29545100  0.20476227  0.22189611  1  0  1.188855  0  1.66048  0  0  1.007457  0  2.113307  0  0  1.065007  0  2.056773  0  1.304758  0  0.775463  0.966329  0  2.152082  0
Cd  Cd1  1  0.79545131  0.29524244  0.27810559  1  0  1.188794  0  1.66061  0  0  1.007403  0  2.11342  0  0  1.064954  0  2.056881  0  1.304732  0  0.775457  0.966273  0  2.152195  0
Cd  Cd2  1  0.70454964  0.79523862  0.77810400  1  0  1.188797  0  1.660538  0  0  1.007391  0  2.113367  0  0  1.064943  0  2.056829  0  1.304793  0  0.775439  0.966262  0  2.152142  0
Cd  Cd3  1  0.20454801  0.70475845  0.72189452  1  0  1.188908  0  1.660504  0  0  1.007526  0  2.113327  0  0  1.065073  0  2.05679  0  1.304731  0  0.775494  0.966394  0  2.152106  0
H  H4  1  0.37183481  0.13930666  0.03296663  1  0  0.110548  0  0.970816  0  0  0.118869  0  1.03313  0  0  0.121751  0  1.031627  0  0.140197  0  0.117182  0.116729  0  1.034339  0
H  H5  1  0.87183382  0.36069926  0.46703404  1  0  0.110564  0  0.970886  0  0  0.118887  0  1.0332  0  0  0.121745  0  1.031724  0  0.140247  0  0.117184  0.116766  0  1.034387  0
H  H6  1  0.62816583  0.86069666  0.96703308  1  0  0.1106  0  0.970835  0  0  0.118909  0  1.033162  0  0  0.121787  0  1.031663  0  0.140251  0  0.117186  0.116769  0  1.034372  0
H  H7  1  0.12816551  0.63930163  0.53296607  1  0  0.110597  0  0.970812  0  0  0.118916  0  1.033124  0  0  0.121796  0  1.031621  0  0.14024  0  0.1172  0.116777  0  1.034332  0
H  H8  1  0.26985755  0.85602873  0.94079329  1  0  0.12982  0  0.950697  0  0  0.138708  0  1.012361  0  0  0.141605  0  1.010885  0  0.167219  0  0.127424  0.136617  0  1.013454  0
H  H9  1  0.76985526  0.64397321  0.55920886  1  0  0.129806  0  0.950692  0  0  0.138728  0  1.012316  0  0  0.141625  0  1.010838  0  0.167195  0  0.127426  0.136627  0  1.013435  0
H  H10  1  0.73014048  0.14396972  0.05920889  1  0  0.129834  0  0.95068  0  0  0.138743  0  1.01233  0  0  0.14164  0  1.010852  0  0.167175  0  0.127448  0.136649  0  1.013428  0
H  H11  1  0.23014407  0.35602890  0.44079188  1  0  0.129781  0  0.950753  0  0  0.138713  0  1.012373  0  0  0.141608  0  1.010897  0  0.167198  0  0.127424  0.136619  0  1.013472  0
H  H12  1  0.04743938  0.86734271  0.15747170  1  0  0.105134  0  0.96061  0  0  0.109011  0  1.034821  0  0  0.112346  0  1.030023  0  0.161666  0  0.136103  0.106491  0  1.03837  0
H  H13  1  0.54743448  0.63266410  0.34253185  1  0  0.105181  0  0.960497  0  0  0.109003  0  1.034792  0  0  0.112335  0  1.029992  0  0.162165  0  0.136117  0.106486  0  1.038334  0
H  H14  1  0.95256255  0.13266670  0.84253226  1  0  0.105165  0  0.960632  0  0  0.109026  0  1.034873  0  0  0.112353  0  1.030072  0  0.162178  0  0.136127  0.106511  0  1.038408  0
H  H15  1  0.45256485  0.36733922  0.65746896  1  0  0.105136  0  0.960599  0  0  0.108988  0  1.034846  0  0  0.112321  0  1.030051  0  0.162187  0  0.136124  0.106474  0  1.038381  0
H  H16  1  0.11270065  0.57444214  0.12910861  1  0  0.109726  0  0.95325  0  0  0.119318  0  1.016094  0  0  0.121821  0  1.015119  0  0.100959  0  0.110884  0.117482  0  1.016892  0
H  H17  1  0.61270097  0.92555737  0.37089505  1  0  0.109819  0  0.953231  0  0  0.119441  0  1.01602  0  0  0.121941  0  1.015054  0  0.100584  0  0.110919  0.117606  0  1.016814  0
H  H18  1  0.88729867  0.42555996  0.87089268  1  0  0.109794  0  0.953198  0  0  0.119393  0  1.01604  0  0  0.121894  0  1.015071  0  0.101005  0  0.110919  0.117558  0  1.016835  0
H  H19  1  0.38729575  0.07444352  0.62910506  1  0  0.109787  0  0.953243  0  0  0.119401  0  1.01604  0  0  0.121902  0  1.015074  0  0.101042  0  0.110912  0.117566  0  1.016835  0
H  H20  1  0.00707893  0.69853090  0.90782993  1  0  0.122771  0  0.941727  0  0  0.132278  0  1.002858  0  0  0.135314  0  1.001412  0  0.107398  0  0.115011  0.130082  0  1.004009  0
H  H21  1  0.50707794  0.80146861  0.59217373  1  0  0.122766  0  0.941631  0  0  0.132289  0  1.002741  0  0  0.135328  0  1.001293  0  0.107379  0  0.11498  0.130088  0  1.003902  0
H  H22  1  0.99291910  0.30146512  0.09217432  1  0  0.122797  0  0.941593  0  0  0.132299  0  1.002727  0  0  0.135338  0  1.00128  0  0.10739  0  0.114991  0.130098  0  1.003889  0
H  H23  1  0.49292139  0.19853106  0.40782741  1  0  0.122753  0  0.941677  0  0  0.132282  0  1.002772  0  0  0.135321  0  1.001324  0  0.107329  0  0.114986  0.13008  0  1.003935  0
H  H24  1  0.93091489  0.89915201  0.41601202  1  0  0.08935  0  0.950636  0  0  0.103235  0  1.014825  0  0  0.105156  0  1.014453  0  0.040798  0  0.090132  0.101824  0  1.015198  0
H  H25  1  0.43091196  0.60084507  0.08398650  1  0  0.089372  0  0.950593  0  0  0.103228  0  1.014806  0  0  0.105164  0  1.01442  0  0.041121  0  0.090135  0.101817  0  1.015176  0
H  H26  1  0.06908966  0.10084766  0.58398636  1  0  0.08935  0  0.950602  0  0  0.1032  0  1.014814  0  0  0.105124  0  1.01444  0  0.041116  0  0.090131  0.101788  0  1.015186  0
H  H27  1  0.56908606  0.39915096  0.91601165  1  0  0.089365  0  0.950611  0  0  0.103269  0  1.014789  0  0  0.105209  0  1.0144  0  0.040786  0  0.090133  0.101857  0  1.015158  0
H  H28  1  0.12926120  0.97976712  0.45220127  1  0  0.09829  0  0.942648  0  0  0.112757  0  1.005061  0  0  0.114354  0  1.005744  0  0.034964  0  0.097021  0.111626  0  1.004648  0
H  H29  1  0.62926151  0.52023604  0.04779817  1  0  0.09828  0  0.942662  0  0  0.112736  0  1.005068  0  0  0.114333  0  1.005754  0  0.034961  0  0.09702  0.111596  0  1.004663  0
H  H30  1  0.87074074  0.02023620  0.54779788  1  0  0.098258  0  0.942691  0  0  0.112728  0  1.00507  0  0  0.114324  0  1.005756  0  0.034955  0  0.097003  0.111595  0  1.004657  0
H  H31  1  0.37073912  0.47976485  0.95220027  1  0  0.098255  0  0.942742  0  0  0.112731  0  1.005136  0  0  0.114328  0  1.005823  0  0.035002  0  0.097006  0.11158  0  1.004742  0
H  H32  1  0.29228655  0.79189066  0.35366206  1  0  0.063305  0  0.957005  0  0  0.079017  0  1.025292  0  0  0.07976  0  1.025421  0  0.040291  0  0.08654  0.078392  0  1.025365  0
H  H33  1  0.79228425  0.70810763  0.14633764  1  0  0.063251  0  0.957052  0  0  0.078998  0  1.025337  0  0  0.079742  0  1.025475  0  0.040305  0  0.086528  0.078371  0  1.025415  0
H  H34  1  0.70771278  0.20810658  0.64633672  1  0  0.063258  0  0.956993  0  0  0.078999  0  1.025299  0  0  0.079746  0  1.025429  0  0.040286  0  0.086525  0.078373  0  1.025375  0
H  H35  1  0.20771247  0.29188961  0.85366224  1  0  0.063299  0  0.957025  0  0  0.079021  0  1.025302  0  0  0.079761  0  1.025423  0  0.040292  0  0.086535  0.078395  0  1.025377  0
H  H36  1  0.17777931  0.69015126  0.41829882  1  0  0.056622  0  0.9532  0  0  0.075855  0  1.015808  0  0  0.076123  0  1.017069  0  0.018173  0  0.08499  0.075613  0  1.015011  0
H  H37  1  0.67777441  0.80984825  0.08170151  1  0  0.056627  0  0.953176  0  0  0.075886  0  1.01579  0  0  0.076158  0  1.017055  0  0.018193  0  0.085004  0.075645  0  1.014994  0
H  H38  1  0.82222263  0.30984841  0.58170177  1  0  0.05664  0  0.953176  0  0  0.075902  0  1.015793  0  0  0.076171  0  1.017054  0  0.018185  0  0.085019  0.075659  0  1.014998  0
H  H39  1  0.32222101  0.19015021  0.91829845  1  0  0.056614  0  0.953221  0  0  0.075845  0  1.015833  0  0  0.076106  0  1.017092  0  0.018165  0  0.084979  0.075602  0  1.015038  0
H  H40  1  0.06089287  0.72894725  0.25913577  1  0  0.105748  0  0.928875  0  0  0.122776  0  0.98707  0  0  0.124783  0  0.986199  0  0.060819  0  0.101215  0.121291  0  0.987831  0
H  H41  1  0.56088927  0.77105591  0.24086700  1  0  0.105741  0  0.928876  0  0  0.122799  0  0.987049  0  0  0.124805  0  0.986182  0  0.06083  0  0.101238  0.121314  0  0.987809  0
H  H42  1  0.93910516  0.27105121  0.74086585  1  0  0.10577  0  0.92883  0  0  0.122812  0  0.987018  0  0  0.124819  0  0.986143  0  0.060817  0  0.101251  0.121326  0  0.98778  0
H  H43  1  0.43910484  0.22894498  0.75913478  1  0  0.105735  0  0.92887  0  0  0.122778  0  0.987056  0  0  0.124787  0  0.986187  0  0.060811  0  0.101215  0.121291  0  0.987821  0
H  H44  1  0.92839089  0.64208025  0.32198179  1  0  0.093907  0  0.961187  0  0  0.107391  0  1.025402  0  0  0.108825  0  1.025997  0  0.047937  0  0.095043  0.106345  0  1.025085  0
H  H45  1  0.42839449  0.85792778  0.17802018  1  0  0.093846  0  0.961295  0  0  0.107367  0  1.025483  0  0  0.108806  0  1.026078  0  0.047937  0  0.095034  0.106322  0  1.025165  0
H  H46  1  0.07160713  0.35792064  0.67801943  1  0  0.093845  0  0.961265  0  0  0.107374  0  1.025439  0  0  0.108809  0  1.026033  0  0.047971  0  0.095041  0.106329  0  1.025121  0
H  H47  1  0.57161006  0.14207920  0.82198031  1  0  0.093883  0  0.9612  0  0  0.107375  0  1.02542  0  0  0.108808  0  1.026016  0  0.047935  0  0.095037  0.106329  0  1.025102  0
C  C48  1  0.28938558  0.03934709  0.04423115  1  0  0.004006  0  3.745205  0  0  -0.02981  0  4.011715  0  0  -0.028057  0  4.032045  0  0.425434  0  -0.002226  -0.030966  0  3.998073  0
C  C49  1  0.78938459  0.46065153  0.45576963  1  0  0.003967  0  3.745242  0  0  -0.029866  0  4.011788  0  0  -0.028094  0  4.032133  0  0.425336  0  -0.002225  -0.031036  0  3.998133  0
C  C50  1  0.71061505  0.96065380  0.95577118  1  0  0.003846  0  3.745337  0  0  -0.029965  0  4.011869  0  0  -0.028212  0  4.032203  0  0.425468  0  -0.00228  -0.031121  0  3.998228  0
C  C51  1  0.21061474  0.53934571  0.54423137  1  0  0.003904  0  3.745274  0  0  -0.029913  0  4.0118  0  0  -0.028159  0  4.032131  0  0.42534  0  -0.002245  -0.03107  0  3.998157  0
C  C52  1  0.24062224  0.90074935  0.99871763  1  0  -0.055212  0  3.631223  0  0  -0.095284  0  3.889178  0  0  -0.09367  0  3.907138  0  0.240085  0  0.003742  -0.096385  0  3.877245  0
C  C53  1  0.74061734  0.59925138  0.50128499  1  0  -0.055169  0  3.631194  0  0  -0.095255  0  3.889154  0  0  -0.093641  0  3.907109  0  0.240094  0  0.003775  -0.096358  0  3.877216  0
C  C54  1  0.75938100  0.09924911  0.00128399  1  0  -0.055208  0  3.631332  0  0  -0.095297  0  3.889297  0  0  -0.093682  0  3.907257  0  0.240121  0  0.003738  -0.096397  0  3.87736  0
C  C55  1  0.25937938  0.40074951  0.49871456  1  0  -0.055104  0  3.631077  0  0  -0.095191  0  3.888996  0  0  -0.093577  0  3.906956  0  0.239767  0  0.003788  -0.096292  0  3.877061  0
C  C56  1  0.12729678  0.90064716  0.11235243  1  0  0.176737  0  3.639887  0  0  0.113819  0  3.912089  0  0  0.128913  0  3.922659  0  0.986175  0  0.147107  0.104035  0  3.904654  0
C  C57  1  0.62729188  0.59936087  0.38764953  1  0  0.176794  0  3.639762  0  0  0.113906  0  3.912003  0  0  0.129003  0  3.922569  0  0.985576  0  0.147117  0.104123  0  3.904568  0
C  C58  1  0.87270385  0.09935982  0.88764916  1  0  0.176757  0  3.639937  0  0  0.113832  0  3.912177  0  0  0.128938  0  3.922736  0  0.985478  0  0.14709  0.104049  0  3.904742  0
C  C59  1  0.37270744  0.40064610  0.61235095  1  0  0.176828  0  3.639896  0  0  0.113939  0  3.912102  0  0  0.129035  0  3.92267  0  0.985652  0  0.147148  0.104155  0  3.904666  0
C  C60  1  0.06171855  0.54317786  0.07270795  1  0  -0.119332  0  3.730523  0  0  -0.139699  0  3.98437  0  0  -0.142263  0  4.00415  0  0.041944  0  -0.078539  -0.137993  0  3.971183  0
C  C61  1  0.56172408  0.95682773  0.42729608  1  0  -0.119481  0  3.730703  0  0  -0.139852  0  3.98452  0  0  -0.142418  0  4.004303  0  0.042416  0  -0.078569  -0.138146  0  3.971336  0
C  C62  1  0.93827296  0.45682790  0.92729523  1  0  -0.119447  0  3.730665  0  0  -0.139829  0  3.984523  0  0  -0.142394  0  4.004306  0  0.041783  0  -0.078576  -0.138124  0  3.97134  0
C  C63  1  0.43828047  0.04317681  0.57270425  1  0  -0.119431  0  3.730534  0  0  -0.139787  0  3.984354  0  0  -0.142353  0  4.004132  0  0.04186  0  -0.078587  -0.138081  0  3.971169  0
C  C64  1  0.06733786  0.65493438  0.02104613  1  0  0.16132  0  3.788022  0  0  0.152981  0  4.035912  0  0  0.157293  0  4.059211  0  0.270687  0  0.095478  0.15002  0  4.0202  0
C  C65  1  0.56734600  0.84507486  0.47895869  1  0  0.161429  0  3.788256  0  0  0.153071  0  4.036161  0  0  0.157381  0  4.059462  0  0.27014  0  0.095529  0.150111  0  4.020446  0
C  C66  1  0.93265625  0.34507989  0.97895758  1  0  0.161403  0  3.788152  0  0  0.153044  0  4.036065  0  0  0.157354  0  4.059366  0  0.270374  0  0.095491  0.150084  0  4.020353  0
C  C67  1  0.43265854  0.15493211  0.52104235  1  0  0.161354  0  3.788082  0  0  0.152997  0  4.035993  0  0  0.157308  0  4.059294  0  0.270721  0  0.095508  0.150035  0  4.020281  0
C  C68  1  0.00601585  0.61176853  0.94810514  1  0  -0.109273  0  3.697182  0  0  -0.130117  0  3.947795  0  0  -0.132568  0  3.967503  0  -0.022522  0  -0.076961  -0.128457  0  3.934601  0
C  C69  1  0.50602530  0.88822855  0.55189338  1  0  -0.10939  0  3.697267  0  0  -0.130266  0  3.947925  0  0  -0.132718  0  3.967631  0  -0.022319  0  -0.077007  -0.128604  0  3.934726  0
C  C70  1  0.99397435  0.38823236  0.05189497  1  0  -0.109414  0  3.697254  0  0  -0.13026  0  3.947912  0  0  -0.132712  0  3.967618  0  -0.02257  0  -0.076979  -0.128598  0  3.934715  0
C  C71  1  0.49398186  0.11176869  0.44810373  1  0  -0.109325  0  3.697195  0  0  -0.130189  0  3.947839  0  0  -0.132642  0  3.967548  0  -0.022705  0  -0.076991  -0.128527  0  3.934643  0
C  C72  1  0.06564737  0.04727903  0.34613332  1  0  0.71239  0  3.856117  0  0  0.665088  0  4.154173  0  0  0.700006  0  4.146679  0  1.552934  0  0.204223  0.641278  0  4.158453  0
C  C73  1  0.56564769  0.45271107  0.15386360  1  0  0.712371  0  3.856078  0  0  0.665053  0  4.154151  0  0  0.699969  0  4.146654  0  1.552932  0  0.204226  0.641243  0  4.15843  0
C  C74  1  0.93435326  0.95271212  0.65386397  1  0  0.712368  0  3.85611  0  0  0.66502  0  4.154219  0  0  0.699937  0  4.146721  0  1.552934  0  0.204192  0.64121  0  4.158497  0
C  C75  1  0.43435295  0.54727887  0.84613306  1  0  0.712388  0  3.856157  0  0  0.665102  0  4.154196  0  0  0.700019  0  4.146705  0  1.552938  0  0.204213  0.641292  0  4.158472  0
C  C76  1  0.06688785  0.92085051  0.40050130  1  0  -0.264786  0  3.67024  0  0  -0.297187  0  3.916332  0  0  -0.303415  0  3.924429  0  -0.011075  0  -0.169523  -0.292811  0  3.910602  0
C  C77  1  0.56688425  0.57914778  0.09949840  1  0  -0.264728  0  3.670147  0  0  -0.297047  0  3.916227  0  0  -0.30328  0  3.924326  0  -0.011426  0  -0.169471  -0.29266  0  3.910492  0
C  C78  1  0.93311409  0.07914795  0.59949811  1  0  -0.264665  0  3.670249  0  0  -0.296958  0  3.916309  0  0  -0.303189  0  3.924409  0  -0.011425  0  -0.169417  -0.292577  0  3.910569  0
C  C79  1  0.43311377  0.42084946  0.90050038  1  0  -0.264759  0  3.670293  0  0  -0.297181  0  3.916375  0  0  -0.30343  0  3.924456  0  -0.011065  0  -0.169488  -0.292787  0  3.910643  0
C  C80  1  0.16107268  0.76285754  0.37219249  1  0  -0.054845  0  3.718306  0  0  -0.100562  0  3.976624  0  0  -0.0994  0  3.989941  0  0.003558  0  -0.1733  -0.101186  0  3.967339  0
C  C81  1  0.66106908  0.73714075  0.12780832  1  0  -0.05481  0  3.718296  0  0  -0.100639  0  3.976781  0  0  -0.099499  0  3.99014  0  0.003586  0  -0.173326  -0.101264  0  3.967493  0
C  C82  1  0.83892926  0.23713970  0.62780740  1  0  -0.054823  0  3.718254  0  0  -0.100679  0  3.976751  0  0  -0.099524  0  3.990076  0  0.003591  0  -0.173358  -0.101306  0  3.967469  0
C  C83  1  0.33892764  0.26285527  0.87219149  1  0  -0.05485  0  3.71835  0  0  -0.100578  0  3.976713  0  0  -0.099396  0  3.990011  0  0.003579  0  -0.173286  -0.101197  0  3.967413  0
C  C84  1  0.06557693  0.66197946  0.30793036  1  0  -0.259728  0  3.675388  0  0  -0.291971  0  3.91927  0  0  -0.298475  0  3.928557  0  -0.037988  0  -0.166956  -0.287447  0  3.912802  0
C  C85  1  0.56557986  0.83802005  0.19207108  1  0  -0.259624  0  3.675351  0  0  -0.291949  0  3.919331  0  0  -0.298443  0  3.928613  0  -0.038008  0  -0.166999  -0.287426  0  3.912862  0
C  C86  1  0.93442109  0.33801778  0.69207119  1  0  -0.259687  0  3.675315  0  0  -0.291996  0  3.919285  0  0  -0.29849  0  3.928557  0  -0.038052  0  -0.167009  -0.287473  0  3.912816  0
C  C87  1  0.43442338  0.16197719  0.80792991  1  0  -0.259642  0  3.675315  0  0  -0.291921  0  3.919211  0  0  -0.298437  0  3.928502  0  -0.03798  0  -0.166979  -0.287399  0  3.912741  0
C  C88  1  0.14706482  0.49828814  0.28187588  1  0  0.691077  0  3.835608  0  0  0.643808  0  4.128031  0  0  0.677872  0  4.122564  0  1.525349  0  0.200326  0.620591  0  4.130896  0
C  C89  1  0.64706775  0.00171656  0.21812472  1  0  0.690805  0  3.835866  0  0  0.643581  0  4.128276  0  0  0.677648  0  4.122818  0  1.525224  0  0.200291  0.620365  0  4.131135  0
C  C90  1  0.85293450  0.50171153  0.71812471  1  0  0.690971  0  3.835749  0  0  0.643785  0  4.128082  0  0  0.677849  0  4.122619  0  1.525291  0  0.200375  0.620568  0  4.130945  0
C  C91  1  0.35293549  0.99828555  0.78187547  1  0  0.690992  0  3.835727  0  0  0.643762  0  4.12812  0  0  0.677828  0  4.122656  0  1.525307  0  0.200361  0.620544  0  4.130986  0
N  N92  1  0.21738844  0.03793345  0.11449418  1  0  -0.391974  0  3.245755  0  0  -0.315  0  3.526604  0  0  -0.336635  0  3.543126  0  -1.227785  0  -0.356265  -0.300148  0  3.514895  0
N  N93  1  0.71738353  0.46207369  0.38550657  1  0  -0.392099  0  3.245623  0  0  -0.315133  0  3.526509  0  0  -0.336767  0  3.543022  0  -1.227527  0  -0.356367  -0.300281  0  3.514805  0
N  N94  1  0.78261481  0.96206988  0.88550719  1  0  -0.392004  0  3.245645  0  0  -0.315036  0  3.526529  0  0  -0.336669  0  3.543045  0  -1.227807  0  -0.3563  -0.300185  0  3.514821  0
N  N95  1  0.28261318  0.53793085  0.61449266  1  0  -0.392047  0  3.245803  0  0  -0.315108  0  3.526703  0  0  -0.33674  0  3.543218  0  -1.227644  0  -0.356354  -0.300256  0  3.514995  0
N  N96  1  0.13855889  0.81255630  0.04286384  1  0  -0.096376  0  3.600598  0  0  -0.006828  0  3.813929  0  0  -0.022061  0  3.840118  0  -1.259693  0  -0.225259  0.003283  0  3.796085  0
N  N97  1  0.63856051  0.68744199  0.45713752  1  0  -0.096401  0  3.600688  0  0  -0.006844  0  3.814018  0  0  -0.022077  0  3.840206  0  -1.259467  0  -0.22523  0.003265  0  3.796172  0
N  N98  1  0.86143652  0.18743850  0.95713756  1  0  -0.096353  0  3.600553  0  0  -0.006785  0  3.813876  0  0  -0.022019  0  3.840065  0  -1.259262  0  -0.225206  0.003325  0  3.796031  0
N  N99  1  0.36144534  0.31255768  0.54286251  1  0  -0.096404  0  3.600611  0  0  -0.006873  0  3.81396  0  0  -0.022108  0  3.84015  0  -1.259335  0  -0.225276  0.003239  0  3.796114  0
O  O100  1  0.29862849  0.46418563  0.30241526  1  0  -0.617805  0  1.935933  0  0  -0.555759  0  2.171849  0  0  -0.583792  0  2.163182  0  -1.163869  0  -0.313811  -0.536193  0  2.177174  0
O  O101  1  0.79863142  0.03581786  0.19758248  1  0  -0.617688  0  1.936064  0  0  -0.555639  0  2.171938  0  0  -0.583675  0  2.163278  0  -1.163834  0  -0.313812  -0.53607  0  2.17725  0
O  O102  1  0.70137344  0.53581648  0.69758270  1  0  -0.617775  0  1.936042  0  0  -0.555751  0  2.171917  0  0  -0.583786  0  2.163252  0  -1.163881  0  -0.31385  -0.536186  0  2.177244  0
O  O103  1  0.20137313  0.96417939  0.80241519  1  0  -0.617801  0  1.936129  0  0  -0.555748  0  2.172003  0  0  -0.58378  0  2.163335  0  -1.163847  0  -0.313846  -0.53618  0  2.177321  0
O  O104  1  0.05842626  0.39510834  0.23616397  1  0  -0.702297  0  2.051032  0  0  -0.623479  0  2.322675  0  0  -0.65529  0  2.307826  0  -1.175736  0  -0.343713  -0.60104  0  2.332072  0
O  O105  1  0.55843310  0.10489515  0.26383711  1  0  -0.702194  0  2.051159  0  0  -0.623397  0  2.322798  0  0  -0.655205  0  2.307948  0  -1.175742  0  -0.343683  -0.600957  0  2.332193  0
O  O106  1  0.94157176  0.60489255  0.76383725  1  0  -0.702269  0  2.051067  0  0  -0.623476  0  2.322688  0  0  -0.655284  0  2.307838  0  -1.175746  0  -0.343733  -0.601034  0  2.332085  0
O  O107  1  0.44157405  0.89510574  0.73616189  1  0  -0.702265  0  2.051051  0  0  -0.623487  0  2.322718  0  0  -0.655295  0  2.307867  0  -1.175784  0  -0.343695  -0.601045  0  2.332116  0
O  O108  1  0.96050238  0.16609037  0.36107499  1  0  -0.686899  0  1.997345  0  0  -0.625943  0  2.257993  0  0  -0.65472  0  2.245916  0  -1.201376  0  -0.348847  -0.605562  0  2.265358  0
O  O109  1  0.46050467  0.33389852  0.13892242  1  0  -0.687012  0  1.997403  0  0  -0.626035  0  2.258018  0  0  -0.654834  0  2.245992  0  -1.20151  0  -0.34894  -0.605656  0  2.265386  0
O  O110  1  0.03949564  0.83389957  0.63892279  1  0  -0.687001  0  1.997386  0  0  -0.626027  0  2.258019  0  0  -0.654819  0  2.24598  0  -1.201513  0  -0.34892  -0.605645  0  2.265381  0
O  O111  1  0.53949726  0.66609021  0.86107473  1  0  -0.686904  0  1.997358  0  0  -0.625945  0  2.257986  0  0  -0.654728  0  2.245923  0  -1.201376  0  -0.348841  -0.605564  0  2.265349  0
O  O112  1  0.17224478  0.02594915  0.29166130  1  0  -0.660974  0  2.025042  0  0  -0.590639  0  2.284184  0  0  -0.620484  0  2.272587  0  -1.171191  0  -0.332449  -0.569747  0  2.291477  0
O  O113  1  0.67224901  0.47404096  0.20833286  1  0  -0.660887  0  2.025104  0  0  -0.590517  0  2.284184  0  0  -0.620358  0  2.272583  0  -1.171039  0  -0.332379  -0.569625  0  2.291477  0
O  O114  1  0.82775194  0.97404566  0.70833345  1  0  -0.660902  0  2.025127  0  0  -0.590497  0  2.284184  0  0  -0.62034  0  2.272584  0  -1.171036  0  -0.33236  -0.569605  0  2.291476  0
O  O115  1  0.32775423  0.52594777  0.79166096  1  0  -0.660989  0  2.025034  0  0  -0.590654  0  2.284154  0  0  -0.620499  0  2.272556  0  -1.17121  0  -0.332461  -0.569762  0  2.291448  0
