# generated using pymatgen
data_CaH8C5N2O7
_symmetry_space_group_name_H-M   'P 1'
_cell_length_a   6.31782657
_cell_length_b   8.58547978
_cell_length_c   16.90860209
_cell_angle_alpha   90.00056054
_cell_angle_beta   96.83631553
_cell_angle_gamma   89.99996103
_symmetry_Int_Tables_number   1
_chemical_formula_structural   CaH8C5N2O7
_chemical_formula_sum   'Ca4 H32 C20 N8 O28'
_cell_volume   910.62847138
_cell_formula_units_Z   4
loop_
 _symmetry_equiv_pos_site_id
 _symmetry_equiv_pos_as_xyz
  1  'x, y, z'
loop_
 _atom_site_type_symbol
 _atom_site_label
 _atom_site_symmetry_multiplicity
 _atom_site_fract_x
 _atom_site_fract_y
 _atom_site_fract_z
 _atom_site_occupancy
 _atom_site_hle17_bader_spin_density
 _atom_site_hle17_ddec_charge
 _atom_site_hle17_ddec_spin_density
 _atom_site_hle17_ddec_sum_bond_order
 _atom_site_hle17_magmom
 _atom_site_hse06_10hf_bader_spin_density
 _atom_site_hse06_10hf_ddec_charge
 _atom_site_hse06_10hf_ddec_spin_density
 _atom_site_hse06_10hf_ddec_sum_bond_order
 _atom_site_hse06_10hf_magmom
 _atom_site_hse06_bader_spin_density
 _atom_site_hse06_ddec_charge
 _atom_site_hse06_ddec_spin_density
 _atom_site_hse06_ddec_sum_bond_order
 _atom_site_hse06_magmom
 _atom_site_pbe_bader_spin_density
 _atom_site_pbe_cm5_charge
 _atom_site_pbe_ddec_charge
 _atom_site_pbe_ddec_spin_density
 _atom_site_pbe_ddec_sum_bond_order
 _atom_site_pbe_magmom
Ca  Ca0  1  0.28658326  0.99836983  0.28798178  1  0  1.516662  0  1.094858  0  0  1.378602  0  1.437979  0  0  1.421624  0  1.395391  0  0  0.855115  1.348061  0  1.465497  0
Ca  Ca1  1  0.21339501  0.49837840  0.21201883  1  0  1.516659  0  1.094816  0  0  1.378569  0  1.437952  0  0  1.421582  0  1.395376  0  0  0.855052  1.34801  0  1.465495  0
Ca  Ca2  1  0.71340811  0.00163174  0.71201221  1  0  1.51676  0  1.094714  0  0  1.3787  0  1.437835  0  0  1.421706  0  1.395261  0  0  0.855109  1.348059  0  1.465517  0
Ca  Ca3  1  0.78659538  0.50163132  0.78798340  1  0  1.516601  0  1.094937  0  0  1.378531  0  1.43806  0  0  1.421543  0  1.395483  0  0  0.855091  1.347987  0  1.465584  0
H  H4  1  0.34069722  0.66258038  0.00794747  1  0  0.342327  0  0.816248  0  0  0.330107  0  0.861974  0  0  0.338614  0  0.855082  0  0  0.351538  0.324411  0  0.866475  0
H  H5  1  0.15929071  0.16255599  0.49205301  1  0  0.342344  0  0.816196  0  0  0.330097  0  0.86196  0  0  0.338595  0  0.855072  0  0  0.35153  0.3244  0  0.866461  0
H  H6  1  0.65929821  0.33743516  0.99205849  1  0  0.342339  0  0.816225  0  0  0.330099  0  0.861998  0  0  0.338593  0  0.855107  0  0  0.351523  0.324404  0  0.866502  0
H  H7  1  0.84070313  0.83741762  0.50795290  1  0  0.342377  0  0.816279  0  0  0.330184  0  0.861942  0  0  0.338688  0  0.855051  0  0  0.351531  0.324488  0  0.866441  0
H  H8  1  0.19206350  0.13786080  0.96916472  1  0  0.151271  0  0.952647  0  0  0.154826  0  1.020877  0  0  0.160349  0  1.017836  0  0  0.111731  0.150699  0  1.023633  0
H  H9  1  0.30794337  0.63783673  0.53084175  1  0  0.151282  0  0.952664  0  0  0.154886  0  1.020784  0  0  0.160408  0  1.017749  0  0  0.111752  0.150751  0  1.023552  0
H  H10  1  0.80794540  0.86216522  0.03082987  1  0  0.15129  0  0.952726  0  0  0.154827  0  1.020941  0  0  0.16035  0  1.017899  0  0  0.111739  0.150691  0  1.023705  0
H  H11  1  0.69206494  0.36213922  0.46916642  1  0  0.151324  0  0.952578  0  0  0.154871  0  1.020829  0  0  0.160391  0  1.017793  0  0  0.111733  0.150751  0  1.023556  0
H  H12  1  0.70736802  0.13756599  0.36322390  1  0  0.426223  0  0.842472  0  0  0.403449  0  0.902106  0  0  0.412987  0  0.888034  0  0  0.311846  0.396418  0  0.912592  0
H  H13  1  0.79260900  0.63756728  0.13677192  1  0  0.426132  0  0.842471  0  0  0.403376  0  0.902153  0  0  0.412911  0  0.888085  0  0  0.311817  0.396349  0  0.912632  0
H  H14  1  0.29261401  0.86242626  0.63677272  1  0  0.426116  0  0.842515  0  0  0.403338  0  0.90223  0  0  0.412875  0  0.888158  0  0  0.311788  0.396309  0  0.912712  0
H  H15  1  0.20737617  0.36243429  0.86322422  1  0  0.426169  0  0.842454  0  0  0.403392  0  0.902157  0  0  0.412928  0  0.888088  0  0  0.311812  0.396366  0  0.912634  0
H  H16  1  0.55244972  0.27263328  0.33259576  1  0  0.419664  0  0.888439  0  0  0.388834  0  0.953327  0  0  0.400018  0  0.937  0  0  0.294544  0.380762  0  0.96509  0
H  H17  1  0.94752725  0.77263748  0.16740013  1  0  0.419714  0  0.888361  0  0  0.388881  0  0.953255  0  0  0.400067  0  0.936926  0  0  0.294586  0.380808  0  0.965019  0
H  H18  1  0.44753868  0.72736712  0.66740108  1  0  0.419709  0  0.88838  0  0  0.388862  0  0.953299  0  0  0.400049  0  0.936967  0  0  0.294549  0.380789  0  0.965062  0
H  H19  1  0.05245628  0.22736758  0.83259536  1  0  0.419658  0  0.888435  0  0  0.388818  0  0.953344  0  0  0.400003  0  0.937016  0  0  0.294556  0.380746  0  0.965108  0
H  H20  1  0.82042144  0.92358845  0.24350608  1  0  0.428027  0  0.876317  0  0  0.399402  0  0.934962  0  0  0.410708  0  0.918547  0  0  0.300526  0.391556  0  0.946314  0
H  H21  1  0.67955592  0.42359206  0.25649589  1  0  0.427684  0  0.876785  0  0  0.399162  0  0.935268  0  0  0.410435  0  0.918891  0  0  0.30041  0.391316  0  0.94662  0
H  H22  1  0.17956882  0.07640380  0.75649438  1  0  0.427885  0  0.876548  0  0  0.399314  0  0.935097  0  0  0.410618  0  0.918684  0  0  0.300487  0.391469  0  0.946447  0
H  H23  1  0.32043765  0.57640601  0.74350646  1  0  0.427877  0  0.876537  0  0  0.399311  0  0.935087  0  0  0.410607  0  0.918683  0  0  0.300474  0.391467  0  0.946435  0
H  H24  1  0.87757431  0.02119899  0.16742918  1  0  0.421051  0  0.887415  0  0  0.387035  0  0.955136  0  0  0.398293  0  0.938971  0  0  0.296872  0.379035  0  0.966667  0
H  H25  1  0.62239682  0.52119248  0.33257239  1  0  0.421079  0  0.887355  0  0  0.38705  0  0.955106  0  0  0.398306  0  0.938945  0  0  0.296872  0.379045  0  0.966643  0
H  H26  1  0.12240776  0.97879908  0.83256804  1  0  0.421043  0  0.887419  0  0  0.387014  0  0.955158  0  0  0.398273  0  0.938994  0  0  0.296844  0.379008  0  0.966697  0
H  H27  1  0.37759193  0.47879744  0.66742920  1  0  0.421  0  0.887471  0  0  0.386989  0  0.955188  0  0  0.39825  0  0.93902  0  0  0.296828  0.378984  0  0.966725  0
H  H28  1  0.56548106  0.77666482  0.24384581  1  0  0.412728  0  0.886347  0  0  0.37851  0  0.968062  0  0  0.389977  0  0.951244  0  0  0.308151  0.369848  0  0.980944  0
H  H29  1  0.93450733  0.27667073  0.25615405  1  0  0.412569  0  0.886619  0  0  0.378382  0  0.96825  0  0  0.389849  0  0.951433  0  0  0.308085  0.369727  0  0.981121  0
H  H30  1  0.43450751  0.22333442  0.75615341  1  0  0.412655  0  0.886472  0  0  0.378444  0  0.968154  0  0  0.389909  0  0.95134  0  0  0.308107  0.36979  0  0.981023  0
H  H31  1  0.06549723  0.72333317  0.74384631  1  0  0.412622  0  0.886503  0  0  0.378423  0  0.96817  0  0  0.389891  0  0.951352  0  0  0.308132  0.369766  0  0.981044  0
H  H32  1  0.66756222  0.78739544  0.33478023  1  0  0.437504  0  0.860753  0  0  0.404021  0  0.926414  0  0  0.41531  0  0.910035  0  0  0.308357  0.395961  0  0.938163  0
H  H33  1  0.83241183  0.28740308  0.16521919  1  0  0.437514  0  0.86075  0  0  0.403968  0  0.926522  0  0  0.415261  0  0.910136  0  0  0.30827  0.395909  0  0.93827  0
H  H34  1  0.33241701  0.21259680  0.66522163  1  0  0.437538  0  0.860739  0  0  0.404018  0  0.926457  0  0  0.415306  0  0.910079  0  0  0.308326  0.395955  0  0.938209  0
H  H35  1  0.16758002  0.71259848  0.83478132  1  0  0.437492  0  0.86079  0  0  0.403959  0  0.926523  0  0  0.415249  0  0.910142  0  0  0.308313  0.395895  0  0.938278  0
C  C36  1  0.28322775  0.21724476  0.12679861  1  0  0.622252  0  3.919388  0  0  0.57347  0  4.21861  0  0  0.606414  0  4.208597  0  0  0.208882  0.551222  0  4.224319  0
C  C37  1  0.21677633  0.71724368  0.37320565  1  0  0.622215  0  3.919373  0  0  0.573433  0  4.218615  0  0  0.606381  0  4.208599  0  0  0.20881  0.55118  0  4.224327  0
C  C38  1  0.71679527  0.78276962  0.87319351  1  0  0.622531  0  3.918585  0  0  0.573487  0  4.218348  0  0  0.606437  0  4.208327  0  0  0.208762  0.551238  0  4.224057  0
C  C39  1  0.78323331  0.28274623  0.62679902  1  0  0.622163  0  3.919744  0  0  0.573258  0  4.219037  0  0  0.606201  0  4.209029  0  0  0.208733  0.551009  0  4.224739  0
C  C40  1  0.29529844  0.05840759  0.08815593  1  0  0.199836  0  3.77507  0  0  0.194877  0  4.028468  0  0  0.207113  0  4.042507  0  0  0.122013  0.187013  0  4.018865  0
C  C41  1  0.20472456  0.55838631  0.41184524  1  0  0.199902  0  3.775061  0  0  0.19492  0  4.028464  0  0  0.207158  0  4.042503  0  0  0.122016  0.187055  0  4.018861  0
C  C42  1  0.70471016  0.94161843  0.91183451  1  0  0.200063  0  3.775168  0  0  0.195004  0  4.028834  0  0  0.207242  0  4.042871  0  0  0.12215  0.187139  0  4.019226  0
C  C43  1  0.79530098  0.44158730  0.58815938  1  0  0.199779  0  3.775553  0  0  0.195067  0  4.028608  0  0  0.207307  0  4.042646  0  0  0.122009  0.187201  0  4.019009  0
C  C44  1  0.24285315  0.03954939  0.00731296  1  0  -0.347155  0  3.692228  0  0  -0.375498  0  3.958741  0  0  -0.393459  0  3.977802  0  0  -0.116387  -0.364152  0  3.946781  0
C  C45  1  0.25717798  0.53953201  0.49269077  1  0  -0.34707  0  3.692246  0  0  -0.375473  0  3.958722  0  0  -0.393445  0  3.97779  0  0  -0.11644  -0.364121  0  3.946746  0
C  C46  1  0.75716673  0.96046615  0.99267964  1  0  -0.347135  0  3.692346  0  0  -0.375458  0  3.958824  0  0  -0.393422  0  3.977898  0  0  -0.116441  -0.364102  0  3.946833  0
C  C47  1  0.74284626  0.46044160  0.50731795  1  0  -0.347284  0  3.692272  0  0  -0.375671  0  3.958693  0  0  -0.393636  0  3.977755  0  0  -0.116406  -0.364311  0  3.946725  0
C  C48  1  0.25506784  0.88767917  0.97466992  1  0  0.611785  0  3.856489  0  0  0.5629  0  4.146425  0  0  0.593011  0  4.148248  0  0  0.232952  0.542937  0  4.144759  0
C  C49  1  0.24494805  0.38766545  0.52533098  1  0  0.611524  0  3.856767  0  0  0.562781  0  4.14648  0  0  0.592902  0  4.148291  0  0  0.232853  0.54283  0  4.144799  0
C  C50  1  0.74495876  0.11233754  0.02532764  1  0  0.611516  0  3.856621  0  0  0.562855  0  4.146183  0  0  0.592957  0  4.148012  0  0  0.232918  0.542913  0  4.144497  0
C  C51  1  0.75505509  0.61232097  0.47467169  1  0  0.612018  0  3.856418  0  0  0.563073  0  4.146443  0  0  0.593181  0  4.14826  0  0  0.233022  0.543109  0  4.144785  0
C  C52  1  0.38108015  0.79812883  0.10929430  1  0  0.727158  0  3.859807  0  0  0.66981  0  4.153081  0  0  0.702626  0  4.151235  0  0  0.34327  0.648013  0  4.153361  0
C  C53  1  0.11892707  0.29810479  0.39070987  1  0  0.727237  0  3.859713  0  0  0.669835  0  4.153048  0  0  0.702665  0  4.151184  0  0  0.343088  0.648037  0  4.153337  0
C  C54  1  0.61894831  0.20190418  0.89070687  1  0  0.727204  0  3.859651  0  0  0.669869  0  4.15289  0  0  0.702688  0  4.151036  0  0  0.343089  0.648083  0  4.153165  0
C  C55  1  0.88108558  0.70186765  0.60929254  1  0  0.727323  0  3.859754  0  0  0.669918  0  4.153102  0  0  0.702745  0  4.151242  0  0  0.343387  0.648121  0  4.153379  0
N  N56  1  0.32458794  0.77285049  0.02877515  1  0  -0.488299  0  3.24346  0  0  -0.428059  0  3.480889  0  0  -0.450147  0  3.48172  0  0  -0.366217  -0.413565  0  3.479823  0
N  N57  1  0.17542566  0.27282801  0.47122912  1  0  -0.488361  0  3.243258  0  0  -0.428037  0  3.480602  0  0  -0.450123  0  3.481413  0  0  -0.366155  -0.413545  0  3.479539  0
N  N58  1  0.67543259  0.22717321  0.97122634  1  0  -0.488365  0  3.243265  0  0  -0.428163  0  3.480655  0  0  -0.450238  0  3.481469  0  0  -0.366151  -0.413675  0  3.479587  0
N  N59  1  0.82458713  0.72714676  0.52877507  1  0  -0.488603  0  3.243687  0  0  -0.42833  0  3.481127  0  0  -0.450418  0  3.48195  0  0  -0.366321  -0.413836  0  3.480064  0
N  N60  1  0.35881352  0.94115666  0.13934096  1  0  -0.562119  0  3.063047  0  0  -0.516623  0  3.329057  0  0  -0.542004  0  3.340861  0  0  -0.373168  -0.499968  0  3.320991  0
N  N61  1  0.14118077  0.44114019  0.36066111  1  0  -0.56224  0  3.062946  0  0  -0.516647  0  3.328948  0  0  -0.542027  0  3.340741  0  0  -0.373117  -0.49999  0  3.320884  0
N  N62  1  0.64119081  0.05887286  0.86065644  1  0  -0.562328  0  3.062946  0  0  -0.51675  0  3.328992  0  0  -0.542127  0  3.340787  0  0  -0.373213  -0.500086  0  3.320922  0
N  N63  1  0.85882706  0.55883925  0.63934054  1  0  -0.56219  0  3.063063  0  0  -0.516774  0  3.329059  0  0  -0.542154  0  3.340845  0  0  -0.373255  -0.50012  0  3.320997  0
O  O64  1  0.26596948  0.33946117  0.08525851  1  0  -0.631925  0  1.849216  0  0  -0.590162  0  2.064473  0  0  -0.611321  0  2.053709  0  0  -0.33929  -0.575186  0  2.069298  0
O  O65  1  0.23404451  0.83945275  0.41475143  1  0  -0.631899  0  1.849293  0  0  -0.590116  0  2.064544  0  0  -0.611262  0  2.05376  0  0  -0.33925  -0.575146  0  2.069368  0
O  O66  1  0.73409351  0.66056020  0.91473675  1  0  -0.632149  0  1.84909  0  0  -0.590179  0  2.064399  0  0  -0.611324  0  2.053604  0  0  -0.339219  -0.575206  0  2.069221  0
O  O67  1  0.76595548  0.16053950  0.58525173  1  0  -0.631972  0  1.849386  0  0  -0.59015  0  2.064669  0  0  -0.611301  0  2.053891  0  0  -0.33929  -0.575165  0  2.069495  0
O  O68  1  0.29032274  0.21749825  0.20305436  1  0  -0.744743  0  2.058359  0  0  -0.678094  0  2.306108  0  0  -0.70731  0  2.297935  0  0  -0.404968  -0.657595  0  2.310916  0
O  O69  1  0.20961118  0.71750618  0.29694690  1  0  -0.744679  0  2.058365  0  0  -0.678093  0  2.306194  0  0  -0.707313  0  2.298024  0  0  -0.404839  -0.657582  0  2.310993  0
O  O70  1  0.70964295  0.78250681  0.79693638  1  0  -0.744715  0  2.058055  0  0  -0.678122  0  2.306107  0  0  -0.707341  0  2.297933  0  0  -0.404904  -0.657611  0  2.310917  0
O  O71  1  0.79035677  0.28249423  0.70305279  1  0  -0.744549  0  2.058427  0  0  -0.677923  0  2.306256  0  0  -0.70714  0  2.298087  0  0  -0.404779  -0.657415  0  2.311062  0
O  O72  1  0.45392058  0.68345424  0.15272565  1  0  -0.718839  0  1.952062  0  0  -0.657385  0  2.185334  0  0  -0.682446  0  2.173075  0  0  -0.341057  -0.639551  0  2.190911  0
O  O73  1  0.04608496  0.18343286  0.34727672  1  0  -0.718611  0  1.951971  0  0  -0.657361  0  2.18555  0  0  -0.682427  0  2.173279  0  0  -0.340955  -0.639542  0  2.191136  0
O  O74  1  0.54608410  0.31657179  0.84727649  1  0  -0.718709  0  1.951943  0  0  -0.657362  0  2.185399  0  0  -0.682412  0  2.173124  0  0  -0.340951  -0.63955  0  2.190983  0
O  O75  1  0.95393247  0.81653493  0.65272585  1  0  -0.718856  0  1.952168  0  0  -0.657424  0  2.185542  0  0  -0.68249  0  2.17328  0  0  -0.3411  -0.639582  0  2.191117  0
O  O76  1  0.21097878  0.85236302  0.90185334  1  0  -0.61498  0  2.043197  0  0  -0.548568  0  2.258963  0  0  -0.573623  0  2.250266  0  0  -0.29097  -0.531056  0  2.264787  0
O  O77  1  0.28902281  0.35234373  0.59814749  1  0  -0.614819  0  2.043307  0  0  -0.548554  0  2.259151  0  0  -0.573582  0  2.250389  0  0  -0.290909  -0.531047  0  2.264973  0
O  O78  1  0.78901104  0.14764554  0.09814118  1  0  -0.614861  0  2.043448  0  0  -0.548538  0  2.259173  0  0  -0.57357  0  2.250438  0  0  -0.29097  -0.531056  0  2.265007  0
O  O79  1  0.71097275  0.64763687  0.40186025  1  0  -0.615016  0  2.043315  0  0  -0.548642  0  2.259168  0  0  -0.573693  0  2.250468  0  0  -0.291005  -0.531136  0  2.265003  0
O  O80  1  0.55718283  0.16762252  0.35888752  1  0  -0.85869  0  1.781732  0  0  -0.805546  0  1.953741  0  0  -0.825291  0  1.923367  0  0  -0.615003  -0.791561  0  1.975591  0
O  O81  1  0.94279445  0.66762271  0.14111201  1  0  -0.85859  0  1.781583  0  0  -0.805504  0  1.953733  0  0  -0.825244  0  1.923359  0  0  -0.615035  -0.791516  0  1.975586  0
O  O82  1  0.44280238  0.83237788  0.64110921  1  0  -0.858594  0  1.781632  0  0  -0.805465  0  1.953742  0  0  -0.825206  0  1.923369  0  0  -0.614965  -0.791465  0  1.975599  0
O  O83  1  0.05719094  0.33238002  0.85888710  1  0  -0.858621  0  1.781727  0  0  -0.805477  0  1.953794  0  0  -0.825219  0  1.923424  0  0  -0.614991  -0.791492  0  1.975643  0
O  O84  1  0.93917707  0.94995124  0.21119111  1  0  -0.880933  0  1.89228  0  0  -0.818712  0  2.079456  0  0  -0.841844  0  2.04836  0  0  -0.605837  -0.801843  0  2.100971  0
O  O85  1  0.56079697  0.44995201  0.28880910  1  0  -0.880672  0  1.892638  0  0  -0.81854  0  2.079748  0  0  -0.841641  0  2.048721  0  0  -0.605727  -0.801664  0  2.101268  0
O  O86  1  0.06080668  0.05004683  0.78880735  1  0  -0.880848  0  1.892475  0  0  -0.818668  0  2.079679  0  0  -0.841798  0  2.048583  0  0  -0.60579  -0.801775  0  2.101198  0
O  O87  1  0.43919643  0.55004490  0.71119088  1  0  -0.880802  0  1.892534  0  0  -0.818605  0  2.079664  0  0  -0.841734  0  2.048585  0  0  -0.605748  -0.801728  0  2.101177  0
O  O88  1  0.62271100  0.85128308  0.28646170  1  0  -0.868894  0  1.909375  0  0  -0.807143  0  2.099619  0  0  -0.829567  0  2.06723  0  0  -0.592831  -0.791398  0  2.123351  0
O  O89  1  0.87724272  0.35128932  0.21354265  1  0  -0.868708  0  1.909564  0  0  -0.806954  0  2.099747  0  0  -0.829369  0  2.067353  0  0  -0.592697  -0.791207  0  2.123465  0
O  O90  1  0.37725721  0.14871500  0.71354155  1  0  -0.868862  0  1.909423  0  0  -0.807085  0  2.099652  0  0  -0.829509  0  2.067263  0  0  -0.592807  -0.79133  0  2.123377  0
O  O91  1  0.12274780  0.64871341  0.78646136  1  0  -0.868712  0  1.909477  0  0  -0.806954  0  2.099755  0  0  -0.829373  0  2.067363  0  0  -0.59279  -0.791213  0  2.123484  0
