# generated using pymatgen
data_CuH14C22N4O5
_symmetry_space_group_name_H-M   'P 1'
_cell_length_a   8.69934665
_cell_length_b   10.84980760
_cell_length_c   11.60676885
_cell_angle_alpha   102.53634571
_cell_angle_beta   105.32895896
_cell_angle_gamma   108.06813539
_symmetry_Int_Tables_number   1
_chemical_formula_structural   CuH14C22N4O5
_chemical_formula_sum   'Cu2 H28 C44 N8 O10'
_cell_volume   949.51480804
_cell_formula_units_Z   2
loop_
 _symmetry_equiv_pos_site_id
 _symmetry_equiv_pos_as_xyz
  1  'x, y, z'
loop_
 _atom_site_type_symbol
 _atom_site_label
 _atom_site_symmetry_multiplicity
 _atom_site_fract_x
 _atom_site_fract_y
 _atom_site_fract_z
 _atom_site_occupancy
 _atom_site_hle17_ddec_charge
 _atom_site_hle17_ddec_spin_density
 _atom_site_hle17_ddec_sum_bond_order
 _atom_site_hle17_magmom
 _atom_site_hse06_10hf_ddec_charge
 _atom_site_hse06_10hf_ddec_spin_density
 _atom_site_hse06_10hf_ddec_sum_bond_order
 _atom_site_hse06_10hf_magmom
 _atom_site_hse06_ddec_charge
 _atom_site_hse06_ddec_spin_density
 _atom_site_hse06_ddec_sum_bond_order
 _atom_site_hse06_magmom
 _atom_site_pbe_cm5_charge
 _atom_site_pbe_ddec_charge
 _atom_site_pbe_ddec_spin_density
 _atom_site_pbe_ddec_sum_bond_order
 _atom_site_pbe_magmom
Cu  Cu0  1  0.79348237  0.04973834  0.24040255  1  0.786585  -0.741003  1.994365  -0.514  0.747266  -0.809317  2.408609  -0.615  0.828574  -0.885093  2.340437  -0.699  0.781174  0.70071  -0.752415  2.454417  -0.558
Cu  Cu1  1  0.20651714  0.95026053  0.75959854  1  0.786469  0.740992  1.99445  0.514  0.747281  0.809322  2.408579  0.615  0.828508  0.885096  2.340544  0.699  0.781145  0.700744  0.752416  2.454349  0.558
H  H2  1  0.93228393  0.85229382  0.10485411  1  0.102608  -0.001498  0.940068  -0.003  0.106632  -0.001262  1.007524  -0.002  0.109688  -0.000881  1.003599  -0.002  0.12388  0.10394  -0.001582  1.010896  -0.003
H  H3  1  0.06770998  0.14770812  0.89514388  1  0.102603  0.001498  0.940129  0.003  0.106663  0.001262  1.007538  0.002  0.109719  0.000881  1.003614  0.002  0.123915  0.103972  0.001582  1.010915  0.003
H  H4  1  0.19332542  0.79659236  0.17234181  1  0.115269  -0.000495  0.961475  -0.001  0.122226  -0.000485  1.024821  -0.001  0.125392  -0.000344  1.023356  0.0  0.112826  0.119644  -0.000601  1.026494  -0.001
H  H5  1  0.80666546  0.20340343  0.82765431  1  0.115314  0.000496  0.96141  0.001  0.12228  0.000485  1.024736  0.001  0.125453  0.000344  1.023269  0.0  0.112835  0.119701  0.000601  1.026413  0.001
H  H6  1  0.39646942  0.90588257  0.39484630  1  0.098877  -0.00017  0.951158  0.0  0.112025  5.4e-05  1.008307  0.0  0.114064  5.7e-05  1.007113  0.0  0.108977  0.110484  3.9e-05  1.009286  0.0
H  H7  1  0.60352354  0.09411015  0.60514876  1  0.098863  0.00017  0.951224  0.0  0.112039  -5.4e-05  1.008327  0.0  0.11407  -5.7e-05  1.007157  0.0  0.108979  0.110497  -3.9e-05  1.009307  0.0
H  H8  1  0.34316599  0.08244859  0.54495570  1  0.118824  -0.00085  0.962244  -0.001  0.12454  -0.000786  1.032429  -0.001  0.128206  -0.000567  1.029369  -0.001  0.109962  0.121572  -0.000969  1.03523  -0.001
H  H9  1  0.65683274  0.91754618  0.45504182  1  0.118829  0.000851  0.962288  0.001  0.124558  0.000786  1.03245  0.001  0.128222  0.000567  1.02939  0.001  0.10997  0.12159  0.000969  1.035256  0.001
H  H10  1  0.29312573  0.25252837  0.64833678  1  0.130872  -0.000775  0.972912  -0.001  0.138846  -0.000659  1.037597  -0.001  0.142647  -0.000481  1.03551  -0.001  0.11164  0.135903  -0.000788  1.039377  -0.001
H  H11  1  0.70687274  0.74746844  0.35166627  1  0.130863  0.000775  0.972927  0.001  0.138833  0.000659  1.037616  0.001  0.142637  0.000481  1.035521  0.001  0.111634  0.135891  0.000787  1.039397  0.001
H  H12  1  0.90794346  0.42975735  0.62430840  1  0.129039  -0.000763  0.954012  -0.001  0.137092  -0.000649  1.017546  -0.001  0.141146  -0.000467  1.014847  -0.001  0.113402  0.133992  -0.000787  1.019652  -0.001
H  H13  1  0.09205947  0.57024358  0.37569209  1  0.128994  0.000762  0.954046  0.001  0.137064  0.000649  1.017552  0.001  0.141119  0.000466  1.014853  0.001  0.11339  0.133964  0.000787  1.019661  0.001
H  H14  1  0.63196988  0.38420839  0.50283996  1  0.116041  -0.000869  0.931047  -0.001  0.130814  -0.000779  0.980501  -0.001  0.133606  -0.00054  0.97975  -0.001  0.116092  0.128708  -0.000983  0.981274  -0.001
H  H15  1  0.36803235  0.61579356  0.49716060  1  0.116089  0.000867  0.931012  0.001  0.130865  0.000779  0.980459  0.001  0.133657  0.00054  0.97971  0.001  0.11611  0.128759  0.000983  0.98123  0.001
H  H16  1  0.33576470  0.32475117  0.34449315  1  0.103306  -0.000178  0.95164  0.0  0.112791  3.9e-05  1.011912  0.0  0.11581  4.2e-05  1.009313  0.0  0.108021  0.110462  2.2e-05  1.013953  0.0
H  H17  1  0.66423582  0.67524975  0.65550856  1  0.10329  0.000179  0.951663  0.0  0.112794  -3.9e-05  1.011923  0.0  0.115814  -4.3e-05  1.009324  0.0  0.108011  0.110467  -2.2e-05  1.013959  0.0
H  H18  1  0.23573906  0.14346968  0.13502315  1  0.119861  -0.000497  0.933651  -0.001  0.128812  -0.000491  0.990306  -0.001  0.13144  -0.000337  0.989768  0.0  0.117246  0.126642  -0.00062  0.991134  -0.001
H  H19  1  0.76426249  0.85653330  0.86497747  1  0.119845  0.000496  0.933666  0.001  0.128786  0.000491  0.990336  0.001  0.131413  0.000337  0.989799  0.0  0.117234  0.12662  0.00062  0.991161  0.001
H  H20  1  0.42876794  0.02674835  0.09039068  1  0.10495  -0.001632  0.920209  -0.002  0.112204  -0.001386  0.980942  -0.002  0.11431  -0.000986  0.978504  -0.001  0.128008  0.110227  -0.001714  0.983213  -0.002
H  H21  1  0.57123481  0.97325463  0.90961018  1  0.104939  0.001634  0.920241  0.002  0.112193  0.001387  0.980974  0.002  0.114297  0.000987  0.97854  0.001  0.128013  0.110225  0.001714  0.98324  0.002
H  H22  1  0.46290682  0.47262356  0.75358096  1  0.093381  -9.9e-05  0.947471  0.0  0.106295  -4e-05  1.004751  0.0  0.109325  -3.1e-05  1.003087  0.0  0.102075  0.104144  -5.1e-05  1.006125  0.0
H  H23  1  0.53708995  0.52737222  0.24642153  1  0.093371  9.8e-05  0.947423  0.0  0.106257  4e-05  1.004749  0.0  0.109285  3.1e-05  1.003083  0.0  0.102082  0.104111  5.1e-05  1.006117  0.0
H  H24  1  0.64024179  0.66107789  0.95311695  1  0.106199  8.4e-05  0.959352  0.0  0.114709  -1.5e-05  1.023791  0.0  0.117512  -4e-06  1.022212  0.0  0.104254  0.112667  -2.5e-05  1.024915  0.0
H  H25  1  0.35975790  0.33891892  0.04688462  1  0.106248  -8.3e-05  0.95932  0.0  0.114728  1.5e-05  1.023785  0.0  0.117521  4e-06  1.022232  0.0  0.10427  0.112684  2.5e-05  1.024915  0.0
H  H26  1  0.18253786  0.63302351  0.04214083  1  0.092757  6.8e-05  0.965358  0.0  0.102322  -2.1e-05  1.030219  0.0  0.105112  -1.5e-05  1.028549  0.0  0.102749  0.100365  -3.2e-05  1.031512  0.0
H  H27  1  0.81746249  0.36697946  0.95786040  1  0.092765  -6.7e-05  0.965341  0.0  0.102342  2.1e-05  1.030197  0.0  0.105131  1.5e-05  1.02853  0.0  0.102765  0.10039  3.2e-05  1.031491  0.0
H  H28  1  0.00178748  0.45433115  0.83625232  1  0.094578  -0.00013  0.953188  0.0  0.104665  -7.7e-05  1.017008  0.0  0.107306  -4.4e-05  1.015818  0.0  0.103615  0.102763  -0.000106  1.018034  0.0
H  H29  1  0.99821168  0.54567182  0.16374867  1  0.094596  0.000129  0.953136  0.0  0.10468  7.7e-05  1.016951  0.0  0.107321  4.4e-05  1.015761  0.0  0.103612  0.102783  0.000106  1.017976  0.0
C  C30  1  0.02695073  0.90205708  0.20077263  1  0.147373  0.007486  3.657538  0.008  0.115793  0.001223  3.917034  0.003  0.125699  0.002271  3.933573  0.004  0.059866  0.109211  0.000335  3.907271  0.002
C  C31  1  0.97304813  0.09794282  0.79922596  1  0.147412  -0.007483  3.657647  -0.008  0.115792  -0.001222  3.917165  -0.003  0.125705  -0.002273  3.933706  -0.004  0.059864  0.109206  -0.000335  3.907409  -0.002
C  C32  1  0.17132083  0.86991299  0.23937317  1  -0.096179  -0.009727  3.690854  -0.01  -0.109296  -0.004454  3.941987  -0.005  -0.115938  -0.003893  3.962004  -0.005  -0.068819  -0.105877  -0.005039  3.929758  -0.006
C  C33  1  0.82867295  0.13008383  0.76062289  1  -0.096233  0.009723  3.690714  0.01  -0.109344  0.004453  3.94184  0.005  -0.115994  0.003896  3.961861  0.005  -0.068826  -0.105924  0.00504  3.929615  0.006
C  C34  1  0.28571494  0.93313168  0.36408835  1  0.001064  0.007834  3.706003  0.007  -0.018804  0.002619  3.954457  0.002  -0.014727  0.002811  3.973209  0.003  -0.066334  -0.021457  0.002498  3.942005  0.002
C  C35  1  0.71428022  0.06686309  0.63590758  1  0.001013  -0.007828  3.706051  -0.007  -0.018882  -0.002618  3.954516  -0.002  -0.014809  -0.002812  3.973266  -0.003  -0.066387  -0.021536  -0.002498  3.942066  -0.002
C  C36  1  0.25771234  0.03121397  0.44620746  1  -0.140176  -0.00607  3.690682  -0.006  -0.160264  -0.002586  3.943371  -0.002  -0.167076  -0.002442  3.96431  -0.002  -0.078711  -0.15569  -0.002818  3.929693  -0.003
C  C37  1  0.74228640  0.96878081  0.55378920  1  -0.14009  0.006063  3.690772  0.006  -0.160202  0.002586  3.943415  0.002  -0.167012  0.002443  3.964356  0.002  -0.078681  -0.155632  0.002819  3.92974  0.003
C  C38  1  0.11414937  0.06238732  0.40022042  1  0.167706  0.00217  3.754405  0.002  0.165201  -0.001623  3.998781  -0.001  0.171475  -0.000283  4.020858  0.0  0.117172  0.161207  -0.002699  3.984207  -0.002
C  C39  1  0.88585086  0.93761053  0.59977889  1  0.167512  -0.002163  3.754579  -0.002  0.165092  0.001623  3.998853  0.001  0.17137  0.000283  4.020926  0.0  0.117139  0.161106  0.002699  3.984262  0.002
C  C40  1  0.07199557  0.16727447  0.47408424  1  0.193843  0.002461  3.788125  0.004  0.188566  -0.000626  4.0371  0.001  0.19925  0.000291  4.055081  0.002  0.118867  0.181279  -0.00145  4.02564  0.0
C  C41  1  0.92800513  0.83272440  0.52591710  1  0.193866  -0.002465  3.788187  -0.004  0.18855  0.000625  4.037162  -0.001  0.199236  -0.000292  4.055131  -0.002  0.118821  0.181263  0.00145  4.025701  0.0
C  C42  1  0.17251027  0.25781700  0.59561179  1  -0.174556  -0.004903  3.610085  -0.005  -0.199916  -0.002619  3.851738  -0.003  -0.207836  -0.002275  3.869266  -0.002  -0.073204  -0.194366  -0.002858  3.840292  -0.003
C  C43  1  0.82748991  0.74218084  0.40439096  1  -0.174555  0.004904  3.609991  0.005  -0.19988  0.002619  3.851645  0.003  -0.207788  0.002274  3.869197  0.002  -0.073184  -0.194332  0.002858  3.840196  0.003
C  C44  1  0.11311737  0.35346846  0.65152349  1  0.131239  0.004873  3.737264  0.005  0.141247  0.00175  3.972321  0.002  0.149726  0.001957  3.991462  0.002  0.019783  0.134822  0.001454  3.959253  0.001
C  C45  1  0.88688164  0.64652938  0.34847730  1  0.131158  -0.004874  3.73713  -0.005  0.141092  -0.001748  3.97227  -0.002  0.149518  -0.001956  3.991482  -0.002  0.019692  0.134671  -0.001453  3.959195  -0.001
C  C46  1  0.95306344  0.35377612  0.58314987  1  -0.174745  -0.004939  3.612737  -0.005  -0.199412  -0.002672  3.856447  -0.003  -0.207703  -0.002328  3.874137  -0.002  -0.071265  -0.193361  -0.002926  3.84447  -0.003
C  C47  1  0.04693946  0.64622480  0.41685233  1  -0.174625  0.004939  3.61258  0.005  -0.199277  0.002671  3.856295  0.003  -0.207552  0.002326  3.874003  0.002  -0.071218  -0.193231  0.002926  3.844317  0.003
C  C48  1  0.85752222  0.25836318  0.46252912  1  0.202379  0.002219  3.772031  0.003  0.195258  -0.000894  4.022228  0.0  0.20673  0.000151  4.03916  0.002  0.125208  0.187392  -0.001868  4.011695  -0.001
C  C49  1  0.14248000  0.74163877  0.53747229  1  0.202311  -0.002218  3.772101  -0.003  0.195185  0.000894  4.022316  0.0  0.206659  -0.00015  4.039242  -0.002  0.12519  0.187321  0.001868  4.011774  0.001
C  C50  1  0.68471598  0.23708882  0.37857675  1  0.172026  0.002047  3.737734  0.002  0.170683  -0.001579  3.980568  -0.001  0.177143  -0.000326  4.002359  0.0  0.118494  0.166402  -0.002541  3.966346  -0.002
C  C51  1  0.31528508  0.76291314  0.62142270  1  0.172054  -0.002069  3.737665  -0.002  0.170703  0.001581  3.980492  0.001  0.177159  0.000327  4.002276  0.0  0.118511  0.166427  0.002541  3.966277  0.002
C  C52  1  0.58297145  0.30597338  0.41061347  1  -0.137824  -0.00576  3.696985  -0.005  -0.153705  -0.002425  3.937952  -0.002  -0.160753  -0.002294  3.959768  -0.002  -0.075305  -0.148946  -0.002645  3.923286  -0.002
C  C53  1  0.41703009  0.69402960  0.58938801  1  -0.137878  0.005788  3.696927  0.005  -0.153756  0.002424  3.937914  0.002  -0.160805  0.002294  3.959734  0.002  -0.075307  -0.148998  0.002645  3.923247  0.002
C  C54  1  0.41887731  0.27257134  0.32332224  1  -0.003126  0.007708  3.707577  0.007  -0.023614  0.002563  3.960207  0.002  -0.020215  0.002758  3.978789  0.003  -0.065618  -0.025934  0.002434  3.947966  0.002
C  C55  1  0.58112659  0.72743162  0.67668144  1  -0.003082  -0.007737  3.707606  -0.007  -0.02361  -0.002562  3.960278  -0.002  -0.020213  -0.002759  3.978862  -0.003  -0.065604  -0.025926  -0.002434  3.948035  -0.002
C  C56  1  0.36144659  0.17171765  0.20664805  1  -0.090633  -0.009541  3.681291  -0.01  -0.104326  -0.004278  3.933393  -0.005  -0.110761  -0.00378  3.953704  -0.004  -0.06892  -0.100441  -0.004774  3.920465  -0.006
C  C57  1  0.63855446  0.82828430  0.79335226  1  -0.090643  0.009573  3.681428  0.01  -0.104329  0.004278  3.933547  0.005  -0.110762  0.003782  3.953854  0.004  -0.068934  -0.100451  0.004774  3.920636  0.006
C  C58  1  0.46900267  0.10617767  0.18044977  1  0.16233  0.007785  3.644899  0.009  0.132614  0.001445  3.902124  0.003  0.14378  0.002464  3.917793  0.004  0.06821  0.125166  0.000629  3.892747  0.002
C  C59  1  0.53099888  0.89382531  0.81955085  1  0.162312  -0.007811  3.64516  -0.009  0.1326  -0.001447  3.902375  -0.003  0.143765  -0.002466  3.918034  -0.004  0.068199  0.125145  -0.000629  3.89302  -0.002
C  C60  1  0.21887129  0.45307817  0.77828487  1  0.025963  -0.003278  3.790729  -0.003  0.041339  -0.000693  4.024766  -0.001  0.038563  -0.000532  4.049828  -0.001  -0.012865  0.043779  -0.000941  4.007409  -0.001
C  C61  1  0.78112772  0.54691967  0.22171591  1  0.025997  0.00326  3.790646  0.003  0.04143  0.000694  4.02463  0.001  0.038671  0.000532  4.049702  0.001  -0.012848  0.04387  0.00094  4.007273  0.001
C  C62  1  0.40019307  0.50877242  0.81558502  1  -0.097374  0.002343  3.738607  0.002  -0.118479  0.000398  3.988709  0.0  -0.121658  0.000487  4.011494  0.001  -0.087111  -0.116504  0.000268  3.973396  0.0
C  C63  1  0.59980595  0.49122543  0.18441490  1  -0.097397  -0.002322  3.738383  -0.002  -0.118508  -0.0004  3.988497  0.0  -0.121681  -0.000487  4.011273  -0.001  -0.087129  -0.116533  -0.000268  3.973188  0.0
C  C64  1  0.50061126  0.61520443  0.92831156  1  -0.069391  -0.003029  3.748026  -0.003  -0.092077  -0.000666  3.993695  -0.001  -0.092591  -0.000487  4.015468  0.0  -0.082479  -0.091503  -0.000921  3.979112  -0.001
C  C65  1  0.49938726  0.38479238  0.07168806  1  -0.069379  0.003008  3.74789  0.003  -0.092033  0.000668  3.993503  0.001  -0.09255  0.000487  4.015276  0.0  -0.082463  -0.091463  0.000921  3.97892  0.001
C  C66  1  0.42263536  0.66350513  0.00923246  1  -0.043228  -0.007959  3.734116  -0.008  -0.018411  -0.003624  3.95995  -0.004  -0.024707  -0.002169  3.980991  -0.003  -0.011351  -0.014348  -0.004885  3.945907  -0.005
C  C67  1  0.57736587  0.33649478  0.99076747  1  -0.043245  0.007975  3.734209  0.008  -0.018361  0.003621  3.959938  0.004  -0.024661  0.00217  3.980982  0.003  -0.011308  -0.01429  0.004883  3.945891  0.005
C  C68  1  0.24368326  0.59974813  0.97789211  1  -0.05246  -0.002055  3.714171  -0.002  -0.079267  -0.001224  3.965363  -0.001  -0.080411  -0.000929  3.986661  -0.001  -0.081114  -0.078653  -0.001467  3.95119  -0.002
C  C69  1  0.75631778  0.40025382  0.02210820  1  -0.052416  0.002036  3.714166  0.002  -0.07926  0.001225  3.965326  0.001  -0.080404  0.000928  3.986629  0.001  -0.081154  -0.078651  0.001467  3.951161  0.002
C  C70  1  0.14188545  0.49810942  0.86201326  1  -0.085659  0.000156  3.714217  0.0  -0.110378  9.4e-05  3.969796  0.0  -0.113105  0.000335  3.99242  0.0  -0.086273  -0.108519  -0.000247  3.954522  0.0
C  C71  1  0.85811338  0.50189048  0.13798705  1  -0.08571  -0.000137  3.714126  0.0  -0.110433  -9.4e-05  3.969683  0.0  -0.11316  -0.000335  3.992303  0.0  -0.086257  -0.108579  0.000247  3.954417  0.0
C  C72  1  0.52925044  0.78784920  0.12423779  1  0.632761  0.002607  3.904372  0.005  0.589396  -0.000545  4.210202  0.001  0.626471  -0.000219  4.201955  0.001  0.202034  0.564134  -0.000874  4.214884  0.001
C  C73  1  0.47075297  0.21215275  0.87576473  1  0.632682  -0.00261  3.90429  -0.005  0.589272  0.000541  4.210162  -0.001  0.626353  0.000217  4.201908  -0.001  0.202002  0.564008  0.000874  4.21484  -0.001
N  N74  1  0.01212990  0.26750514  0.15191392  1  0.687696  0.000373  4.166973  0.001  0.72054  0.000228  4.467861  0.0  0.748955  0.000192  4.474034  0.0  0.089451  0.70336  0.000265  4.462235  0.0
N  N75  1  0.98786730  0.73249374  0.84808154  1  0.687769  -0.000371  4.166859  -0.001  0.720436  -0.000234  4.467967  0.0  0.748854  -0.000199  4.474137  0.0  0.08941  0.703251  -0.000265  4.462348  0.0
N  N76  1  0.99938360  0.99545282  0.27990792  1  -0.315528  -0.086766  3.301796  -0.106  -0.272888  -0.062874  3.592442  -0.082  -0.302481  -0.051242  3.614013  -0.07  -0.33742  -0.255662  -0.070272  3.580065  -0.088
N  N77  1  0.00061387  0.00454913  0.72009165  1  -0.315424  0.086765  3.301888  0.106  -0.272845  0.062874  3.592538  0.082  -0.302441  0.051243  3.614137  0.07  -0.337402  -0.255622  0.070276  3.580149  0.088
N  N78  1  0.91984432  0.17004083  0.41205599  1  -0.361804  -0.085389  3.43476  -0.104  -0.325558  -0.062799  3.737539  -0.082  -0.354813  -0.052682  3.752927  -0.072  -0.367058  -0.309389  -0.068076  3.730175  -0.085
N  N79  1  0.08015623  0.82996010  0.58794315  1  -0.361713  0.08538  3.434902  0.104  -0.325501  0.062792  3.7377  0.082  -0.35474  0.052676  3.753096  0.072  -0.366996  -0.309333  0.06807  3.730324  0.085
N  N80  1  0.62578248  0.13800653  0.26426541  1  -0.309559  -0.086723  3.282314  -0.106  -0.267718  -0.062512  3.573453  -0.081  -0.297204  -0.050915  3.592909  -0.07  -0.331698  -0.250347  -0.069762  3.562442  -0.087
N  N81  1  0.37422264  0.86199645  0.73573680  1  -0.309552  0.086745  3.282397  0.106  -0.267712  0.062511  3.573522  0.081  -0.297168  0.050916  3.592963  0.07  -0.331714  -0.250358  0.06976  3.562537  0.087
O  O82  1  0.88060282  0.15194355  0.10477383  1  -0.504623  -0.000247  1.765788  -0.002  -0.501453  -0.000647  2.010274  -0.002  -0.521825  0.000175  2.00056  -0.001  -0.226383  -0.487123  -0.002236  2.016244  -0.004
O  O83  1  0.11939698  0.84806557  0.89522768  1  -0.504638  0.000247  1.765582  0.002  -0.501442  0.000648  2.010141  0.002  -0.52181  -0.000173  2.000433  0.001  -0.226392  -0.487088  0.002236  2.016057  0.004
O  O84  1  0.08689152  0.31077419  0.08084908  1  -0.46994  -0.000124  1.735853  0.0  -0.455842  -4.3e-05  1.946942  0.0  -0.468693  0.00014  1.940404  0.0  -0.193344  -0.446218  -0.000542  1.950488  -0.001
O  O85  1  0.91310416  0.68922881  0.91914345  1  -0.469971  0.000123  1.735998  0.0  -0.455802  4.6e-05  1.947137  0.0  -0.468649  -0.000138  1.940587  0.0  -0.193318  -0.44618  0.000541  1.950682  0.001
O  O86  1  0.06416218  0.33531052  0.26800088  1  -0.492071  0.000163  1.737157  0.0  -0.488744  0.000406  1.955146  0.0  -0.501976  0.000342  1.94852  0.0  -0.212211  -0.479198  0.000331  1.959124  0.0
O  O87  1  0.93585118  0.66469454  0.73199741  1  -0.492097  -0.000163  1.737169  0.0  -0.488679  -0.000405  1.955166  0.0  -0.501911  -0.00034  1.948538  0.0  -0.21219  -0.479139  -0.000331  1.959148  0.0
O  O88  1  0.50660681  0.79647772  0.22743844  1  -0.626921  0.001103  1.908162  0.0  -0.595739  0.000917  2.145914  0.001  -0.618916  0.001253  2.133962  0.001  -0.330706  -0.578726  0.000444  2.153485  0.0
O  O89  1  0.49339666  0.20351706  0.77256177  1  -0.626876  -0.001103  1.908133  0.0  -0.595693  -0.000916  2.145918  -0.001  -0.618872  -0.001253  2.133963  -0.001  -0.330715  -0.57868  -0.000445  2.153483  0.0
O  O90  1  0.64086068  0.88248159  0.10187972  1  -0.591719  -0.087591  2.063875  -0.113  -0.565986  -0.046082  2.356196  -0.065  -0.608547  -0.034687  2.347252  -0.051  -0.334818  -0.536728  -0.053285  2.361334  -0.072
O  O91  1  0.35913233  0.11751623  0.89812242  1  -0.591649  0.08761  2.063713  0.113  -0.565963  0.046088  2.356108  0.065  -0.608472  0.034692  2.347086  0.051  -0.334765  -0.536707  0.053292  2.361235  0.072
