# generated using pymatgen
data_CoH10C12Br2(NO3)2
_symmetry_space_group_name_H-M   'P 1'
_cell_length_a   7.03927383
_cell_length_b   9.88947438
_cell_length_c   10.27281401
_cell_angle_alpha   90.00017501
_cell_angle_beta   97.33204261
_cell_angle_gamma   89.99905214
_symmetry_Int_Tables_number   1
_chemical_formula_structural   CoH10C12Br2(NO3)2
_chemical_formula_sum   'Co2 H20 C24 Br4 N4 O12'
_cell_volume   709.29152167
_cell_formula_units_Z   2
loop_
 _symmetry_equiv_pos_site_id
 _symmetry_equiv_pos_as_xyz
  1  'x, y, z'
loop_
 _atom_site_type_symbol
 _atom_site_label
 _atom_site_symmetry_multiplicity
 _atom_site_fract_x
 _atom_site_fract_y
 _atom_site_fract_z
 _atom_site_occupancy
 _atom_site_hle17_ddec_charge
 _atom_site_hle17_ddec_spin_density
 _atom_site_hle17_ddec_sum_bond_order
 _atom_site_hle17_magmom
 _atom_site_hse06_10hf_ddec_charge
 _atom_site_hse06_10hf_ddec_spin_density
 _atom_site_hse06_10hf_ddec_sum_bond_order
 _atom_site_hse06_10hf_magmom
 _atom_site_hse06_ddec_charge
 _atom_site_hse06_ddec_spin_density
 _atom_site_hse06_ddec_sum_bond_order
 _atom_site_hse06_magmom
 _atom_site_pbe_cm5_charge
 _atom_site_pbe_ddec_charge
 _atom_site_pbe_ddec_spin_density
 _atom_site_pbe_ddec_sum_bond_order
 _atom_site_pbe_magmom
Co  Co0  1  0.99999876  0.99999946  0.49999933  1  1.074768  -2.88038  1.922232  -2.625  1.040831  -2.860887  2.314068  -2.68  1.105647  -2.892088  2.250814  -2.743  0.680101  0.990084  -2.833099  2.361345  -2.621
Co  Co1  1  0.50000040  0.50000013  0.50000059  1  1.074877  -2.880374  1.922053  -2.625  1.040971  -2.860887  2.313876  -2.68  1.105757  -2.892084  2.250623  -2.743  0.680155  0.990196  -2.8331  2.361206  -2.621
H  H2  1  0.78725440  0.87798844  0.66549206  1  0.4268  -8.8e-05  0.871855  0.0  0.397017  -0.000355  0.935413  -0.001  0.407559  -0.000189  0.920285  -0.001  0.292925  0.389662  -0.000516  0.94574  -0.001
H  H3  1  0.71274322  0.37798807  0.33451027  1  0.426854  -8.8e-05  0.87179  0.0  0.397081  -0.000354  0.935323  -0.001  0.407625  -0.000188  0.920191  -0.001  0.292963  0.389729  -0.000516  0.945646  -0.001
H  H4  1  0.21274497  0.12201182  0.33450801  1  0.426813  -8.8e-05  0.871845  0.0  0.397033  -0.000354  0.935396  -0.001  0.407574  -0.000188  0.920268  -0.001  0.292929  0.389683  -0.000516  0.945717  -0.001
H  H5  1  0.28725759  0.62201117  0.66548896  1  0.426799  -8.8e-05  0.87178  0.0  0.397006  -0.000354  0.935416  -0.001  0.407551  -0.000188  0.920283  -0.001  0.292927  0.389652  -0.000516  0.945743  -0.001
H  H6  1  0.96331804  0.77335290  0.65726751  1  0.4277  -0.00032  0.876517  -0.001  0.395174  -0.000623  0.942969  -0.001  0.407564  -0.00045  0.925166  -0.001  0.287299  0.385562  -0.000864  0.956677  -0.002
H  H7  1  0.53668339  0.27335061  0.34273582  1  0.427667  -0.00032  0.876555  -0.001  0.395169  -0.000623  0.942963  -0.001  0.407559  -0.000449  0.925161  -0.001  0.287319  0.385566  -0.000864  0.956658  -0.002
H  H8  1  0.03668133  0.22664736  0.34273256  1  0.427679  -0.000321  0.876546  -0.001  0.395184  -0.000623  0.942948  -0.001  0.407574  -0.000449  0.925145  -0.001  0.287309  0.385577  -0.000864  0.956651  -0.002
H  H9  1  0.46331599  0.72664965  0.65726328  1  0.427703  -0.000321  0.876505  -0.001  0.395217  -0.000623  0.942889  -0.001  0.407606  -0.000449  0.925088  -0.001  0.28734  0.385609  -0.000864  0.95659  -0.002
H  H10  1  0.89708852  0.55609618  0.10553780  1  0.105336  -5.3e-05  0.971952  0.0  0.109458  0.000132  1.048466  0.0  0.113549  8.9e-05  1.044006  0.0  0.09569  0.1059  0.000183  1.052777  0.0
H  H11  1  0.60290930  0.05609586  0.89446259  1  0.105316  -5.4e-05  0.971961  0.0  0.109447  0.000132  1.048445  0.0  0.113538  8.9e-05  1.043988  0.0  0.095694  0.10589  0.000183  1.052755  0.0
H  H12  1  0.10291802  0.44390408  0.89446195  1  0.105343  -5.4e-05  0.971977  0.0  0.109468  0.000132  1.048469  0.0  0.113561  8.9e-05  1.044005  0.0  0.095692  0.105901  0.000183  1.052787  0.0
H  H13  1  0.39708720  0.94390541  0.10553818  1  0.105316  -5.4e-05  0.971978  0.0  0.10945  0.000132  1.048448  0.0  0.113543  8.9e-05  1.043987  0.0  0.095693  0.105888  0.000183  1.052763  0.0
H  H14  1  0.90691047  0.98162648  0.20517155  1  0.098727  -0.000415  0.944146  -0.001  0.101371  -0.000359  1.014815  -0.001  0.105543  -0.000191  1.010292  -0.001  0.114034  0.097626  -0.000508  1.019458  -0.001
H  H15  1  0.59309342  0.48162596  0.79482680  1  0.098702  -0.000415  0.944164  -0.001  0.101352  -0.00036  1.014822  -0.001  0.105528  -0.000191  1.010286  -0.001  0.114015  0.097608  -0.000508  1.019457  -0.001
H  H16  1  0.09308892  0.01837277  0.79482658  1  0.098741  -0.000415  0.944101  -0.001  0.101386  -0.000359  1.014757  -0.001  0.105555  -0.000191  1.010241  -0.001  0.114028  0.097642  -0.000508  1.019398  -0.001
H  H17  1  0.40690882  0.51837429  0.20517353  1  0.098753  -0.000415  0.944106  -0.001  0.101392  -0.00036  1.014766  -0.001  0.105567  -0.000191  1.01023  -0.001  0.114035  0.097649  -0.000508  1.019405  -0.001
H  H18  1  0.12676441  0.70581205  0.48792971  1  0.093399  -3e-05  0.96997  -0.001  0.095902  1.7e-05  1.0429  -0.001  0.099974  0.0001  1.037997  -0.001  0.122035  0.092216  -7.8e-05  1.047547  -0.001
H  H19  1  0.37323338  0.20581338  0.51206708  1  0.093375  -3e-05  0.969984  -0.001  0.095884  1.7e-05  1.042916  -0.001  0.099957  0.0001  1.038014  -0.001  0.122021  0.092199  -7.8e-05  1.047563  -0.001
H  H20  1  0.87323069  0.29418922  0.51206802  1  0.093373  -2.9e-05  0.970003  -0.001  0.095887  1.7e-05  1.042909  -0.001  0.099961  0.0001  1.038005  -0.001  0.122016  0.092199  -7.8e-05  1.047559  -0.001
H  H21  1  0.62676743  0.79418688  0.48793312  1  0.093443  -2.9e-05  0.969968  -0.001  0.095911  1.7e-05  1.042944  -0.001  0.099983  9.9e-05  1.038042  -0.001  0.122052  0.092223  -7.8e-05  1.047594  -0.001
C  C22  1  0.06516781  0.47042557  0.34759514  1  0.670699  0.001483  3.866222  -0.001  0.619692  -0.001668  4.161938  -0.004  0.655093  -0.001307  4.154591  -0.004  0.219999  0.595446  -0.001624  4.16583  -0.004
C  C23  1  0.43482244  0.97042819  0.65240760  1  0.671005  0.001483  3.866169  -0.001  0.62  -0.001667  4.161863  -0.004  0.655403  -0.001305  4.154508  -0.004  0.219992  0.59575  -0.001624  4.165763  -0.004
C  C24  1  0.93483299  0.52957570  0.65240506  1  0.670788  0.001488  3.866126  -0.001  0.619762  -0.001668  4.161862  -0.004  0.655165  -0.001309  4.154511  -0.004  0.220015  0.595511  -0.001624  4.165756  -0.004
C  C25  1  0.56517549  0.02957207  0.34759331  1  0.670963  0.001486  3.866211  -0.001  0.619946  -0.001667  4.161916  -0.004  0.655344  -0.001306  4.154563  -0.004  0.220002  0.595704  -0.001624  4.165809  -0.004
C  C26  1  0.01910967  0.61272555  0.30217623  1  -0.093368  -0.006013  3.718616  -0.009  -0.066444  -0.001469  3.955346  -0.003  -0.078252  -0.001161  3.976716  -0.002  -0.010896  -0.059583  -0.001749  3.941914  -0.003
C  C27  1  0.48088877  0.11272618  0.69782423  1  -0.093462  -0.006013  3.71858  -0.009  -0.066553  -0.001468  3.955347  -0.003  -0.078359  -0.001161  3.976711  -0.002  -0.010889  -0.059693  -0.00175  3.941922  -0.003
C  C28  1  0.98089257  0.38727471  0.69782410  1  -0.093339  -0.00603  3.718564  -0.009  -0.066409  -0.001469  3.955282  -0.003  -0.078227  -0.001159  3.976671  -0.002  -0.010889  -0.059547  -0.001749  3.941847  -0.003
C  C29  1  0.51911204  0.88727408  0.30217500  1  -0.093552  -0.006017  3.718652  -0.009  -0.066611  -0.001469  3.955369  -0.003  -0.078413  -0.00116  3.976738  -0.002  -0.010919  -0.059747  -0.00175  3.941935  -0.003
C  C30  1  0.93267322  0.63871119  0.17444011  1  -0.069752  0.016489  3.707502  0.01  -0.110893  0.00471  3.962852  0.003  -0.104814  0.003075  3.978706  0.002  -0.077852  -0.114832  0.007409  3.952807  0.004
C  C31  1  0.56732845  0.13871209  0.82556089  1  -0.069657  0.016493  3.707414  0.01  -0.110803  0.00471  3.962787  0.003  -0.104717  0.003071  3.978623  0.002  -0.07785  -0.114745  0.007412  3.952747  0.004
C  C32  1  0.06733188  0.36128806  0.82556048  1  -0.069803  0.01653  3.707419  0.01  -0.110953  0.004709  3.962783  0.003  -0.104874  0.00307  3.97864  0.002  -0.077916  -0.114886  0.007409  3.952744  0.004
C  C33  1  0.43267091  0.86128817  0.17444015  1  -0.069659  0.016501  3.70743  0.01  -0.110814  0.004712  3.962823  0.003  -0.104727  0.003072  3.978652  0.002  -0.07785  -0.114753  0.007413  3.952783  0.004
C  C34  1  0.89740339  0.77284688  0.13764042  1  0.025274  -0.006381  3.742885  -0.01  0.046492  -0.001814  4.010979  -0.003  0.042649  -0.001392  4.034815  -0.002  -0.022304  0.048728  -0.002148  3.995222  -0.004
C  C35  1  0.60259665  0.27284545  0.86235987  1  0.025202  -0.006379  3.742942  -0.01  0.046433  -0.001813  4.01101  -0.003  0.042589  -0.001389  4.034849  -0.002  -0.022348  0.048667  -0.002148  3.995259  -0.004
C  C36  1  0.10259598  0.22715237  0.86235965  1  0.025265  -0.006397  3.742793  -0.01  0.046514  -0.001813  4.010827  -0.003  0.042669  -0.001391  4.034668  -0.002  -0.022294  0.04875  -0.002148  3.99507  -0.004
C  C37  1  0.39740271  0.72715480  0.13764117  1  0.025238  -0.006383  3.742862  -0.01  0.046449  -0.001814  4.010939  -0.003  0.042605  -0.001391  4.034779  -0.002  -0.022343  0.048685  -0.002148  3.995183  -0.004
C  C38  1  0.93644790  0.87588867  0.22953939  1  0.074219  0.01643  3.704397  0.011  0.037848  0.0041  3.963556  0.003  0.047  0.003348  3.978132  0.002  0.036623  0.030644  0.005687  3.955535  0.003
C  C39  1  0.56355410  0.37588843  0.77045944  1  0.074218  0.016431  3.704375  0.011  0.037852  0.004101  3.963544  0.003  0.047005  0.003348  3.978125  0.002  0.036653  0.03065  0.00569  3.955516  0.003
C  C40  1  0.06354862  0.12411058  0.77045945  1  0.074144  0.016461  3.7043  0.011  0.037785  0.004098  3.963489  0.003  0.046953  0.00335  3.978035  0.002  0.036623  0.03058  0.005687  3.955469  0.003
C  C41  1  0.43644813  0.62411183  0.22954186  1  0.07415  0.016439  3.704343  0.011  0.037806  0.004101  3.963503  0.003  0.046965  0.00335  3.978077  0.002  0.036627  0.030602  0.00569  3.955478  0.003
C  C42  1  0.05856321  0.72154215  0.38821924  1  0.13772  0.017196  3.629077  0.011  0.095051  0.004812  3.890694  0.003  0.106078  0.003847  3.904169  0.002  0.054975  0.087638  0.006157  3.883354  0.004
C  C43  1  0.44143705  0.22154298  0.61178074  1  0.137715  0.017185  3.629141  0.011  0.095038  0.004811  3.890795  0.003  0.106064  0.003853  3.904271  0.002  0.054963  0.087626  0.006159  3.883455  0.004
C  C44  1  0.94143616  0.27845810  0.61178083  1  0.137643  0.017217  3.629165  0.011  0.094997  0.004809  3.890782  0.003  0.106025  0.003852  3.904261  0.002  0.054974  0.087585  0.006156  3.883445  0.004
C  C45  1  0.55856518  0.77845829  0.38822056  1  0.137722  0.01719  3.629044  0.011  0.095064  0.004812  3.890695  0.003  0.106088  0.003856  3.904173  0.002  0.054955  0.08765  0.006159  3.883356  0.004
Br  Br46  1  0.78994671  0.81679151  0.96407386  1  -0.023085  -0.001598  1.403848  -0.002  -0.019829  -0.00153  1.680847  -0.002  -0.023028  -0.001032  1.673689  -0.001  0.068337  -0.017528  -0.002049  1.687702  -0.002
Br  Br47  1  0.71004516  0.31678821  0.03592678  1  -0.023071  -0.001597  1.403826  -0.002  -0.019817  -0.001529  1.680814  -0.002  -0.023015  -0.001034  1.673655  -0.001  0.06835  -0.01751  -0.00205  1.687668  -0.002
Br  Br48  1  0.21005410  0.18320571  0.03592537  1  -0.023075  -0.001599  1.403872  -0.002  -0.019837  -0.00153  1.680866  -0.002  -0.023035  -0.001032  1.67371  -0.001  0.068344  -0.017524  -0.00205  1.687709  -0.002
Br  Br49  1  0.28995565  0.68321205  0.96407342  1  -0.023077  -0.001598  1.403801  -0.002  -0.019822  -0.001529  1.68079  -0.002  -0.023022  -0.001032  1.673632  -0.001  0.068349  -0.017518  -0.00205  1.687642  -0.002
N  N50  1  0.01188452  0.84937526  0.35404160  1  -0.303593  -0.034675  3.298181  -0.064  -0.254792  -0.023904  3.581884  -0.04  -0.277129  -0.019506  3.596846  -0.033  -0.324397  -0.239726  -0.027808  3.573215  -0.045
N  N51  1  0.48811714  0.34937261  0.64595695  1  -0.303513  -0.034672  3.298139  -0.064  -0.25474  -0.023904  3.581863  -0.04  -0.277072  -0.019507  3.596823  -0.033  -0.324357  -0.239669  -0.027808  3.573193  -0.045
N  N52  1  0.98811344  0.15062601  0.64595639  1  -0.303466  -0.034686  3.298118  -0.064  -0.254726  -0.023903  3.581866  -0.04  -0.277065  -0.019508  3.596832  -0.033  -0.324373  -0.23966  -0.027807  3.573198  -0.045
N  N53  1  0.51188366  0.65062664  0.35404422  1  -0.303532  -0.034675  3.298065  -0.064  -0.254757  -0.023904  3.58176  -0.04  -0.277091  -0.019508  3.59672  -0.033  -0.324357  -0.239686  -0.027809  3.573091  -0.045
O  O54  1  0.94915171  0.37764787  0.30038109  1  -0.636844  -0.00575  2.003817  -0.01  -0.566416  -0.003358  2.215947  -0.006  -0.593295  -0.001953  2.205648  -0.004  -0.311666  -0.546663  -0.005031  2.222583  -0.009
O  O55  1  0.55083300  0.87764408  0.69962395  1  -0.637037  -0.00575  2.003742  -0.01  -0.566616  -0.003359  2.215889  -0.006  -0.593497  -0.001949  2.205587  -0.004  -0.311727  -0.546849  -0.005031  2.222512  -0.009
O  O56  1  0.05085053  0.62235340  0.69961924  1  -0.63692  -0.005751  2.003777  -0.01  -0.566438  -0.003358  2.215898  -0.006  -0.593326  -0.001952  2.205612  -0.004  -0.311672  -0.546669  -0.005031  2.22252  -0.009
O  O57  1  0.44916350  0.12235618  0.30037683  1  -0.636966  -0.00575  2.003797  -0.01  -0.566523  -0.003359  2.21592  -0.006  -0.593414  -0.001951  2.205649  -0.004  -0.311712  -0.54679  -0.005031  2.222566  -0.009
O  O58  1  0.21126178  0.44750450  0.42984989  1  -0.623529  -0.023669  2.0718  -0.044  -0.586963  -0.019596  2.345149  -0.032  -0.618515  -0.015488  2.334404  -0.025  -0.307349  -0.562474  -0.024033  2.35139  -0.039
O  O59  1  0.28873331  0.94751163  0.57015127  1  -0.623562  -0.023671  2.071963  -0.044  -0.586969  -0.0196  2.345297  -0.032  -0.61852  -0.015495  2.334539  -0.025  -0.307257  -0.562482  -0.024037  2.35154  -0.039
O  O60  1  0.78874044  0.55249676  0.57015238  1  -0.623539  -0.023668  2.071771  -0.044  -0.586976  -0.019595  2.345138  -0.032  -0.618522  -0.015487  2.334385  -0.025  -0.307336  -0.562491  -0.024032  2.351387  -0.039
O  O61  1  0.71126750  0.05248863  0.42984893  1  -0.623566  -0.023673  2.071901  -0.044  -0.586967  -0.019601  2.345213  -0.032  -0.618529  -0.015494  2.334484  -0.025  -0.307284  -0.562478  -0.024038  2.351448  -0.039
O  O62  1  0.91552831  0.86801541  0.63609012  1  -0.847107  -0.032428  2.00402  -0.056  -0.813124  -0.028649  2.231715  -0.045  -0.842842  -0.021749  2.196484  -0.034  -0.577526  -0.787704  -0.036475  2.256425  -0.056
O  O63  1  0.58446953  0.36801464  0.36391316  1  -0.847172  -0.032434  2.004033  -0.056  -0.813225  -0.028652  2.231722  -0.045  -0.842938  -0.021752  2.196483  -0.034  -0.577585  -0.787804  -0.036481  2.256436  -0.056
O  O64  1  0.08447106  0.13198485  0.36390994  1  -0.847094  -0.032428  2.003987  -0.056  -0.813147  -0.028648  2.231653  -0.045  -0.842862  -0.021749  2.19642  -0.034  -0.577537  -0.787727  -0.036474  2.256351  -0.056
O  O65  1  0.41553128  0.63198562  0.63608606  1  -0.847109  -0.032435  2.003932  -0.056  -0.813153  -0.028653  2.231674  -0.045  -0.842866  -0.021753  2.196433  -0.034  -0.577568  -0.787738  -0.036483  2.256402  -0.056
