# generated using pymatgen
data_AgH3CN6
_symmetry_space_group_name_H-M   'P 1'
_cell_length_a   3.64563025
_cell_length_b   9.02661936
_cell_length_c   14.48261071
_cell_angle_alpha   92.12728244
_cell_angle_beta   88.82839552
_cell_angle_gamma   100.27580832
_symmetry_Int_Tables_number   1
_chemical_formula_structural   AgH3CN6
_chemical_formula_sum   'Ag4 H12 C4 N24'
_cell_volume   468.57585644
_cell_formula_units_Z   4
loop_
 _symmetry_equiv_pos_site_id
 _symmetry_equiv_pos_as_xyz
  1  'x, y, z'
loop_
 _atom_site_type_symbol
 _atom_site_label
 _atom_site_symmetry_multiplicity
 _atom_site_fract_x
 _atom_site_fract_y
 _atom_site_fract_z
 _atom_site_occupancy
 _atom_site_pbe_bader_spin_density
 _atom_site_pbe_cm5_charge
 _atom_site_pbe_ddec_charge
 _atom_site_pbe_ddec_spin_density
 _atom_site_pbe_ddec_sum_bond_order
 _atom_site_pbe_magmom
Ag  Ag0  1  0.79095055  0.66808379  0.66488618  1  0  0.482863  0.314347  0  2.126101  0
Ag  Ag1  1  0.07738423  0.33483326  0.83776301  1  0  0.49531  0.323462  0  2.141246  0
Ag  Ag2  1  0.20905394  0.33191441  0.33511448  1  0  0.482867  0.314359  0  2.126054  0
Ag  Ag3  1  0.92261351  0.66516837  0.16224119  1  0  0.49531  0.323499  0  2.14116  0
H  H4  1  0.32051412  0.92704157  0.66697919  1  0  0.281189  0.296674  0  0.984041  0
H  H5  1  0.38886231  0.07775526  0.82439882  1  0  0.279756  0.294839  0  0.988508  0
H  H6  1  0.67948383  0.07296006  0.33301949  1  0  0.281178  0.296646  0  0.984079  0
H  H7  1  0.61114223  0.92224858  0.17559851  1  0  0.279751  0.294867  0  0.988407  0
H  H8  1  0.94763416  0.97674567  0.62739320  1  0  0.276396  0.294422  0  1.016364  0
H  H9  1  0.97174339  0.02074856  0.86750021  1  0  0.274336  0.292652  0  1.021554  0
H  H10  1  0.05235885  0.02325146  0.37260746  1  0  0.276383  0.294397  0  1.01641  0
H  H11  1  0.02825953  0.97925191  0.13249774  1  0  0.274338  0.292654  0  1.021552  0
H  H12  1  0.20657439  0.88284366  0.55945336  1  0  0.274609  0.298147  0  1.010367  0
H  H13  1  0.30888303  0.11447663  0.93399636  1  0  0.273191  0.297413  0  1.011974  0
H  H14  1  0.79341919  0.11715460  0.44054664  1  0  0.274601  0.29813  0  1.010385  0
H  H15  1  0.69112375  0.88552043  0.06600220  1  0  0.273191  0.297407  0  1.011995  0
C  C16  1  0.61040913  0.35565719  0.56423595  1  0  0.302892  0.326281  0  4.114268  0
C  C17  1  0.26761656  0.64438183  0.93953960  1  0  0.300222  0.324197  0  4.119426  0
C  C18  1  0.38958928  0.64433991  0.43576677  1  0  0.302917  0.326225  0  4.114303  0
C  C19  1  0.73237489  0.35561757  0.06045836  1  0  0.300204  0.324277  0  4.119358  0
N  N20  1  0.75294832  0.42072926  0.64447722  1  0  -0.24249  -0.237939  0  3.50873  0
N  N21  1  0.33206593  0.58248483  0.85563289  1  0  -0.240204  -0.252479  0  3.489969  0
N  N22  1  0.24705341  0.57926896  0.35552414  1  0  -0.242431  -0.237903  0  3.508712  0
N  N23  1  0.66793588  0.41751903  0.14436445  1  0  -0.240224  -0.252522  0  3.489929  0
N  N24  1  0.81239660  0.30656605  0.69440897  1  0  -0.12116  -0.034087  0  3.507293  0
N  N25  1  0.51908384  0.69623624  0.80818279  1  0  -0.123199  -0.040595  0  3.511341  0
N  N26  1  0.18760563  0.69343330  0.30559310  1  0  -0.121192  -0.034072  0  3.507317  0
N  N27  1  0.48091958  0.30376536  0.19181587  1  0  -0.123207  -0.040649  0  3.511164  0
N  N28  1  0.71192694  0.17667295  0.64612699  1  0  -0.09106  -0.078616  0  3.263536  0
N  N29  1  0.56913426  0.82245258  0.86155597  1  0  -0.090136  -0.070567  0  3.258484  0
N  N30  1  0.28806977  0.82332643  0.35387648  1  0  -0.091121  -0.078739  0  3.263406  0
N  N31  1  0.43086595  0.17754790  0.13844129  1  0  -0.09021  -0.070623  0  3.258509  0
N  N32  1  0.58894976  0.20490889  0.56373665  1  0  -0.202175  -0.256412  0  3.204284  0
N  N33  1  0.41781671  0.79226724  0.94479163  1  0  -0.201233  -0.254422  0  3.19488  0
N  N34  1  0.41104589  0.79508823  0.43626677  1  0  -0.202146  -0.256282  0  3.204206  0
N  N35  1  0.58217960  0.20773665  0.05520641  1  0  -0.20108  -0.254293  0  3.195072  0
N  N36  1  0.51542055  0.43128264  0.48983321  1  0  -0.16255  -0.144277  0  3.373809  0
N  N37  1  0.09197422  0.56549446  0.01244512  1  0  -0.174041  -0.136966  0  3.401889  0
N  N38  1  0.48457735  0.56871333  0.51016880  1  0  -0.162523  -0.144207  0  3.373769  0
N  N39  1  0.90802379  0.43450716  0.98755218  1  0  -0.174009  -0.136937  0  3.401853  0
N  N40  1  0.09776732  0.89046967  0.62522697  1  0  -0.796194  -0.774199  0  3.260116  0
N  N41  1  0.19435791  0.10873888  0.86930212  1  0  -0.796368  -0.781961  0  3.25728  0
N  N42  1  0.90222680  0.10952971  0.37477236  1  0  -0.796174  -0.77414  0  3.26019  0
N  N43  1  0.80564722  0.89126045  0.13069579  1  0  -0.796377  -0.782008  0  3.257173  0
