# generated using pymatgen
data_FeSi4H44(C11N2)2
_symmetry_space_group_name_H-M   'P 1'
_cell_length_a   9.15972519
_cell_length_b   11.05650738
_cell_length_c   15.96509376
_cell_angle_alpha   78.74659498
_cell_angle_beta   73.32184017
_cell_angle_gamma   65.53918538
_symmetry_Int_Tables_number   1
_chemical_formula_structural   FeSi4H44(C11N2)2
_chemical_formula_sum   'Fe2 Si8 H88 C44 N8'
_cell_volume   1404.41364024
_cell_formula_units_Z   2
loop_
 _symmetry_equiv_pos_site_id
 _symmetry_equiv_pos_as_xyz
  1  'x, y, z'
loop_
 _atom_site_type_symbol
 _atom_site_label
 _atom_site_symmetry_multiplicity
 _atom_site_fract_x
 _atom_site_fract_y
 _atom_site_fract_z
 _atom_site_occupancy
 _atom_site_pbe_cm5_charge
 _atom_site_pbe_ddec_charge
 _atom_site_pbe_ddec_spin_density
 _atom_site_pbe_ddec_sum_bond_order
 _atom_site_pbe_magmom
Fe  Fe0  1  0.62109068  0.25034774  0.75039682  1  0.804542  0.835411  3.939144  2.875662  3.501
Fe  Fe1  1  0.37794999  0.75036983  0.25034398  1  0.804252  0.835738  3.938703  2.875303  3.502
Si  Si2  1  0.48676700  0.17034769  0.61854665  1  0.183848  1.126937  0.00931  3.928284  0.005
Si  Si3  1  0.72445795  0.67031681  0.11854207  1  0.183499  1.126795  0.009314  3.925574  0.005
Si  Si4  1  0.51395243  0.82948213  0.38178974  1  0.184314  1.125725  0.009333  3.928628  0.005
Si  Si5  1  0.27468755  0.32955794  0.88190104  1  0.184314  1.127122  0.00932  3.928411  0.005
Si  Si6  1  0.74496183  0.94930095  0.70584661  1  0.18769  1.121793  0.010149  3.927175  0.005
Si  Si7  1  0.59973317  0.44937806  0.20582772  1  0.1876  1.122424  0.010109  3.925701  0.005
Si  Si8  1  0.25610632  0.05054991  0.29398770  1  0.187649  1.120955  0.010768  3.929815  0.006
Si  Si9  1  0.39951668  0.55056944  0.79420383  1  0.187312  1.120574  0.01076  3.929798  0.006
H  H10  1  0.31683080  0.38482265  0.55319290  1  0.08254  0.156847  -0.000127  1.054106  0.001
H  H11  1  0.74526782  0.88487038  0.05318064  1  0.082816  0.157349  -0.000131  1.054048  0.001
H  H12  1  0.68290836  0.61480030  0.44734229  1  0.082929  0.157542  -0.000138  1.055179  0.001
H  H13  1  0.25496239  0.11476259  0.94730353  1  0.082773  0.157007  -0.000129  1.054666  0.001
H  H14  1  0.48999186  0.40058528  0.57069501  1  0.086752  0.161473  -0.000186  1.051861  0.0
H  H15  1  0.53889033  0.90052395  0.07075144  1  0.086279  0.160714  -0.00018  1.050274  0.0
H  H16  1  0.50982932  0.59948030  0.42939620  1  0.087044  0.162437  -0.000341  1.051008  0.0
H  H17  1  0.46128616  0.09954113  0.92931281  1  0.086543  0.161289  -0.000339  1.049629  0.0
H  H18  1  0.32153043  0.40460008  0.66080588  1  0.088964  0.163523  0.000277  1.062253  0.0
H  H19  1  0.61325787  0.90449930  0.16082753  1  0.089128  0.163968  0.000277  1.062032  0.0
H  H20  1  0.67893369  0.59513353  0.33961509  1  0.088949  0.164512  0.00025  1.060993  0.0
H  H21  1  0.38624177  0.09533614  0.83954543  1  0.089106  0.164189  0.000255  1.060716  0.0
H  H22  1  0.51634638  0.14895929  0.46238174  1  0.088719  0.163299  0.000556  1.049332  0.001
H  H23  1  0.87241206  0.64884955  0.96233945  1  0.088483  0.162717  0.000559  1.04946  0.001
H  H24  1  0.48496828  0.85091075  0.53761309  1  0.088456  0.162962  0.000541  1.047983  0.001
H  H25  1  0.12666697  0.35107855  0.03777200  1  0.088447  0.162633  0.000548  1.048551  0.001
H  H26  1  0.65536387  0.00110879  0.50676120  1  0.087759  0.163186  -0.000144  1.055474  0.0
H  H27  1  0.83681216  0.50101591  0.00678650  1  0.0878  0.163282  -0.000145  1.054966  0.0
H  H28  1  0.34558034  0.99888410  0.49353802  1  0.087749  0.163281  -0.000142  1.054936  0.0
H  H29  1  0.16235923  0.49895822  0.99353084  1  0.08769  0.163206  -0.000139  1.054425  0.0
H  H30  1  0.70180323  0.14618543  0.47664447  1  0.085017  0.157738  -1.5e-05  1.056929  0.0
H  H31  1  0.67544351  0.64608700  0.97670927  1  0.085309  0.158168  -1.6e-05  1.056543  0.0
H  H32  1  0.29898002  0.85377669  0.52396710  1  0.085253  0.15852  -4e-06  1.05642  0.0
H  H33  1  0.32354635  0.35384511  0.02395731  1  0.085552  0.158946  -5e-06  1.056321  0.0
H  H34  1  0.21948556  0.16237269  0.61572533  1  0.083393  0.157176  0.000235  1.042795  0.001
H  H35  1  0.00252505  0.66243073  0.11561252  1  0.082961  0.156578  0.00024  1.041742  0.001
H  H36  1  0.78157755  0.83647280  0.38473056  1  0.083373  0.157264  0.000201  1.041604  0.001
H  H37  1  0.99713959  0.33646535  0.88493221  1  0.083227  0.157141  0.000201  1.042263  0.001
H  H38  1  0.23780402  0.14978791  0.72515696  1  0.085273  0.155429  -0.00068  1.067236  0.0
H  H39  1  0.88744855  0.64988686  0.22508815  1  0.085807  0.156408  -0.000678  1.066895  0.0
H  H40  1  0.76274470  0.84991585  0.27521914  1  0.085611  0.1556  -0.000613  1.067177  0.0
H  H41  1  0.11205069  0.34991220  0.77541420  1  0.085906  0.156185  -0.000619  1.066403  0.0
H  H42  1  0.34298810  0.00814695  0.66312002  1  0.085621  0.161376  -2.9e-05  1.05171  0.0
H  H43  1  0.98591317  0.50821024  0.16309424  1  0.085647  0.161454  -2.6e-05  1.05172  0.0
H  H44  1  0.65825900  0.99125121  0.33765659  1  0.085498  0.161199  -2.6e-05  1.050443  0.0
H  H45  1  0.01269769  0.49129346  0.83782801  1  0.085516  0.161313  -2.7e-05  1.051069  0.0
H  H46  1  0.76152204  0.72610909  0.68837433  1  0.085748  0.158141  0.000367  1.040023  0.001
H  H47  1  0.82395777  0.22616604  0.18848366  1  0.085507  0.157875  0.000347  1.041005  0.001
H  H48  1  0.23954765  0.27381725  0.31108603  1  0.085961  0.158142  0.00041  1.040106  0.001
H  H49  1  0.17579291  0.77380482  0.81116266  1  0.086047  0.158156  0.000424  1.041489  0.001
H  H50  1  0.68957538  0.83718339  0.59956790  1  0.086089  0.157365  -0.000116  1.058728  0.0
H  H51  1  0.87360867  0.33739073  0.09975144  1  0.085563  0.156968  -0.000111  1.059189  0.0
H  H52  1  0.31158976  0.16275102  0.39999682  1  0.086083  0.157571  -0.000128  1.0571  0.0
H  H53  1  0.12569110  0.66283856  0.90008653  1  0.085982  0.157593  -0.000127  1.057515  0.0
H  H54  1  0.55487322  0.83997312  0.70506986  1  0.088077  0.157705  -9.4e-05  1.049667  0.0
H  H55  1  0.89992113  0.34012221  0.20526727  1  0.088161  0.157883  -8.9e-05  1.049572  0.0
H  H56  1  0.44630622  0.15991642  0.29444856  1  0.08802  0.15731  -9.9e-05  1.049172  0.0
H  H57  1  0.09956414  0.65985055  0.79452636  1  0.088459  0.158391  -9.9e-05  1.048122  0.0
H  H58  1  0.96277955  0.93285587  0.56831934  1  0.086987  0.159913  -0.000292  1.042703  0.0
H  H59  1  0.53612346  0.43294690  0.06821749  1  0.087203  0.160445  -0.000302  1.042798  0.0
H  H60  1  0.03794579  0.06602919  0.43146428  1  0.087001  0.160252  -0.000251  1.042708  0.0
H  H61  1  0.46493863  0.56607006  0.93166854  1  0.086974  0.160427  -0.000249  1.043008  0.0
H  H62  1  0.04900402  0.81996591  0.65365046  1  0.084741  0.15875  0.000339  1.039778  0.0
H  H63  1  0.47753579  0.31990784  0.15352678  1  0.084935  0.15898  0.000341  1.03905  0.0
H  H64  1  0.95196434  0.17940883  0.34619784  1  0.084927  0.15916  0.00034  1.03996  0.0
H  H65  1  0.52276884  0.67939079  0.84631374  1  0.085072  0.159438  0.000339  1.039262  0.0
H  H66  1  0.01007344  0.99168226  0.64846830  1  0.083884  0.157196  -9e-06  1.057225  0.0
H  H67  1  0.34985402  0.49163882  0.14844711  1  0.083983  0.157234  -7e-06  1.0568  0.0
H  H68  1  0.99187092  0.00760172  0.35057625  1  0.083967  0.156948  -2.5e-05  1.057949  0.0
H  H69  1  0.65020067  0.50759268  0.85067871  1  0.083997  0.157147  -2.6e-05  1.057045  0.0
H  H70  1  0.83112227  0.78348722  0.82845581  1  0.085455  0.156666  7.1e-05  1.058098  0.0
H  H71  1  0.55648740  0.28360846  0.32843472  1  0.085259  0.156223  7e-05  1.058758  0.0
H  H72  1  0.16807761  0.21517971  0.17116232  1  0.085441  0.156609  9.4e-05  1.058629  0.0
H  H73  1  0.44577218  0.71523844  0.67138219  1  0.08559  0.156811  8.9e-05  1.058134  0.0
H  H74  1  0.62200939  0.89120687  0.86046012  1  0.087473  0.164068  -8.2e-05  1.034854  0.0
H  H75  1  0.62557526  0.39150816  0.36044612  1  0.087179  0.163642  -7.9e-05  1.035066  0.0
H  H76  1  0.37751833  0.10817371  0.13883213  1  0.087308  0.164333  -0.000111  1.035254  0.0
H  H77  1  0.37591054  0.60802990  0.63907398  1  0.086983  0.163397  -0.000111  1.034412  0.0
H  H78  1  0.78088553  0.94324313  0.85984967  1  0.081938  0.157769  -0.000534  1.075998  0.0
H  H79  1  0.41535630  0.44339214  0.35969598  1  0.082111  0.158117  -0.000541  1.074363  0.0
H  H80  1  0.21917100  0.05471052  0.14071194  1  0.082381  0.15764  -0.000388  1.075882  0.0
H  H81  1  0.58575586  0.55478291  0.64099671  1  0.082008  0.157263  -0.000387  1.076109  0.0
H  H82  1  0.98112516  0.10573914  0.74640411  1  0.116512  0.07977  0.000356  1.039381  0.002
H  H83  1  0.16592096  0.60590439  0.24654941  1  0.116449  0.079084  0.000346  1.040509  0.002
H  H84  1  0.01478318  0.89067213  0.25319932  1  0.116879  0.078852  0.00046  1.040247  0.001
H  H85  1  0.84066948  0.39064257  0.75335564  1  0.116998  0.078625  0.000469  1.041  0.001
H  H86  1  0.15134981  0.97782101  0.85101746  1  0.110386  0.112365  0.00047  1.017314  0.0
H  H87  1  0.01864160  0.47828948  0.35129200  1  0.109966  0.111687  0.000463  1.017384  0.0
H  H88  1  0.84359372  0.01790516  0.14869242  1  0.110582  0.113274  0.000278  1.015477  0.001
H  H89  1  0.98897304  0.51816966  0.64891445  1  0.111032  0.113985  0.000292  1.01535  0.001
H  H90  1  0.57018141  0.26725652  0.94476256  1  0.121413  0.083041  0.000485  1.041034  0.001
H  H91  1  0.21799608  0.76718011  0.44468160  1  0.121496  0.083333  0.000492  1.041049  0.001
H  H92  1  0.42842579  0.73798519  0.05491979  1  0.122383  0.084521  0.00069  1.039104  0.001
H  H93  1  0.77900856  0.23759230  0.55491189  1  0.121814  0.083175  0.000685  1.039151  0.001
H  H94  1  0.72214417  0.14623660  0.05935337  1  0.109641  0.114929  0.000414  1.015891  0.001
H  H95  1  0.07246348  0.64625488  0.55940376  1  0.110026  0.11491  0.000418  1.016847  0.001
H  H96  1  0.27714381  0.85957220  0.94021624  1  0.110363  0.11542  0.00026  1.014149  0.001
H  H97  1  0.92343035  0.35922887  0.44030766  1  0.110254  0.115246  0.000265  1.015015  0.001
C  C98  1  0.39584376  0.35775757  0.59981506  1  -0.302138  -0.765047  0.002555  3.839009  0.003
C  C99  1  0.64678869  0.85770593  0.09981616  1  -0.302184  -0.76556  0.002543  3.836365  0.003
C  C100  1  0.60425774  0.64207623  0.40052308  1  -0.302349  -0.766661  0.002495  3.839607  0.003
C  C101  1  0.35308132  0.14217527  0.90049575  1  -0.301986  -0.765232  0.002515  3.835818  0.003
C  C102  1  0.60158816  0.11003576  0.50642537  1  -0.298083  -0.754871  0.003906  3.822614  0.005
C  C103  1  0.78204556  0.60993475  0.00644787  1  -0.298445  -0.754925  0.003901  3.820955  0.005
C  C104  1  0.39910615  0.88994962  0.49389882  1  -0.297587  -0.754856  0.003904  3.819166  0.005
C  C105  1  0.21726166  0.39000511  0.99395370  1  -0.298005  -0.755301  0.003906  3.819475  0.005
C  C106  1  0.30548245  0.11669925  0.65948485  1  -0.301886  -0.754453  0.00218  3.829682  0.004
C  C107  1  0.91847568  0.61674674  0.15944213  1  -0.301938  -0.754973  0.002191  3.829061  0.004
C  C108  1  0.69554309  0.88274723  0.34100972  1  -0.301296  -0.753885  0.002225  3.826118  0.004
C  C109  1  0.08058927  0.38279224  0.84119243  1  -0.301263  -0.754284  0.002225  3.827499  0.004
C  C110  1  0.68144998  0.82853155  0.67022377  1  -0.29768  -0.752328  0.003189  3.840863  0.005
C  C111  1  0.81968303  0.32862917  0.17040460  1  -0.29672  -0.751432  0.00321  3.841773  0.005
C  C112  1  0.31968243  0.17146059  0.32933150  1  -0.296489  -0.749708  0.003521  3.838228  0.005
C  C113  1  0.17967670  0.67146897  0.82941705  1  -0.296732  -0.750987  0.003469  3.839801  0.005
C  C114  1  0.96174509  0.92106693  0.63853593  1  -0.299581  -0.751012  0.001823  3.835011  0.003
C  C115  1  0.47873653  0.42105146  0.13843678  1  -0.300276  -0.752423  0.001854  3.834249  0.003
C  C116  1  0.03945607  0.07832667  0.36115469  1  -0.300041  -0.751993  0.001881  3.838458  0.003
C  C117  1  0.52131787  0.57832056  0.86132879  1  -0.300144  -0.752788  0.001883  3.836427  0.003
C  C118  1  0.74524099  0.88810286  0.82463461  1  -0.302297  -0.753498  0.000892  3.835239  0.002
C  C119  1  0.54142178  0.38827523  0.32457861  1  -0.30203  -0.753453  0.000888  3.83405  0.002
C  C120  1  0.25473260  0.11084922  0.17520780  1  -0.302306  -0.753333  0.001288  3.834563  0.003
C  C121  1  0.45952893  0.61086458  0.67545957  1  -0.301871  -0.752073  0.001273  3.832755  0.003
C  C122  1  0.92736530  0.10967926  0.81660307  1  0.038023  0.068677  -0.026159  3.979619  -0.012
C  C123  1  0.14572338  0.60981816  0.31673917  1  0.039127  0.072053  -0.026171  3.978759  -0.012
C  C124  1  0.06897966  0.88900610  0.18299942  1  0.043162  0.078712  -0.01126  3.978765  -0.002
C  C125  1  0.85850870  0.38896719  0.68313871  1  0.042033  0.077939  -0.011634  3.979384  -0.003
C  C126  1  0.02213419  0.03752018  0.87631973  1  -0.078114  -0.160282  -0.004842  3.955605  0.003
C  C127  1  0.06318767  0.53783641  0.37651239  1  -0.078505  -0.160788  -0.004999  3.954441  0.003
C  C128  1  0.97382666  0.96109427  0.12333448  1  -0.079956  -0.16603  -0.015299  3.949329  -0.006
C  C129  1  0.94110803  0.46121951  0.62351227  1  -0.079184  -0.16559  -0.015303  3.951239  -0.006
C  C130  1  0.69865212  0.19951847  0.92754935  1  0.042792  0.082331  -0.022951  3.962905  -0.009
C  C131  1  0.17423875  0.69950830  0.42755140  1  0.042018  0.081058  -0.023159  3.963267  -0.009
C  C132  1  0.29928152  0.80410769  0.07215445  1  0.044345  0.08403  -0.00966  3.965834  -0.001
C  C133  1  0.82454175  0.30384045  0.57221107  1  0.04533  0.086467  -0.009832  3.965409  -0.001
C  C134  1  0.78580495  0.13060248  0.99107918  1  -0.082162  -0.170547  -0.012343  3.956986  -0.003
C  C135  1  0.09249457  0.63063472  0.49115775  1  -0.082248  -0.16925  -0.012415  3.95535  -0.003
C  C136  1  0.21233930  0.87324756  0.00853153  1  -0.080753  -0.170085  -0.019197  3.951055  -0.008
C  C137  1  0.90593629  0.37305298  0.50862570  1  -0.081268  -0.170505  -0.019214  3.953186  -0.008
C  C138  1  0.95190439  0.04153938  0.96733979  1  0.000861  0.07851  -0.059268  3.993696  -0.032
C  C139  1  0.03883131  0.54169993  0.46750670  1  0.000907  0.078169  -0.059517  3.9928  -0.033
C  C140  1  0.04518911  0.95993322  0.03235104  1  0.005182  0.08741  -0.036286  3.988266  -0.017
C  C141  1  0.96215325  0.46002711  0.53250897  1  0.005475  0.086054  -0.036781  3.99372  -0.018
N  N142  1  0.61513876  0.11526923  0.69148906  1  -0.552157  -1.032069  0.091997  3.185024  0.108
N  N143  1  0.57799602  0.61536141  0.19143836  1  -0.55147  -1.031559  0.091883  3.184245  0.108
N  N144  1  0.38632519  0.88476139  0.30849420  1  -0.552246  -1.02904  0.093595  3.183797  0.109
N  N145  1  0.42039161  0.38481930  0.80862256  1  -0.552499  -1.02925  0.093581  3.185682  0.109
N  N146  1  0.76432351  0.18660874  0.84036975  1  -0.353604  -0.2708  0.012328  3.616668  0.019
N  N147  1  0.20843346  0.68662007  0.34037944  1  -0.354734  -0.273071  0.012208  3.618877  0.019
N  N148  1  0.23236575  0.81464900  0.15921530  1  -0.34898  -0.270134  0.009519  3.607487  0.014
N  N149  1  0.79351466  0.31448269  0.65927580  1  -0.349652  -0.270466  0.009479  3.608649  0.014
