# generated using pymatgen
data_MgH6(C2O3)2
_symmetry_space_group_name_H-M   'P 1'
_cell_length_a   7.49996185
_cell_length_b   9.32931735
_cell_length_c   8.97086730
_cell_angle_alpha   89.99988256
_cell_angle_beta   89.99992198
_cell_angle_gamma   90.00076822
_symmetry_Int_Tables_number   1
_chemical_formula_structural   MgH6(C2O3)2
_chemical_formula_sum   'Mg4 H24 C16 O24'
_cell_volume   627.68731608
_cell_formula_units_Z   4
loop_
 _symmetry_equiv_pos_site_id
 _symmetry_equiv_pos_as_xyz
  1  'x, y, z'
loop_
 _atom_site_type_symbol
 _atom_site_label
 _atom_site_symmetry_multiplicity
 _atom_site_fract_x
 _atom_site_fract_y
 _atom_site_fract_z
 _atom_site_occupancy
 _atom_site_hle17_bader_spin_density
 _atom_site_hle17_ddec_charge
 _atom_site_hle17_ddec_spin_density
 _atom_site_hle17_ddec_sum_bond_order
 _atom_site_hle17_magmom
 _atom_site_hse06_10hf_bader_spin_density
 _atom_site_hse06_10hf_ddec_charge
 _atom_site_hse06_10hf_ddec_spin_density
 _atom_site_hse06_10hf_ddec_sum_bond_order
 _atom_site_hse06_10hf_magmom
 _atom_site_hse06_bader_spin_density
 _atom_site_hse06_ddec_charge
 _atom_site_hse06_ddec_spin_density
 _atom_site_hse06_ddec_sum_bond_order
 _atom_site_hse06_magmom
 _atom_site_pbe_bader_spin_density
 _atom_site_pbe_cm5_charge
 _atom_site_pbe_ddec_charge
 _atom_site_pbe_ddec_spin_density
 _atom_site_pbe_ddec_sum_bond_order
 _atom_site_pbe_magmom
Mg  Mg0  1  0.15710764  0.77489844  0.74659601  1  0  1.47844  0  1.10373  0  0  1.364619  0  1.357306  0  0  1.389762  0  1.320781  0  0  0.819351  1.346702  0  1.383059  0
Mg  Mg1  1  0.34289302  0.22509702  0.24659951  1  0  1.478447  0  1.103695  0  0  1.364606  0  1.357341  0  0  1.389744  0  1.32082  0  0  0.819356  1.346705  0  1.383103  0
Mg  Mg2  1  0.84289484  0.27490176  0.75340614  1  0  1.478402  0  1.103805  0  0  1.36463  0  1.357311  0  0  1.389768  0  1.320792  0  0  0.819332  1.34672  0  1.383058  0
Mg  Mg3  1  0.65710849  0.72510192  0.25340145  1  0  1.478338  0  1.103912  0  0  1.364596  0  1.357378  0  0  1.389736  0  1.320859  0  0  0.819322  1.346679  0  1.383137  0
H  H4  1  0.43682488  0.12384954  0.68917100  1  0  0.100525  0  0.949439  0  0  0.108429  0  1.016852  0  0  0.110536  0  1.015412  0  0  0.114127  0.107085  0  1.01784  0
H  H5  1  0.06317096  0.87614912  0.18916606  1  0  0.100549  0  0.94945  0  0  0.108441  0  1.016878  0  0  0.110538  0  1.01546  0  0  0.114131  0.107094  0  1.017851  0
H  H6  1  0.56316555  0.62384817  0.81083074  1  0  0.100541  0  0.949369  0  0  0.108458  0  1.016785  0  0  0.110561  0  1.015349  0  0  0.114135  0.10711  0  1.017769  0
H  H7  1  0.93682794  0.37615232  0.31083197  1  0  0.100524  0  0.949402  0  0  0.108421  0  1.01684  0  0  0.110527  0  1.0154  0  0  0.114128  0.107075  0  1.017822  0
H  H8  1  0.31680530  0.04361145  0.54046152  1  0  0.10891  0  0.964568  0  0  0.11636  0  1.030878  0  0  0.119074  0  1.029316  0  0  0.120663  0.114334  0  1.032297  0
H  H9  1  0.18319163  0.95638823  0.04046170  1  0  0.108908  0  0.964608  0  0  0.116367  0  1.030899  0  0  0.119083  0  1.029332  0  0  0.120657  0.114336  0  1.032311  0
H  H10  1  0.68318610  0.54360936  0.95954170  1  0  0.108811  0  0.964652  0  0  0.116319  0  1.030914  0  0  0.119029  0  1.029352  0  0  0.120629  0.11429  0  1.032324  0
H  H11  1  0.81681164  0.45639333  0.45954264  1  0  0.108882  0  0.964536  0  0  0.116326  0  1.030874  0  0  0.119038  0  1.029308  0  0  0.120627  0.114297  0  1.032288  0
H  H12  1  0.54551415  0.91110300  0.51767583  1  0  0.110406  0  0.971248  0  0  0.115413  0  1.042756  0  0  0.118794  0  1.039774  0  0  0.11903  0.113019  0  1.04498  0
H  H13  1  0.95448701  0.08890059  0.01767902  1  0  0.110452  0  0.971214  0  0  0.115447  0  1.042733  0  0  0.11883  0  1.039751  0  0  0.119026  0.113052  0  1.044947  0
H  H14  1  0.45447266  0.41109548  0.98231787  1  0  0.110396  0  0.971336  0  0  0.115409  0  1.042809  0  0  0.118789  0  1.039825  0  0  0.119014  0.113016  0  1.045028  0
H  H15  1  0.04552618  0.58890436  0.48231589  1  0  0.110407  0  0.971293  0  0  0.115414  0  1.042791  0  0  0.118795  0  1.039808  0  0  0.119018  0.113019  0  1.045016  0
H  H16  1  0.19541501  0.58861965  0.98425185  1  0  0.455344  0  0.796605  0  0  0.426108  0  0.867963  0  0  0.43634  0  0.85268  0  0  0.323576  0.418835  0  0.877745  0
H  H17  1  0.30458523  0.41137911  0.48425446  1  0  0.455351  0  0.796601  0  0  0.426115  0  0.867958  0  0  0.436346  0  0.852676  0  0  0.323573  0.41885  0  0.877737  0
H  H18  1  0.80458891  0.08862488  0.51575451  1  0  0.455226  0  0.796746  0  0  0.426031  0  0.868056  0  0  0.436253  0  0.852781  0  0  0.323564  0.418768  0  0.877827  0
H  H19  1  0.69541217  0.91137871  0.01575010  1  0  0.455362  0  0.796585  0  0  0.426129  0  0.867941  0  0  0.436361  0  0.852657  0  0  0.323567  0.418854  0  0.877731  0
H  H20  1  0.64757868  0.82877101  0.67406413  1  0  0.110938  0  0.91699  0  0  0.120671  0  0.977739  0  0  0.123383  0  0.975742  0  0  0.115634  0.118797  0  0.97919  0
H  H21  1  0.85242434  0.17123264  0.17406872  1  0  0.110959  0  0.916928  0  0  0.120669  0  0.97772  0  0  0.123379  0  0.975724  0  0  0.115635  0.118794  0  0.979174  0
H  H22  1  0.35241829  0.32875947  0.82592439  1  0  0.110909  0  0.916993  0  0  0.120578  0  0.97782  0  0  0.123306  0  0.975806  0  0  0.115629  0.118703  0  0.979278  0
H  H23  1  0.14758268  0.67123709  0.32592023  1  0  0.110923  0  0.916963  0  0  0.12059  0  0.977794  0  0  0.123332  0  0.975766  0  0  0.115611  0.118716  0  0.979249  0
H  H24  1  0.31039585  0.72041443  0.03757443  1  0  0.444736  0  0.844379  0  0  0.41174  0  0.909806  0  0  0.422557  0  0.893952  0  0  0.305967  0.404098  0  0.920994  0
H  H25  1  0.18960497  0.27958524  0.53757789  1  0  0.444673  0  0.844469  0  0  0.411663  0  0.909925  0  0  0.422483  0  0.894064  0  0  0.305897  0.404025  0  0.921109  0
H  H26  1  0.68960267  0.22041512  0.46242432  1  0  0.444689  0  0.844447  0  0  0.411674  0  0.909905  0  0  0.42249  0  0.894052  0  0  0.30593  0.404037  0  0.921089  0
H  H27  1  0.81039518  0.77958864  0.96241977  1  0  0.444706  0  0.844433  0  0  0.411691  0  0.909889  0  0  0.42251  0  0.894032  0  0  0.305899  0.404051  0  0.921075  0
C  C28  1  0.15792131  0.07760625  0.73310060  1  0  0.722687  0  3.845424  0  0  0.660629  0  4.161576  0  0  0.6946  0  4.150969  0  0  0.226404  0.637213  0  4.168342  0
C  C29  1  0.34207884  0.92239457  0.23310198  1  0  0.722718  0  3.845637  0  0  0.660666  0  4.161758  0  0  0.694634  0  4.151153  0  0  0.226394  0.637251  0  4.168522  0
C  C30  1  0.84207650  0.57760881  0.76690247  1  0  0.722815  0  3.845694  0  0  0.660807  0  4.161755  0  0  0.694794  0  4.151119  0  0  0.226454  0.637393  0  4.168519  0
C  C31  1  0.65792334  0.42238738  0.26690363  1  0  0.722715  0  3.845733  0  0  0.66079  0  4.161634  0  0  0.694769  0  4.151007  0  0  0.226429  0.637373  0  4.168402  0
C  C32  1  0.45625882  0.69585147  0.55825785  1  0  0.700051  0  3.878964  0  0  0.646655  0  4.190747  0  0  0.679779  0  4.181273  0  0  0.21398  0.624204  0  4.19661  0
C  C33  1  0.04374811  0.30414606  0.05825502  1  0  0.700001  0  3.878893  0  0  0.646693  0  4.190562  0  0  0.679818  0  4.181087  0  0  0.214017  0.624243  0  4.196424  0
C  C34  1  0.54373272  0.19585034  0.94174578  1  0  0.699875  0  3.878971  0  0  0.646607  0  4.190573  0  0  0.67973  0  4.181102  0  0  0.213994  0.624156  0  4.196438  0
C  C35  1  0.95626569  0.80415127  0.44173888  1  0  0.699809  0  3.879087  0  0  0.646602  0  4.190608  0  0  0.679727  0  4.181138  0  0  0.213954  0.624158  0  4.196469  0
C  C36  1  0.33488100  0.04359088  0.66198017  1  0  -0.10773  0  3.650023  0  0  -0.162487  0  3.908027  0  0  -0.161613  0  3.909341  0  0  -0.077152  -0.163259  0  3.907524  0
C  C37  1  0.16511781  0.95640562  0.16197864  1  0  -0.107794  0  3.650109  0  0  -0.162522  0  3.908112  0  0  -0.161645  0  3.909424  0  0  -0.077162  -0.163281  0  3.907588  0
C  C38  1  0.66511306  0.54359348  0.83802417  1  0  -0.107648  0  3.649812  0  0  -0.162526  0  3.907892  0  0  -0.161647  0  3.909189  0  0  -0.077187  -0.163293  0  3.907374  0
C  C39  1  0.83488278  0.45640916  0.33802236  1  0  -0.107705  0  3.64991  0  0  -0.162526  0  3.907931  0  0  -0.161649  0  3.909231  0  0  -0.07715  -0.163289  0  3.907415  0
C  C40  1  0.52083335  0.84122682  0.61364700  1  0  -0.104863  0  3.6125  0  0  -0.158323  0  3.869398  0  0  -0.156889  0  3.86929  0  0  -0.074776  -0.159543  0  3.869664  0
C  C41  1  0.97917008  0.15877573  0.11365138  1  0  -0.104893  0  3.612512  0  0  -0.158338  0  3.8694  0  0  -0.156905  0  3.869304  0  0  -0.074744  -0.159561  0  3.869669  0
C  C42  1  0.47915918  0.34122295  0.88634592  1  0  -0.104718  0  3.612489  0  0  -0.158153  0  3.869367  0  0  -0.156727  0  3.869254  0  0  -0.074781  -0.159386  0  3.869654  0
C  C43  1  0.02084273  0.65877578  0.38634320  1  0  -0.104713  0  3.612414  0  0  -0.158181  0  3.869292  0  0  -0.15677  0  3.869187  0  0  -0.074756  -0.159422  0  3.869587  0
O  O44  1  0.39013008  0.90427484  0.71109414  1  0  -0.331055  0  2.379932  0  0  -0.255064  0  2.615136  0  0  -0.268556  0  2.614717  0  0  -0.24923  -0.245548  0  2.61541  0
O  O45  1  0.10987325  0.09572061  0.21109709  1  0  -0.331015  0  2.379983  0  0  -0.255085  0  2.615239  0  0  -0.268583  0  2.614825  0  0  -0.249259  -0.245578  0  2.615519  0
O  O46  1  0.60987492  0.40427633  0.78890405  1  0  -0.331082  0  2.379935  0  0  -0.255066  0  2.615145  0  0  -0.268562  0  2.614733  0  0  -0.24917  -0.245554  0  2.615432  0
O  O47  1  0.89012709  0.59572414  0.28890002  1  0  -0.331054  0  2.379911  0  0  -0.255044  0  2.615117  0  0  -0.268535  0  2.614707  0  0  -0.249193  -0.245524  0  2.615391  0
O  O48  1  0.09047667  0.19944771  0.69977339  1  0  -0.725846  0  2.022076  0  0  -0.656077  0  2.257078  0  0  -0.681999  0  2.244303  0  0  -0.346911  -0.638145  0  2.265572  0
O  O49  1  0.40952090  0.80054238  0.19976897  1  0  -0.725857  0  2.021752  0  0  -0.65611  0  2.256741  0  0  -0.682032  0  2.243972  0  0  -0.346872  -0.63817  0  2.265229  0
O  O50  1  0.90950979  0.69945721  0.80023245  1  0  -0.725989  0  2.022134  0  0  -0.656198  0  2.257088  0  0  -0.682126  0  2.244302  0  0  -0.346938  -0.638264  0  2.26558  0
O  O51  1  0.59048463  0.30055078  0.30023053  1  0  -0.725871  0  2.02246  0  0  -0.656093  0  2.257367  0  0  -0.682009  0  2.244578  0  0  -0.346907  -0.638164  0  2.26587  0
O  O52  1  0.54512196  0.63850213  0.45463352  1  0  -0.697209  0  2.00023  0  0  -0.644176  0  2.247237  0  0  -0.669051  0  2.237382  0  0  -0.342989  -0.626867  0  2.253549  0
O  O53  1  0.95488493  0.36150055  0.95463237  1  0  -0.697242  0  2.000235  0  0  -0.644183  0  2.247153  0  0  -0.669058  0  2.237297  0  0  -0.342992  -0.626872  0  2.253454  0
O  O54  1  0.45486808  0.13849658  0.04536450  1  0  -0.69717  0  2.000508  0  0  -0.644173  0  2.247482  0  0  -0.669047  0  2.237626  0  0  -0.343007  -0.626862  0  2.253788  0
O  O55  1  0.04512503  0.86149989  0.54536602  1  0  -0.697128  0  2.000406  0  0  -0.644152  0  2.247336  0  0  -0.669029  0  2.237477  0  0  -0.342973  -0.626846  0  2.253641  0
O  O56  1  0.32001198  0.63997553  0.62038324  1  0  -0.711769  0  1.965031  0  0  -0.654886  0  2.204534  0  0  -0.677952  0  2.190479  0  0  -0.351404  -0.638875  0  2.213702  0
O  O57  1  0.17999595  0.36002632  0.12038741  1  0  -0.711748  0  1.964966  0  0  -0.654915  0  2.20445  0  0  -0.677982  0  2.1904  0  0  -0.35142  -0.638908  0  2.21362  0
O  O58  1  0.67998760  0.13997320  0.87961619  1  0  -0.711758  0  1.9648  0  0  -0.654912  0  2.204235  0  0  -0.677981  0  2.190184  0  0  -0.351395  -0.638898  0  2.213398  0
O  O59  1  0.82001648  0.86002624  0.37961069  1  0  -0.711723  0  1.965015  0  0  -0.654898  0  2.204384  0  0  -0.677965  0  2.190331  0  0  -0.351411  -0.638891  0  2.213552  0
O  O60  1  0.08622005  0.98512049  0.81668451  1  0  -0.673334  0  1.995132  0  0  -0.61529  0  2.23227  0  0  -0.63779  0  2.219754  0  0  -0.327922  -0.599262  0  2.240659  0
O  O61  1  0.41377391  0.01486964  0.31668140  1  0  -0.673332  0  1.995553  0  0  -0.615297  0  2.232692  0  0  -0.637788  0  2.220177  0  0  -0.327948  -0.599286  0  2.241098  0
O  O62  1  0.91378135  0.48513384  0.68332223  1  0  -0.67332  0  1.995409  0  0  -0.615323  0  2.232538  0  0  -0.637828  0  2.220014  0  0  -0.327913  -0.599307  0  2.240936  0
O  O63  1  0.58621936  0.51487410  0.18331832  1  0  -0.673346  0  1.995086  0  0  -0.615384  0  2.232185  0  0  -0.637891  0  2.219663  0  0  -0.32793  -0.599355  0  2.240577  0
O  O64  1  0.24458056  0.68042641  0.95061762  1  0  -0.880178  0  1.782154  0  0  -0.824282  0  1.973798  0  0  -0.840938  0  1.939827  0  0  -0.588341  -0.812748  0  1.996541  0
O  O65  1  0.25541443  0.31957663  0.45061871  1  0  -0.880153  0  1.782187  0  0  -0.82425  0  1.97383  0  0  -0.840907  0  1.939861  0  0  -0.588253  -0.812711  0  1.996571  0
O  O66  1  0.75541389  0.18042856  0.54938720  1  0  -0.880025  0  1.782337  0  0  -0.824165  0  1.973996  0  0  -0.840806  0  1.940049  0  0  -0.588284  -0.812631  0  1.996716  0
O  O67  1  0.74458579  0.81957612  0.04938292  1  0  -0.88016  0  1.782152  0  0  -0.824284  0  1.9738  0  0  -0.840939  0  1.939831  0  0  -0.588284  -0.812749  0  1.996549  0
