# generated using pymatgen
data_Cu2H6C4S(NO)8
_symmetry_space_group_name_H-M   'P 1'
_cell_length_a   6.25209374
_cell_length_b   9.65823737
_cell_length_c   11.17760150
_cell_angle_alpha   84.79800958
_cell_angle_beta   73.75372624
_cell_angle_gamma   71.11413541
_symmetry_Int_Tables_number   1
_chemical_formula_structural   Cu2H6C4S(NO)8
_chemical_formula_sum   'Cu4 H12 C8 S2 N16 O16'
_cell_volume   613.11364740
_cell_formula_units_Z   2
loop_
 _symmetry_equiv_pos_site_id
 _symmetry_equiv_pos_as_xyz
  1  'x, y, z'
loop_
 _atom_site_type_symbol
 _atom_site_label
 _atom_site_symmetry_multiplicity
 _atom_site_fract_x
 _atom_site_fract_y
 _atom_site_fract_z
 _atom_site_occupancy
 _atom_site_hle17_ddec_charge
 _atom_site_hle17_ddec_spin_density
 _atom_site_hle17_ddec_sum_bond_order
 _atom_site_hle17_magmom
 _atom_site_hse06_10hf_ddec_charge
 _atom_site_hse06_10hf_ddec_spin_density
 _atom_site_hse06_10hf_ddec_sum_bond_order
 _atom_site_hse06_10hf_magmom
 _atom_site_hse06_ddec_charge
 _atom_site_hse06_ddec_spin_density
 _atom_site_hse06_ddec_sum_bond_order
 _atom_site_hse06_magmom
 _atom_site_pbe_cm5_charge
 _atom_site_pbe_ddec_charge
 _atom_site_pbe_ddec_spin_density
 _atom_site_pbe_ddec_sum_bond_order
 _atom_site_pbe_magmom
Cu  Cu0  1  0.96530127  0.22911470  0.84230924  1  0.877723  -0.663054  1.750786  -0.497  0.872916  -0.777115  2.136222  -0.638  0.964941  -0.841638  2.06772  -0.727  0.751578  0.809618  -0.725949  2.188794  -0.574
Cu  Cu1  1  0.03683438  0.77093136  0.15774044  1  0.878058  -0.662501  1.749502  -0.496  0.872287  -0.776225  2.136069  -0.637  0.964907  -0.840771  2.066651  -0.726  0.751704  0.810292  -0.72642  2.188485  -0.574
Cu  Cu2  1  0.94440283  0.27090985  0.34240910  1  0.876939  -0.661988  1.751024  -0.496  0.871437  -0.775758  2.137439  -0.637  0.964053  -0.840507  2.068135  -0.726  0.751438  0.808506  -0.725864  2.191089  -0.574
Cu  Cu3  1  0.55760674  0.72911294  0.65771579  1  0.879561  -0.663924  1.749989  -0.497  0.873909  -0.777556  2.136516  -0.638  0.966326  -0.841947  2.06732  -0.727  0.751761  0.810382  -0.72646  2.189555  -0.574
H  H4  1  0.46814406  0.90093230  0.40545609  1  0.333624  0.000789  0.821806  0.001  0.321906  0.000293  0.86883  0.0  0.328242  0.000252  0.864859  0.0  0.351934  0.317363  0.00031  0.871662  0.0
H  H5  1  0.77440849  0.09894461  0.59468939  1  0.332045  0.000717  0.824376  0.001  0.32155  0.000304  0.869655  0.0  0.327787  0.000272  0.865833  0.0  0.351888  0.316944  0.000287  0.87265  0.0
H  H6  1  0.11905241  0.59915877  0.90555396  1  0.331802  0.000731  0.824341  0.001  0.321227  0.000315  0.869908  0.0  0.327531  0.000281  0.866017  0.0  0.35154  0.316566  0.000308  0.872948  0.0
H  H7  1  0.62361361  0.40097669  0.09456483  1  0.332748  0.000759  0.822972  0.001  0.322327  0.000271  0.868437  0.0  0.328609  0.000237  0.864507  0.0  0.35187  0.317786  0.000289  0.871283  0.0
H  H8  1  0.17508493  0.36568230  0.64454799  1  0.329994  0.001236  0.888453  0.001  0.317119  0.000343  0.947785  0.0  0.326104  0.00047  0.941026  0.001  0.307178  0.310831  -4e-05  0.952659  0.0
H  H9  1  0.18553765  0.63440338  0.35536864  1  0.331688  0.00105  0.88742  0.001  0.318935  0.000237  0.946229  0.0  0.327901  0.00041  0.939449  0.001  0.307514  0.312477  -3e-05  0.951267  0.0
H  H10  1  0.29068364  0.13431907  0.14466376  1  0.331357  0.001059  0.888498  0.001  0.318459  0.000235  0.947664  0.0  0.32744  0.000406  0.940871  0.001  0.307793  0.312025  -3.4e-05  0.952597  0.0
H  H11  1  0.56989335  0.86566016  0.85530554  1  0.330374  0.001246  0.889693  0.001  0.317553  0.000347  0.94884  0.0  0.326567  0.000471  0.942079  0.001  0.307088  0.311249  -3.4e-05  0.95371  0.0
H  H12  1  0.94875118  0.33328392  0.61028606  1  0.319355  0.001116  0.893945  0.001  0.302053  9e-05  0.964155  0.0  0.311077  0.000315  0.9565  0.0  0.306264  0.295563  -9e-05  0.970056  0.0
H  H13  1  0.89256599  0.66670581  0.38970535  1  0.321905  0.001133  0.894955  0.001  0.304669  0.000108  0.964375  0.0  0.313748  0.000333  0.956659  0.0  0.30783  0.298247  -8.5e-05  0.970061  0.0
H  H14  1  0.03196268  0.16679776  0.11039331  1  0.321052  0.001143  0.895517  0.001  0.303525  0.000107  0.965588  0.0  0.312574  0.000332  0.957909  0.0  0.307241  0.297111  -9e-05  0.971282  0.0
H  H15  1  0.30929338  0.83323224  0.88977318  1  0.321399  0.001138  0.89446  0.001  0.303856  9.5e-05  0.96449  0.0  0.312939  0.000314  0.956798  0.0  0.30756  0.297323  -8.6e-05  0.970396  0.0
C  C16  1  0.26702657  0.03284396  0.67008254  1  0.57559  0.005369  3.944618  0.004  0.512334  -0.003191  4.26119  -0.003  0.54783  -0.00124  4.263198  -0.002  0.312213  0.488877  -0.005491  4.258301  -0.005
C  C17  1  0.96989200  0.96729563  0.32996398  1  0.575232  0.005365  3.94389  0.005  0.511755  -0.00344  4.261328  -0.003  0.547127  -0.001432  4.263746  -0.002  0.311515  0.488259  -0.005518  4.259274  -0.005
C  C18  1  0.05026216  0.46715680  0.17017387  1  0.577671  0.005419  3.943479  0.005  0.513444  -0.003408  4.261421  -0.003  0.548819  -0.00139  4.263833  -0.002  0.313081  0.489913  -0.005455  4.25933  -0.005
C  C19  1  0.68739018  0.53276969  0.82987421  1  0.576818  0.005217  3.94247  0.004  0.512278  -0.003245  4.26072  -0.003  0.547777  -0.00128  4.262736  -0.002  0.311578  0.488799  -0.005502  4.257843  -0.005
C  C20  1  0.33230257  0.11849030  0.47065041  1  0.622012  7.9e-05  3.885841  -0.001  0.549447  -0.00277  4.210989  -0.003  0.586026  -0.001904  4.204188  -0.003  0.32338  0.524287  -0.003007  4.214032  -0.003
C  C21  1  0.92138362  0.88142375  0.52932549  1  0.624282  0.001281  3.883787  0.0  0.552029  -0.002161  4.208656  -0.003  0.588762  -0.001544  4.201658  -0.002  0.324396  0.52706  -0.002943  4.211628  -0.003
C  C22  1  0.20065237  0.38157828  0.97073326  1  0.624955  0.001094  3.883385  0.0  0.552403  -0.0022  4.209073  -0.003  0.589168  -0.001557  4.202061  -0.002  0.324452  0.527421  -0.002995  4.212017  -0.003
C  C23  1  0.55317663  0.61853085  0.02924193  1  0.62312  4.5e-05  3.884437  -0.001  0.551842  -0.002754  4.208622  -0.003  0.588461  -0.001897  4.201699  -0.003  0.323927  0.526632  -0.002957  4.211835  -0.003
S  S24  1  0.76843183  0.99989127  0.99988197  1  1.547385  0.013813  5.749952  0.009  1.447959  0.000773  6.298301  0.002  1.512466  0.000194  6.267087  0.001  0.557374  1.402767  0.000599  6.317944  0.003
S  S25  1  0.51837645  0.50003385  0.49998715  1  1.548095  0.013796  5.748577  0.009  1.448607  0.000782  6.296865  0.002  1.513077  0.000201  6.265662  0.001  0.557828  1.403438  0.000598  6.316416  0.003
N  N26  1  0.44043916  0.96955026  0.47598897  1  -0.32589  -0.016476  3.268954  -0.018  -0.283082  -0.004836  3.544646  -0.006  -0.298493  -0.003  3.555318  -0.004  -0.311238  -0.271032  -0.008363  3.535999  -0.009
N  N27  1  0.88586392  0.03038077  0.52411186  1  -0.324853  -0.016959  3.26784  -0.019  -0.282994  -0.005125  3.543182  -0.006  -0.298456  -0.003093  3.553901  -0.004  -0.312047  -0.271228  -0.008291  3.535221  -0.009
N  N28  1  0.16005647  0.53048626  0.97604772  1  -0.324182  -0.016944  3.267636  -0.019  -0.282519  -0.005128  3.543397  -0.006  -0.298088  -0.003107  3.554171  -0.004  -0.311342  -0.270648  -0.008375  3.53544  -0.009
N  N29  1  0.66659133  0.46956325  0.02400801  1  -0.32604  -0.016146  3.26676  -0.018  -0.285146  -0.004769  3.542346  -0.005  -0.300437  -0.002971  3.552855  -0.004  -0.312537  -0.273153  -0.008295  3.533827  -0.009
N  N30  1  0.38663774  0.91552490  0.59822122  1  -0.389741  -0.081882  3.175588  -0.102  -0.394296  -0.044786  3.540889  -0.06  -0.427888  -0.034537  3.552618  -0.05  -0.325291  -0.372617  -0.05228  3.533515  -0.066
N  N31  1  0.90032242  0.08452459  0.40189912  1  -0.388977  -0.081451  3.173367  -0.101  -0.392784  -0.045387  3.538565  -0.06  -0.426416  -0.034949  3.550351  -0.05  -0.323969  -0.371945  -0.052097  3.53243  -0.066
N  N32  1  0.05252254  0.58447371  0.09828730  1  -0.390005  -0.081843  3.173776  -0.102  -0.393477  -0.045486  3.53919  -0.061  -0.427171  -0.035031  3.551089  -0.05  -0.324795  -0.372744  -0.052336  3.532861  -0.066
N  N33  1  0.73502675  0.41549838  0.90179115  1  -0.390979  -0.081075  3.173152  -0.101  -0.394309  -0.044653  3.538713  -0.06  -0.427765  -0.03447  3.550297  -0.05  -0.324467  -0.372671  -0.052154  3.531381  -0.066
N  N34  1  0.23640187  0.15716141  0.59668373  1  -0.176709  -0.002868  3.44357  -0.003  -0.102764  -0.003313  3.68492  -0.003  -0.120878  -0.0018  3.701162  -0.001  -0.178559  -0.090463  -0.004752  3.674073  -0.004
N  N35  1  0.99031202  0.84289399  0.40328074  1  -0.176162  -0.002263  3.441825  -0.003  -0.103021  -0.003134  3.684121  -0.002  -0.121154  -0.001733  3.700364  -0.001  -0.178914  -0.090752  -0.004766  3.67335  -0.004
N  N36  1  0.14366584  0.34286206  0.09677437  1  -0.178848  -0.002271  3.443561  -0.003  -0.104689  -0.003145  3.685472  -0.002  -0.122866  -0.001736  3.701692  -0.001  -0.179268  -0.092399  -0.004753  3.674654  -0.004
N  N37  1  0.58345285  0.65712908  0.90320696  1  -0.175798  -0.002942  3.441275  -0.003  -0.103138  -0.003327  3.684489  -0.003  -0.121332  -0.001802  3.700904  -0.001  -0.178804  -0.090824  -0.004764  3.67364  -0.004
N  N38  1  0.08411363  0.29011594  0.65270597  1  -0.474802  -0.06063  3.062378  -0.077  -0.465413  -0.049306  3.322868  -0.067  -0.488698  -0.038261  3.320107  -0.057  -0.488078  -0.452251  -0.054392  3.327494  -0.069
N  N39  1  0.02710100  0.70992994  0.34724598  1  -0.481654  -0.05868  3.066254  -0.075  -0.47054  -0.048628  3.325659  -0.066  -0.493644  -0.037956  3.322547  -0.057  -0.489491  -0.456753  -0.054355  3.330088  -0.069
N  N40  1  0.12417783  0.20992653  0.15282191  1  -0.47939  -0.058915  3.065861  -0.075  -0.468586  -0.04867  3.326162  -0.066  -0.491687  -0.037967  3.323121  -0.057  -0.489428  -0.45461  -0.054391  3.330522  -0.068
N  N41  1  0.48702816  0.79009826  0.84722666  1  -0.47823  -0.060788  3.06495  -0.077  -0.468413  -0.049347  3.326788  -0.067  -0.491873  -0.03829  3.323985  -0.057  -0.48895  -0.455196  -0.054394  3.331532  -0.069
O  O42  1  0.18761638  0.03829615  0.78757737  1  -0.546443  -0.064507  2.148942  -0.088  -0.508064  -0.043008  2.425464  -0.064  -0.543893  -0.032537  2.416394  -0.053  -0.308883  -0.48373  -0.049806  2.431639  -0.07
O  O43  1  0.01316444  0.96189353  0.21245547  1  -0.544484  -0.067563  2.146316  -0.092  -0.506737  -0.044265  2.423335  -0.066  -0.543039  -0.033246  2.414424  -0.054  -0.309301  -0.483999  -0.049856  2.43076  -0.07
O  O44  1  0.97640219  0.46167528  0.28767854  1  -0.54463  -0.067609  2.147531  -0.092  -0.506774  -0.044271  2.425218  -0.066  -0.542957  -0.033287  2.416159  -0.054  -0.309693  -0.483823  -0.049846  2.432783  -0.07
O  O45  1  0.72528202  0.53820820  0.71238020  1  -0.546635  -0.064597  2.148488  -0.088  -0.507108  -0.043115  2.425354  -0.064  -0.542943  -0.032596  2.416079  -0.053  -0.308539  -0.482783  -0.049961  2.431738  -0.07
O  O46  1  0.31809880  0.19828772  0.37888213  1  -0.543732  -0.014706  1.992207  -0.02  -0.528303  -0.003787  2.250948  -0.006  -0.552179  -0.001124  2.237918  -0.003  -0.303246  -0.509331  -0.009047  2.259178  -0.013
O  O47  1  0.89522765  0.80146686  0.62098382  1  -0.546514  -0.01409  1.993267  -0.02  -0.530165  -0.003863  2.251626  -0.007  -0.554096  -0.001113  2.238443  -0.003  -0.303717  -0.511156  -0.009029  2.259608  -0.013
O  O48  1  0.26605758  0.30178564  0.87899605  1  -0.545782  -0.014024  1.992941  -0.02  -0.529779  -0.003874  2.251811  -0.007  -0.553656  -0.001131  2.238658  -0.003  -0.303356  -0.510749  -0.009051  2.259702  -0.013
O  O49  1  0.44709375  0.69844306  0.12091512  1  -0.545185  -0.014528  1.991873  -0.02  -0.529232  -0.003752  2.249514  -0.006  -0.553056  -0.001103  2.23634  -0.003  -0.303348  -0.510385  -0.009027  2.257752  -0.013
O  O50  1  0.84211182  0.13629991  0.00372733  1  -0.703689  -0.083148  1.981538  -0.115  -0.67225  -0.055938  2.272407  -0.085  -0.713459  -0.039542  2.255987  -0.066  -0.369006  -0.645635  -0.065552  2.284977  -0.094
O  O51  1  0.98228229  0.86347327  0.99628998  1  -0.704027  -0.082169  1.979355  -0.114  -0.67231  -0.055614  2.270593  -0.084  -0.713185  -0.039456  2.253714  -0.065  -0.369296  -0.645249  -0.065602  2.282971  -0.094
O  O52  1  0.72848081  0.36361313  0.50382959  1  -0.70458  -0.081988  1.979294  -0.113  -0.672605  -0.055599  2.270186  -0.084  -0.71343  -0.039464  2.253327  -0.065  -0.369136  -0.645393  -0.065593  2.282649  -0.094
O  O53  1  0.59591325  0.63641202  0.49629944  1  -0.704585  -0.083349  1.980739  -0.115  -0.672954  -0.055997  2.271761  -0.085  -0.714234  -0.039568  2.255193  -0.066  -0.36949  -0.646318  -0.065578  2.284413  -0.094
O  O54  1  0.58540397  0.99851624  0.11499818  1  -0.670122  -0.02796  1.905064  -0.037  -0.645268  -0.012538  2.153753  -0.019  -0.674769  -0.005408  2.138663  -0.009  -0.346379  -0.621801  -0.021586  2.162222  -0.03
O  O55  1  0.70004079  0.00121159  0.88448783  1  -0.671053  -0.03094  1.904102  -0.042  -0.646928  -0.013655  2.152846  -0.021  -0.676879  -0.00585  2.137836  -0.01  -0.347497  -0.624165  -0.021739  2.161489  -0.03
O  O56  1  0.33406542  0.50142058  0.61515499  1  -0.668332  -0.030755  1.905309  -0.042  -0.644567  -0.013554  2.154304  -0.021  -0.674498  -0.0058  2.139305  -0.01  -0.346111  -0.621845  -0.021597  2.163002  -0.03
O  O57  1  0.45113698  0.49869819  0.38465130  1  -0.672732  -0.02806  1.904276  -0.037  -0.647609  -0.012607  2.152777  -0.019  -0.67714  -0.005451  2.137667  -0.01  -0.347747  -0.624088  -0.021714  2.161286  -0.03
