# generated using pymatgen
data_KH15C19N2
_symmetry_space_group_name_H-M   'P 1'
_cell_length_a   6.94694637
_cell_length_b   9.84697806
_cell_length_c   12.51534301
_cell_angle_alpha   113.20783055
_cell_angle_beta   89.99966480
_cell_angle_gamma   89.99976527
_symmetry_Int_Tables_number   1
_chemical_formula_structural   KH15C19N2
_chemical_formula_sum   'K2 H30 C38 N4'
_cell_volume   786.85316028
_cell_formula_units_Z   2
loop_
 _symmetry_equiv_pos_site_id
 _symmetry_equiv_pos_as_xyz
  1  'x, y, z'
loop_
 _atom_site_type_symbol
 _atom_site_label
 _atom_site_symmetry_multiplicity
 _atom_site_fract_x
 _atom_site_fract_y
 _atom_site_fract_z
 _atom_site_occupancy
 _atom_site_hle17_bader_spin_density
 _atom_site_hle17_ddec_charge
 _atom_site_hle17_ddec_spin_density
 _atom_site_hle17_ddec_sum_bond_order
 _atom_site_hle17_magmom
 _atom_site_hse06_10hf_bader_spin_density
 _atom_site_hse06_10hf_ddec_charge
 _atom_site_hse06_10hf_ddec_spin_density
 _atom_site_hse06_10hf_ddec_sum_bond_order
 _atom_site_hse06_10hf_magmom
 _atom_site_hse06_bader_spin_density
 _atom_site_hse06_ddec_charge
 _atom_site_hse06_ddec_spin_density
 _atom_site_hse06_ddec_sum_bond_order
 _atom_site_hse06_magmom
 _atom_site_pbe_bader_spin_density
 _atom_site_pbe_cm5_charge
 _atom_site_pbe_ddec_charge
 _atom_site_pbe_ddec_spin_density
 _atom_site_pbe_ddec_sum_bond_order
 _atom_site_pbe_magmom
K  K0  1  0.61942074  0.89458592  0.99979622  1  0  0.892837  0  0.472727  0  0  0.819372  0  0.656908  0  0  0.829996  0  0.646492  0  0  0.786146  0.810442  0  0.665655  0
K  K1  1  0.11942483  0.10540324  0.00020260  1  0  0.89284  0  0.472738  0  0  0.819333  0  0.656993  0  0  0.829957  0  0.646574  0  0  0.78616  0.810402  0  0.665737  0
H  H2  1  0.49470173  0.08634221  0.55089110  1  0  0.085728  0  0.954691  0  0  0.098835  0  1.012397  0  0  0.101417  0  1.012142  0  0  0.095924  0.096968  0  1.012657  0
H  H3  1  0.99469951  0.91366681  0.44910054  1  0  0.085729  0  0.95454  0  0  0.098836  0  1.012261  0  0  0.101414  0  1.012018  0  0  0.095908  0.096972  0  1.012518  0
H  H4  1  0.49546109  0.53555322  0.44931859  1  0  0.085627  0  0.954903  0  0  0.09894  0  1.012265  0  0  0.101507  0  1.012032  0  0  0.096122  0.096947  0  1.012741  0
H  H5  1  0.99547033  0.46445804  0.55067532  1  0  0.085617  0  0.955005  0  0  0.098922  0  1.012372  0  0  0.101488  0  1.012142  0  0  0.096112  0.09694  0  1.012839  0
H  H6  1  0.30727822  0.26231297  0.49061398  1  0  0.077159  0  0.974286  0  0  0.087636  0  1.038622  0  0  0.089568  0  1.038533  0  0  0.094734  0.086161  0  1.038991  0
H  H7  1  0.80726480  0.73769584  0.50937337  1  0  0.077106  0  0.974279  0  0  0.087584  0  1.038629  0  0  0.089518  0  1.038537  0  0  0.094715  0.086109  0  1.038992  0
H  H8  1  0.30792732  0.77187608  0.50982943  1  0  0.076601  0  0.974338  0  0  0.087206  0  1.038567  0  0  0.089153  0  1.038474  0  0  0.094359  0.085801  0  1.038734  0
H  H9  1  0.80794147  0.22813755  0.49017853  1  0  0.076599  0  0.974242  0  0  0.08722  0  1.038457  0  0  0.089169  0  1.038369  0  0  0.094386  0.085813  0  1.038635  0
H  H10  1  0.19412052  0.18653483  0.28879476  1  0  0.091999  0  0.979422  0  0  0.100744  0  1.046018  0  0  0.103042  0  1.046817  0  0  0.098884  0.099146  0  1.045573  0
H  H11  1  0.69410867  0.81346802  0.71119515  1  0  0.092033  0  0.979357  0  0  0.100762  0  1.045978  0  0  0.103062  0  1.046779  0  0  0.098884  0.099163  0  1.045535  0
H  H12  1  0.19416503  0.89764596  0.71154996  1  0  0.092038  0  0.98031  0  0  0.101093  0  1.046493  0  0  0.103401  0  1.047266  0  0  0.098961  0.099581  0  1.045949  0
H  H13  1  0.69418076  0.10235291  0.28845953  1  0  0.092037  0  0.980258  0  0  0.10114  0  1.046387  0  0  0.103454  0  1.047144  0  0  0.099018  0.099629  0  1.045846  0
H  H14  1  0.44695999  0.75637536  0.20143086  1  0  0.09133  0  0.972316  0  0  0.101782  0  1.038416  0  0  0.104325  0  1.038163  0  0  0.097158  0.099762  0  1.039133  0
H  H15  1  0.94696765  0.24362202  0.79856943  1  0  0.091421  0  0.972324  0  0  0.101828  0  1.038458  0  0  0.104372  0  1.038204  0  0  0.097171  0.099808  0  1.039177  0
H  H16  1  0.44634105  0.55435533  0.79839313  1  0  0.091815  0  0.972386  0  0  0.102273  0  1.038453  0  0  0.104786  0  1.038224  0  0  0.097574  0.100337  0  1.038975  0
H  H17  1  0.94633712  0.44563636  0.20159746  1  0  0.091786  0  0.972433  0  0  0.102299  0  1.038429  0  0  0.104786  0  1.038229  0  0  0.097605  0.100365  0  1.03895  0
H  H18  1  0.56721576  0.83495389  0.40460072  1  0  0.081195  0  0.967924  0  0  0.094554  0  1.025614  0  0  0.096586  0  1.02519  0  0  0.096202  0.093064  0  1.026073  0
H  H19  1  0.06722423  0.16505198  0.59539686  1  0  0.081167  0  0.967984  0  0  0.094547  0  1.025647  0  0  0.096579  0  1.025224  0  0  0.096185  0.093058  0  1.026105  0
H  H20  1  0.56700278  0.42990128  0.59527058  1  0  0.081393  0  0.968441  0  0  0.095181  0  1.02553  0  0  0.097226  0  1.025085  0  0  0.096452  0.093703  0  1.025973  0
H  H21  1  0.06700537  0.57009776  0.40471538  1  0  0.081376  0  0.968489  0  0  0.095156  0  1.025579  0  0  0.097201  0  1.025132  0  0  0.09645  0.093676  0  1.026019  0
H  H22  1  0.67792812  0.49193859  0.00017169  1  0  0.083012  0  1.022342  0  0  0.091097  0  1.091518  0  0  0.091659  0  1.096535  0  0  0.088261  0.090402  0  1.088902  0
H  H23  1  0.17793577  0.50806367  0.99983807  1  0  0.083053  0  1.022341  0  0  0.091123  0  1.091545  0  0  0.091682  0  1.096563  0  0  0.088221  0.090429  0  1.088921  0
H  H24  1  0.78875083  0.65806343  0.18378322  1  0  0.081896  0  0.944363  0  0  0.096518  0  1.000157  0  0  0.098761  0  0.998237  0  0  0.099066  0.095031  0  1.001251  0
H  H25  1  0.28875577  0.34193499  0.81622825  1  0  0.081962  0  0.94437  0  0  0.096541  0  1.000194  0  0  0.098781  0  0.99828  0  0  0.099109  0.095061  0  1.00128  0
H  H26  1  0.78817626  0.47442226  0.81651469  1  0  0.082575  0  0.944529  0  0  0.097101  0  1.000356  0  0  0.099364  0  0.998374  0  0  0.09921  0.095617  0  1.001473  0
H  H27  1  0.28818020  0.52557503  0.18349484  1  0  0.08258  0  0.944386  0  0  0.097053  0  1.000274  0  0  0.099314  0  0.998293  0  0  0.099229  0.095567  0  1.001395  0
H  H28  1  0.02652885  0.83440415  0.22844177  1  0  0.095256  0  0.974584  0  0  0.106519  0  1.035323  0  0  0.109364  0  1.03596  0  0  0.098179  0.104614  0  1.034868  0
H  H29  1  0.52652718  0.16559109  0.77156235  1  0  0.095285  0  0.974529  0  0  0.106574  0  1.035246  0  0  0.109419  0  1.035883  0  0  0.098213  0.104674  0  1.03479  0
H  H30  1  0.02614781  0.60586728  0.77178425  1  0  0.094521  0  0.975104  0  0  0.105903  0  1.035782  0  0  0.108759  0  1.036406  0  0  0.097912  0.104021  0  1.035233  0
H  H31  1  0.52614098  0.39411695  0.22821818  1  0  0.0945  0  0.97514  0  0  0.105889  0  1.035808  0  0  0.108746  0  1.03643  0  0  0.097898  0.10401  0  1.035261  0
C  C32  1  0.44303647  0.05308560  0.46190217  1  0  -0.099478  0  3.79312  0  0  -0.114729  0  4.044844  0  0  -0.118591  0  4.067457  0  0  -0.103911  -0.112099  0  4.029484  0
C  C33  1  0.94303448  0.94691931  0.53809000  1  0  -0.099567  0  3.792954  0  0  -0.114826  0  4.044707  0  0  -0.11869  0  4.067317  0  0  -0.103974  -0.112202  0  4.029353  0
C  C34  1  0.44340014  0.59111484  0.53824361  1  0  -0.098303  0  3.79101  0  0  -0.113677  0  4.042733  0  0  -0.117531  0  4.065333  0  0  -0.103603  -0.110858  0  4.027272  0
C  C35  1  0.94340783  0.40889787  0.46175408  1  0  -0.098453  0  3.791323  0  0  -0.11384  0  4.043076  0  0  -0.117694  0  4.065677  0  0  -0.103646  -0.111034  0  4.027621  0
C  C36  1  0.33869414  0.15078265  0.42807702  1  0  -0.058568  0  3.802263  0  0  -0.069929  0  4.050108  0  0  -0.070317  0  4.071955  0  0  -0.093516  -0.069594  0  4.035476  0
C  C37  1  0.83868512  0.84922499  0.57191468  1  0  -0.058494  0  3.802107  0  0  -0.06985  0  4.049938  0  0  -0.070241  0  4.071794  0  0  -0.093454  -0.069512  0  4.035299  0
C  C38  1  0.33907748  0.72273091  0.57223578  1  0  -0.058226  0  3.802361  0  0  -0.0697  0  4.050248  0  0  -0.070121  0  4.072163  0  0  -0.093248  -0.069204  0  4.035206  0
C  C39  1  0.83909062  0.27728143  0.42777091  1  0  -0.058112  0  3.802484  0  0  -0.069584  0  4.050361  0  0  -0.07001  0  4.072282  0  0  -0.093232  -0.069088  0  4.035331  0
C  C40  1  0.27445950  0.10854373  0.31378818  1  0  -0.161737  0  3.718654  0  0  -0.179118  0  3.961965  0  0  -0.183692  0  3.982097  0  0  -0.096813  -0.176043  0  3.948391  0
C  C41  1  0.77445325  0.89145987  0.68620491  1  0  -0.161767  0  3.718487  0  0  -0.179129  0  3.961797  0  0  -0.183708  0  3.981932  0  0  -0.096832  -0.176056  0  3.948211  0
C  C42  1  0.27452308  0.79462577  0.68646353  1  0  -0.163201  0  3.720061  0  0  -0.18089  0  3.963803  0  0  -0.185478  0  3.983923  0  0  -0.09775  -0.177955  0  3.950137  0
C  C43  1  0.77453794  0.20537923  0.31354355  1  0  -0.163288  0  3.720147  0  0  -0.18105  0  3.963879  0  0  -0.185637  0  3.984004  0  0  -0.09789  -0.178117  0  3.950208  0
C  C44  1  0.31114128  0.96540189  0.23093925  1  0  0.224306  0  3.90007  0  0  0.231772  0  4.139185  0  0  0.240653  0  4.158604  0  0  0.075232  0.225795  0  4.125687  0
C  C45  1  0.81113751  0.03459936  0.76905542  1  0  0.224448  0  3.899954  0  0  0.231903  0  4.139084  0  0  0.24078  0  4.158508  0  0  0.075295  0.225944  0  4.125556  0
C  C46  1  0.31093014  0.73417088  0.76916947  1  0  0.225137  0  3.89911  0  0  0.232387  0  4.138649  0  0  0.241304  0  4.158034  0  0  0.075783  0.226484  0  4.124915  0
C  C47  1  0.81093984  0.26582618  0.23083433  1  0  0.225124  0  3.899198  0  0  0.232453  0  4.138646  0  0  0.241369  0  4.158028  0  0  0.075774  0.22656  0  4.124902  0
C  C48  1  0.41643511  0.86708318  0.26591617  1  0  -0.194951  0  3.764538  0  0  -0.211728  0  4.009841  0  0  -0.217208  0  4.030637  0  0  -0.108675  -0.208343  0  3.996118  0
C  C49  1  0.91643981  0.13291538  0.73408057  1  0  -0.195037  0  3.764679  0  0  -0.211771  0  4.009966  0  0  -0.217249  0  4.030759  0  0  -0.108637  -0.208398  0  3.99624  0
C  C50  1  0.41610498  0.60075445  0.73402908  1  0  -0.195436  0  3.764363  0  0  -0.212222  0  4.010001  0  0  -0.217682  0  4.03082  0  0  -0.109122  -0.208563  0  3.995812  0
C  C51  1  0.91610202  0.39924406  0.26596525  1  0  -0.195539  0  3.764466  0  0  -0.212407  0  4.010097  0  0  -0.217846  0  4.030926  0  0  -0.10918  -0.208754  0  3.995903  0
C  C52  1  0.48295709  0.91117566  0.37963427  1  0  -0.067394  0  3.826747  0  0  -0.07765  0  4.072245  0  0  -0.077844  0  4.094167  0  0  -0.098718  -0.077323  0  4.057248  0
C  C53  1  0.98295326  0.08882911  0.62036093  1  0  -0.067352  0  3.826866  0  0  -0.077612  0  4.072331  0  0  -0.077806  0  4.094255  0  0  -0.098699  -0.077285  0  4.057337  0
C  C54  1  0.48288769  0.53122453  0.62032730  1  0  -0.06799  0  3.826933  0  0  -0.078645  0  4.072681  0  0  -0.078831  0  4.094585  0  0  -0.098658  -0.078386  0  4.057606  0
C  C55  1  0.98289598  0.46877907  0.37966435  1  0  -0.067761  0  3.826774  0  0  -0.078394  0  4.072529  0  0  -0.078578  0  4.094423  0  0  -0.098559  -0.078131  0  4.057446  0
C  C56  1  0.79303172  0.56686718  0.00017232  1  0  -0.164547  0  3.85935  0  0  -0.181969  0  4.121312  0  0  -0.192983  0  4.147237  0  0  -0.13337  -0.175059  0  4.104975  0
C  C57  1  0.29303260  0.43313455  0.99984093  1  0  -0.164544  0  3.85915  0  0  -0.181977  0  4.121089  0  0  -0.192985  0  4.147008  0  0  -0.133286  -0.175061  0  4.104746  0
C  C58  1  0.86023157  0.66541155  0.10833861  1  0  -0.052852  0  3.868294  0  0  -0.065575  0  4.121214  0  0  -0.057707  0  4.139155  0  0  -0.099516  -0.070171  0  4.108315  0
C  C59  1  0.36023281  0.33458863  0.89166917  1  0  -0.053066  0  3.868183  0  0  -0.065741  0  4.121114  0  0  -0.057872  0  4.139051  0  0  -0.099617  -0.070348  0  4.108227  0
C  C60  1  0.85992798  0.55714462  0.89196201  1  0  -0.055413  0  3.870334  0  0  -0.068285  0  4.123588  0  0  -0.060406  0  4.141538  0  0  -0.100703  -0.072935  0  4.1108  0
C  C61  1  0.35992461  0.44284461  0.10804730  1  0  -0.055156  0  3.870004  0  0  -0.067972  0  4.123209  0  0  -0.060089  0  4.141156  0  0  -0.100573  -0.072625  0  4.110419  0
C  C62  1  0.00345755  0.77255503  0.13541069  1  0  -0.21073  0  3.758424  0  0  -0.224559  0  4.008668  0  0  -0.236325  0  4.0308  0  0  -0.114491  -0.216658  0  3.99315  0
C  C63  1  0.50344871  0.22743705  0.86459416  1  0  -0.210715  0  3.758391  0  0  -0.22458  0  4.008616  0  0  -0.236348  0  4.030743  0  0  -0.114581  -0.216683  0  3.993114  0
C  C64  1  0.00316730  0.63713206  0.86482434  1  0  -0.208809  0  3.758609  0  0  -0.222735  0  4.008209  0  0  -0.234502  0  4.030379  0  0  -0.114319  -0.214811  0  3.992494  0
C  C65  1  0.50317036  0.36286225  0.13518196  1  0  -0.208929  0  3.758521  0  0  -0.222874  0  4.008121  0  0  -0.234641  0  4.030288  0  0  -0.114425  -0.214957  0  3.992419  0
C  C66  1  0.13020416  0.81766823  0.06540441  1  0  0.194009  0  3.837005  0  0  0.190965  0  4.083904  0  0  0.20524  0  4.097435  0  0  0.101352  0.181522  0  4.07445  0
C  C67  1  0.63021348  0.18232973  0.93459781  1  0  0.194007  0  3.836864  0  0  0.190993  0  4.083718  0  0  0.205276  0  4.097236  0  0  0.101393  0.181547  0  4.074278  0
C  C68  1  0.13017058  0.75219085  0.93475901  1  0  0.192963  0  3.83759  0  0  0.190688  0  4.083765  0  0  0.204907  0  4.097369  0  0  0.101937  0.181188  0  4.074153  0
C  C69  1  0.63016645  0.24779162  0.06523778  1  0  0.192946  0  3.837429  0  0  0.190687  0  4.083587  0  0  0.204901  0  4.097193  0  0  0.101944  0.181181  0  4.073992  0
N  N70  1  0.26218388  0.92188573  0.11336199  1  0  -0.581961  0  3.203846  0  0  -0.52959  0  3.466959  0  0  -0.550905  0  3.48226  0  0  -0.511466  -0.514377  0  3.456111  0
N  N71  1  0.76219434  0.07810483  0.88663443  1  0  -0.582092  0  3.203551  0  0  -0.529732  0  3.46667  0  0  -0.551047  0  3.481967  0  0  -0.511499  -0.514514  0  3.455805  0
N  N72  1  0.26213371  0.80836672  0.88676407  1  0  -0.581803  0  3.204227  0  0  -0.52954  0  3.467159  0  0  -0.550869  0  3.482473  0  0  -0.511594  -0.514182  0  3.456033  0
N  N73  1  0.76213655  0.19162947  0.11323882  1  0  -0.581744  0  3.204075  0  0  -0.529526  0  3.467001  0  0  -0.550853  0  3.482317  0  0  -0.511564  -0.514168  0  3.455871  0
