# generated using pymatgen
data_Cu3H18(C7N10)2
_symmetry_space_group_name_H-M   'P 1'
_cell_length_a   8.09341101
_cell_length_b   7.86735438
_cell_length_c   10.66039010
_cell_angle_alpha   68.35500088
_cell_angle_beta   68.30519552
_cell_angle_gamma   79.91646413
_symmetry_Int_Tables_number   1
_chemical_formula_structural   Cu3H18(C7N10)2
_chemical_formula_sum   'Cu3 H18 C14 N20'
_cell_volume   585.64297599
_cell_formula_units_Z   1
loop_
 _symmetry_equiv_pos_site_id
 _symmetry_equiv_pos_as_xyz
  1  'x, y, z'
loop_
 _atom_site_type_symbol
 _atom_site_label
 _atom_site_symmetry_multiplicity
 _atom_site_fract_x
 _atom_site_fract_y
 _atom_site_fract_z
 _atom_site_occupancy
 _atom_site_pbe_cm5_charge
 _atom_site_pbe_ddec_charge
 _atom_site_pbe_ddec_spin_density
 _atom_site_pbe_ddec_sum_bond_order
 _atom_site_pbe_magmom
Cu  Cu0  1  0.99789672  0.50503270  0.49650085  1  0.756946  0.716099  0.045012  2.519682  0.031
Cu  Cu1  1  0.33670839  0.36978044  0.60703597  1  0.711983  0.666893  0.005269  2.351705  0.005
Cu  Cu2  1  0.65871047  0.61774783  0.38946839  1  0.765278  0.742803  0.596672  2.375514  0.435
H  H3  1  0.15145982  0.74272608  0.95527421  1  0.101221  0.106982  -4e-05  1.044099  0.0
H  H4  1  0.84942417  0.25487848  0.04808208  1  0.101999  0.10725  0.000855  1.044365  0.001
H  H5  1  0.18163927  0.79435045  0.16546012  1  0.10091  0.092468  0.000395  1.027885  0.0
H  H6  1  0.81851381  0.20518875  0.83726178  1  0.10172  0.092594  0.000238  1.02528  0.0
H  H7  1  0.29869896  0.08842719  0.12780272  1  0.103898  0.116379  0.000422  1.050943  0.0
H  H8  1  0.70106138  0.91120651  0.87425277  1  0.104192  0.116135  0.000796  1.054781  0.001
H  H9  1  0.18647027  0.84641018  0.70958689  1  0.091757  0.141785  0.000192  1.014417  0.0
H  H10  1  0.81266904  0.15125715  0.29342589  1  0.091238  0.140337  -9.5e-05  1.017413  0.0
H  H11  1  0.34807188  0.01246485  0.59302192  1  0.092665  0.136653  0.0001  1.016925  0.0
H  H12  1  0.65170381  0.98339505  0.41018032  1  0.09331  0.139002  -0.000108  1.015987  0.0
H  H13  1  0.11873752  0.08097100  0.64982891  1  0.094724  0.140295  5.1e-05  1.036313  0.0
H  H14  1  0.88124810  0.91696740  0.35239901  1  0.095462  0.142959  -0.00022  1.037175  0.0
H  H15  1  0.41408136  0.38026794  0.97103178  1  0.096119  0.146677  8.7e-05  1.013148  0.0
H  H16  1  0.58541890  0.62123329  0.02907484  1  0.097581  0.150433  -0.00014  1.012221  0.0
H  H17  1  0.53510060  0.38427317  0.79176910  1  0.092502  0.134326  -5.9e-05  1.038471  0.0
H  H18  1  0.46464733  0.61442795  0.20895300  1  0.093325  0.13434  -0.000226  1.043537  0.0
H  H19  1  0.32031808  0.49152068  0.83270225  1  0.091902  0.130153  7e-06  1.028069  0.0
H  H20  1  0.68000092  0.50763312  0.16649426  1  0.091745  0.127951  -0.000166  1.034033  0.0
C  C21  1  0.24284128  0.00815228  0.81087621  1  0.120063  0.325856  -2.9e-05  3.952521  0.0
C  C22  1  0.75651137  0.98995585  0.19212058  1  0.123216  0.328209  -0.000958  3.951221  0.0
C  C23  1  0.19994538  0.86995643  0.94401312  1  -0.090823  -0.189548  2.9e-05  3.930491  0.0
C  C24  1  0.80019717  0.12828782  0.05889236  1  -0.089696  -0.187979  0.004476  3.930949  0.005
C  C25  1  0.21780397  0.89835090  0.05954938  1  -0.068481  0.006733  0.000462  3.954783  0.0
C  C26  1  0.78239987  0.10081604  0.94301650  1  -0.068309  0.004317  -0.003593  3.9636  -0.002
C  C27  1  0.28215347  0.06255914  0.03969206  1  -0.087882  -0.185016  0.000539  3.913433  0.0
C  C28  1  0.71783106  0.93701771  0.96228968  1  -0.086098  -0.180734  0.00458  3.91227  0.005
C  C29  1  0.32587480  0.19640962  0.90438131  1  0.118835  0.323071  7.8e-05  3.942713  0.0
C  C30  1  0.67364972  0.80297448  0.09739686  1  0.118388  0.322461  0.000616  3.938812  0.001
C  C31  1  0.22288738  0.98582491  0.68396058  1  -0.246852  -0.466904  0.000306  3.94045  0.0
C  C32  1  0.77650596  0.01176711  0.31904945  1  -0.246755  -0.468447  0.001176  3.93698  0.002
C  C33  1  0.40259797  0.37258066  0.87416223  1  -0.246686  -0.473421  3.7e-05  3.962908  0.0
C  C34  1  0.59716191  0.62705702  0.12644666  1  -0.248429  -0.480134  0.000924  3.963312  0.002
N  N35  1  0.24484896  0.40022500  0.42415609  1  -0.338646  -0.553993  0.002362  3.216243  0.003
N  N36  1  0.75756661  0.60433524  0.57540264  1  -0.338073  -0.558261  0.005755  3.223959  0.007
N  N37  1  0.30770674  0.31097086  0.34415461  1  0.097716  0.426181  -9.1e-05  4.408  0.0
N  N38  1  0.69790866  0.68795155  0.65892464  1  0.091941  0.426941  -0.000914  4.426037  -0.001
N  N39  1  0.37717947  0.22578679  0.26827841  1  -0.131509  -0.282496  0.002152  2.563368  0.002
N  N40  1  0.62953411  0.76839835  0.73872723  1  -0.143244  -0.303627  0.004648  2.567188  0.005
N  N41  1  0.07873932  0.46211512  0.65938289  1  -0.356696  -0.520674  0.00223  3.316345  0.002
N  N42  1  0.92196207  0.54021125  0.33169017  1  -0.364811  -0.54869  0.032779  3.341892  0.039
N  N43  1  0.00512050  0.52301995  0.75833555  1  0.109458  0.419687  0.000122  4.33201  0.0
N  N44  1  0.99361166  0.47756131  0.23446889  1  0.102708  0.426266  -0.000195  4.371027  -0.002
N  N45  1  0.94049438  0.57756142  0.85358604  1  -0.083223  -0.220837  0.001976  2.562401  0.002
N  N46  1  0.05803923  0.42153034  0.13970372  1  -0.108526  -0.258224  0.042856  2.567584  0.045
N  N47  1  0.59236884  0.34309421  0.49851911  1  -0.362996  -0.554443  0.033702  3.258323  0.04
N  N48  1  0.41063530  0.67698192  0.49563470  1  -0.333465  -0.538984  0.055935  3.1292  0.066
N  N49  1  0.69844576  0.24594037  0.55393002  1  0.089863  0.422576  -0.003327  4.418876  -0.005
N  N50  1  0.30173333  0.76407827  0.44038618  1  0.085441  0.420009  -0.006045  4.444164  -0.009
N  N51  1  0.80702153  0.15915197  0.60059541  1  -0.133465  -0.294823  0.040745  2.590385  0.044
N  N52  1  0.18727305  0.84029270  0.39637975  1  -0.150771  -0.322692  0.066442  2.608555  0.07
N  N53  1  0.30316328  0.16831647  0.79375956  1  -0.35338  -0.343347  0.001308  3.516685  0.002
N  N54  1  0.69569967  0.83059464  0.20853301  1  -0.34929  -0.341549  0.059875  3.507173  0.073
