# generated using pymatgen
data_H9PbC9SNO6
_symmetry_space_group_name_H-M   'P 1'
_cell_length_a   7.21618839
_cell_length_b   7.80757056
_cell_length_c   12.46631119
_cell_angle_alpha   88.63496173
_cell_angle_beta   75.53206252
_cell_angle_gamma   64.37319060
_symmetry_Int_Tables_number   1
_chemical_formula_structural   H9PbC9SNO6
_chemical_formula_sum   'H18 Pb2 C18 S2 N2 O12'
_cell_volume   610.32847280
_cell_formula_units_Z   2
loop_
 _symmetry_equiv_pos_site_id
 _symmetry_equiv_pos_as_xyz
  1  'x, y, z'
loop_
 _atom_site_type_symbol
 _atom_site_label
 _atom_site_symmetry_multiplicity
 _atom_site_fract_x
 _atom_site_fract_y
 _atom_site_fract_z
 _atom_site_occupancy
 _atom_site_hle17_bader_spin_density
 _atom_site_hle17_ddec_charge
 _atom_site_hle17_ddec_spin_density
 _atom_site_hle17_ddec_sum_bond_order
 _atom_site_hle17_magmom
 _atom_site_hse06_10hf_bader_spin_density
 _atom_site_hse06_10hf_ddec_charge
 _atom_site_hse06_10hf_ddec_spin_density
 _atom_site_hse06_10hf_ddec_sum_bond_order
 _atom_site_hse06_10hf_magmom
 _atom_site_hse06_bader_spin_density
 _atom_site_hse06_ddec_charge
 _atom_site_hse06_ddec_spin_density
 _atom_site_hse06_ddec_sum_bond_order
 _atom_site_hse06_magmom
 _atom_site_pbe_bader_spin_density
 _atom_site_pbe_cm5_charge
 _atom_site_pbe_ddec_charge
 _atom_site_pbe_ddec_spin_density
 _atom_site_pbe_ddec_sum_bond_order
 _atom_site_pbe_magmom
H  H0  1  0.22901927  0.54889707  0.25747561  1  0  0.426378  0  0.868062  0  0  0.395535  0  0.932013  0  0  0.405344  0  0.917791  0  0  0.295895  0.38855  0  0.942111  0
H  H1  1  0.77101354  0.45111811  0.74253678  1  0  0.426345  0  0.868133  0  0  0.39555  0  0.931981  0  0  0.405358  0  0.917764  0  0  0.295861  0.388573  0  0.942064  0
H  H2  1  0.00131162  0.56280766  0.25605613  1  0  0.425604  0  0.870337  0  0  0.395767  0  0.932612  0  0  0.40555  0  0.918404  0  0  0.295751  0.388784  0  0.942726  0
H  H3  1  0.99871952  0.43723724  0.74394228  1  0  0.425913  0  0.869921  0  0  0.3961  0  0.932214  0  0  0.405888  0  0.917989  0  0  0.295836  0.389117  0  0.942331  0
H  H4  1  0.14218942  0.29071831  0.33007922  1  0  0.097484  0  0.971186  0  0  0.105846  0  1.037735  0  0  0.109801  0  1.034249  0  0  0.10652  0.102924  0  1.04035  0
H  H5  1  0.85774595  0.70929119  0.66992738  1  0  0.097442  0  0.970992  0  0  0.105851  0  1.037496  0  0  0.109784  0  1.034049  0  0  0.106496  0.102951  0  1.040093  0
H  H6  1  0.00479210  0.35617054  0.53723736  1  0  0.094511  0  0.949759  0  0  0.105671  0  1.00956  0  0  0.10884  0  1.007563  0  0  0.104078  0.103389  0  1.011101  0
H  H7  1  0.99520293  0.64380187  0.46277174  1  0  0.094491  0  0.949781  0  0  0.105681  0  1.009566  0  0  0.108847  0  1.007575  0  0  0.104082  0.103397  0  1.011106  0
H  H8  1  0.11780805  0.09658942  0.65801910  1  0  0.090918  0  0.960938  0  0  0.101273  0  1.023322  0  0  0.10433  0  1.021804  0  0  0.102639  0.099049  0  1.024499  0
H  H9  1  0.88216382  0.90336596  0.34199289  1  0  0.090919  0  0.961091  0  0  0.101259  0  1.023496  0  0  0.104317  0  1.021973  0  0  0.102616  0.099039  0  1.024668  0
H  H10  1  0.36527029  0.75926474  0.57515815  1  0  0.113917  0  0.959212  0  0  0.119825  0  1.025227  0  0  0.123793  0  1.022468  0  0  0.106771  0.116933  0  1.027296  0
H  H11  1  0.63476656  0.24071571  0.42481904  1  0  0.113971  0  0.959076  0  0  0.119893  0  1.025093  0  0  0.123862  0  1.022329  0  0  0.10684  0.117001  0  1.027157  0
H  H12  1  0.17030737  0.84923379  0.77112753  1  0  0.144793  0  0.94019  0  0  0.164978  0  1.00019  0  0  0.167128  0  0.9996  0  0  0.103727  0.163532  0  1.000528  0
H  H13  1  0.82960950  0.15073158  0.22888102  1  0  0.144907  0  0.940101  0  0  0.165096  0  1.00008  0  0  0.167246  0  0.999488  0  0  0.103763  0.163649  0  1.000421  0
H  H14  1  0.21010408  0.98183151  0.87015033  1  0  0.141573  0  0.947166  0  0  0.159013  0  1.007287  0  0  0.161381  0  1.006641  0  0  0.097794  0.157348  0  1.00776  0
H  H15  1  0.78988190  0.01814463  0.12982070  1  0  0.141482  0  0.94747  0  0  0.158974  0  1.007535  0  0  0.161332  0  1.006917  0  0  0.097711  0.157309  0  1.008007  0
H  H16  1  0.94996926  0.99491450  0.88158934  1  0  0.147424  0  0.944384  0  0  0.165738  0  1.00276  0  0  0.16819  0  1.002104  0  0  0.100077  0.163991  0  1.003287  0
H  H17  1  0.04997760  0.00510081  0.11842510  1  0  0.147223  0  0.944625  0  0  0.165654  0  1.002862  0  0  0.168113  0  1.002194  0  0  0.100039  0.163908  0  1.00339  0
Pb  Pb18  1  0.31287252  0.34309210  0.02597351  1  0  1.448977  0  1.388801  0  0  1.267325  0  1.793135  0  0  1.329382  0  1.744199  0  0  0.680609  1.220376  0  1.82861  0
Pb  Pb19  1  0.68710424  0.65691774  0.97405916  1  0  1.449004  0  1.388918  0  0  1.267352  0  1.793271  0  0  1.329404  0  1.744339  0  0  0.680599  1.220402  0  1.828748  0
C  C20  1  0.42988193  0.91629367  0.21798268  1  0  0.566626  0  3.91074  0  0  0.525591  0  4.192842  0  0  0.557411  0  4.191399  0  0  0.23301  0.503916  0  4.19303  0
C  C21  1  0.57016221  0.08370413  0.78201156  1  0  0.566639  0  3.911124  0  0  0.525569  0  4.193236  0  0  0.557402  0  4.191781  0  0  0.232992  0.503893  0  4.19342  0
C  C22  1  0.32882233  0.99088081  0.33798363  1  0  -0.070647  0  3.800795  0  0  -0.054349  0  4.027781  0  0  -0.060698  0  4.051489  0  0  -0.014082  -0.050175  0  4.011872  0
C  C23  1  0.67118764  0.00913125  0.66200887  1  0  -0.070952  0  3.800847  0  0  -0.054545  0  4.027738  0  0  -0.0609  0  4.051447  0  0  -0.014288  -0.050362  0  4.011834  0
C  C24  1  0.19114863  0.17700342  0.38382749  1  0  -0.041738  0  3.691739  0  0  -0.064477  0  3.93795  0  0  -0.064393  0  3.956076  0  0  -0.073609  -0.064421  0  3.925766  0
C  C25  1  0.80879595  0.82299602  0.61617395  1  0  -0.041755  0  3.691634  0  0  -0.064529  0  3.93786  0  0  -0.064407  0  3.955953  0  0  -0.073657  -0.064493  0  3.925671  0
C  C26  1  0.11548261  0.21192416  0.49963282  1  0  -0.044607  0  3.708898  0  0  -0.063898  0  3.967887  0  0  -0.064216  0  3.9865  0  0  -0.078431  -0.063722  0  3.955345  0
C  C27  1  0.88446576  0.78803824  0.50037042  1  0  -0.044477  0  3.708435  0  0  -0.063819  0  3.967505  0  0  -0.064131  0  3.986108  0  0  -0.078344  -0.063644  0  3.954971  0
C  C28  1  0.17846758  0.06397153  0.56795426  1  0  -0.051439  0  3.709803  0  0  -0.068721  0  3.967496  0  0  -0.070888  0  3.988708  0  0  -0.078405  -0.067182  0  3.953171  0
C  C29  1  0.82153238  0.93599075  0.43204469  1  0  -0.051525  0  3.709907  0  0  -0.068806  0  3.967636  0  0  -0.070972  0  3.988846  0  0  -0.078463  -0.06727  0  3.953309  0
C  C30  1  0.31601126  0.87554656  0.52264586  1  0  -0.045822  0  3.711576  0  0  -0.070019  0  3.962677  0  0  -0.070247  0  3.982536  0  0  -0.076338  -0.069818  0  3.949368  0
C  C31  1  0.68402978  0.12443120  0.47734282  1  0  -0.046091  0  3.711736  0  0  -0.070272  0  3.962837  0  0  -0.070501  0  3.982697  0  0  -0.07645  -0.070059  0  3.949522  0
C  C32  1  0.38671666  0.84441380  0.40749433  1  0  -0.139402  0  3.761596  0  0  -0.119961  0  4.005372  0  0  -0.125712  0  4.028465  0  0  -0.013393  -0.116184  0  3.990042  0
C  C33  1  0.61326615  0.15559812  0.59248687  1  0  -0.138955  0  3.761257  0  0  -0.119575  0  4.005025  0  0  -0.125324  0  4.028127  0  0  -0.013108  -0.115819  0  3.989718  0
C  C34  1  0.17410618  0.73066083  0.92449569  1  0  0.789645  0  3.82463  0  0  0.742685  0  4.118979  0  0  0.778883  0  4.110264  0  0  0.226406  0.717652  0  4.123978  0
C  C35  1  0.82587624  0.26933738  0.07552194  1  0  0.789701  0  3.825159  0  0  0.742575  0  4.119768  0  0  0.778773  0  4.111047  0  0  0.226315  0.717543  0  4.124767  0
C  C36  1  0.12182615  0.90234687  0.85939630  1  0  -0.462833  0  3.629169  0  0  -0.536809  0  3.857831  0  0  -0.543807  0  3.859008  0  0  -0.243862  -0.531834  0  3.85683  0
C  C37  1  0.87812557  0.09764967  0.14060256  1  0  -0.462726  0  3.629874  0  0  -0.536782  0  3.858386  0  0  -0.543787  0  3.859558  0  0  -0.243771  -0.531807  0  3.857381  0
S  S38  1  0.54961616  0.62841764  0.31951039  1  0  1.25916  0  5.367648  0  0  1.168725  0  5.877508  0  0  1.214574  0  5.86093  0  0  0.566609  1.136799  0  5.888286  0
S  S39  1  0.45041962  0.37159430  0.68047596  1  0  1.259128  0  5.367753  0  0  1.168737  0  5.877615  0  0  1.214593  0  5.861017  0  0  0.56652  1.13682  0  5.8884  0
N  N40  1  0.55145784  0.72431490  0.20264604  1  0  -0.721211  0  2.949335  0  0  -0.661473  0  3.237541  0  0  -0.691691  0  3.240431  0  0  -0.378412  -0.640244  0  3.234744  0
N  N41  1  0.44859292  0.27569570  0.79734699  1  0  -0.721247  0  2.949295  0  0  -0.661524  0  3.237524  0  0  -0.691743  0  3.240398  0  0  -0.378381  -0.640303  0  3.234738  0
O  O42  1  0.12977681  0.57171982  0.21085431  1  0  -0.83834  0  1.798004  0  0  -0.776902  0  1.964591  0  0  -0.799191  0  1.934896  0  0  -0.561817  -0.760846  0  1.98537  0
O  O43  1  0.87026861  0.42832517  0.78915084  1  0  -0.838594  0  1.797742  0  0  -0.77723  0  1.964153  0  0  -0.799519  0  1.934458  0  0  -0.561859  -0.761182  0  1.98493  0
O  O44  1  0.40850737  0.01680806  0.13768380  1  0  -0.637796  0  1.99278  0  0  -0.576814  0  2.229551  0  0  -0.604595  0  2.222249  0  0  -0.285632  -0.557116  0  2.234213  0
O  O45  1  0.59148878  0.98318834  0.86230862  1  0  -0.637712  0  1.993016  0  0  -0.576717  0  2.229756  0  0  -0.604503  0  2.222452  0  0  -0.285611  -0.557018  0  2.234416  0
O  O46  1  0.44060776  0.50575775  0.33045779  1  0  -0.62518  0  1.919283  0  0  -0.570364  0  2.155198  0  0  -0.59258  0  2.142924  0  0  -0.311293  -0.554605  0  2.163213  0
O  O47  1  0.55951069  0.49417005  0.66953187  1  0  -0.625459  0  1.919807  0  0  -0.570559  0  2.15566  0  0  -0.592773  0  2.143364  0  0  -0.311392  -0.554803  0  2.163672  0
O  O48  1  0.76360976  0.53434757  0.33574383  1  0  -0.625823  0  1.942962  0  0  -0.573154  0  2.186429  0  0  -0.59569  0  2.174698  0  0  -0.311254  -0.557115  0  2.193974  0
O  O49  1  0.23642781  0.46579531  0.66423003  1  0  -0.625722  0  1.942234  0  0  -0.57323  0  2.185886  0  0  -0.595793  0  2.174178  0  0  -0.311257  -0.557177  0  2.193398  0
O  O50  1  0.34770511  0.65809518  0.95357563  1  0  -0.719274  0  2.021307  0  0  -0.63873  0  2.26648  0  0  -0.673669  0  2.258091  0  0  -0.295397  -0.613204  0  2.271617  0
O  O51  1  0.65234420  0.34184805  0.04639167  1  0  -0.719305  0  2.021516  0  0  -0.638662  0  2.266682  0  0  -0.673599  0  2.258291  0  0  -0.295375  -0.613139  0  2.271821  0
O  O52  1  0.04842407  0.65204005  0.94728180  1  0  -0.722761  0  2.015615  0  0  -0.642173  0  2.259826  0  0  -0.677098  0  2.25164  0  0  -0.297861  -0.616655  0  2.264816  0
O  O53  1  0.95152133  0.34799894  0.05279255  1  0  -0.722781  0  2.015837  0  0  -0.64217  0  2.260146  0  0  -0.677101  0  2.251968  0  0  -0.297812  -0.616649  0  2.265128  0
