# generated using pymatgen
data_CuH6C7(NO)3
_symmetry_space_group_name_H-M   'P 1'
_cell_length_a   10.11908461
_cell_length_b   10.11907596
_cell_length_c   16.42887414
_cell_angle_alpha   89.99982919
_cell_angle_beta   90.00017972
_cell_angle_gamma   120.00014127
_symmetry_Int_Tables_number   1
_chemical_formula_structural   CuH6C7(NO)3
_chemical_formula_sum   'Cu6 H36 C42 N18 O18'
_cell_volume   1456.86697719
_cell_formula_units_Z   6
loop_
 _symmetry_equiv_pos_site_id
 _symmetry_equiv_pos_as_xyz
  1  'x, y, z'
loop_
 _atom_site_type_symbol
 _atom_site_label
 _atom_site_symmetry_multiplicity
 _atom_site_fract_x
 _atom_site_fract_y
 _atom_site_fract_z
 _atom_site_occupancy
 _atom_site_pbe_bader_charge
 _atom_site_pbe_bader_spin_density
 _atom_site_pbe_cm5_charge
 _atom_site_pbe_ddec_charge
 _atom_site_pbe_ddec_spin_density
 _atom_site_pbe_ddec_sum_bond_order
 _atom_site_pbe_magmom
Cu  Cu0  1  0.14045966  0.74304992  0.02375276  1  1.03775  0.565831  0.743781  0.747869  0.723069  2.243848  0.567
Cu  Cu1  1  0.25694800  0.39740754  0.35708522  1  1.038168  0.56583  0.743763  0.747806  0.723067  2.243893  0.567
Cu  Cu2  1  0.60259924  0.85953913  0.69041959  1  1.038959  0.56585  0.743768  0.747878  0.723069  2.243918  0.567
Cu  Cu3  1  0.39741147  0.25694785  0.64291456  1  1.038197  0.565833  0.743811  0.747917  0.723069  2.243821  0.567
Cu  Cu4  1  0.85953938  0.60260044  0.30958266  1  1.039016  0.565852  0.743766  0.747833  0.72307  2.243905  0.567
Cu  Cu5  1  0.74304963  0.14046113  0.97624886  1  1.037674  0.565831  0.743794  0.747886  0.72307  2.243865  0.567
H  H6  1  0.82714244  0.54209751  0.77215912  1  0.551735  0.000679  0.317422  0.301588  0.000456  0.961782  0.001
H  H7  1  0.45789666  0.28504782  0.10549128  1  0.542426  0.000689  0.317429  0.301591  0.000456  0.961628  0.001
H  H8  1  0.71494562  0.17284807  0.43882427  1  0.543389  0.000683  0.317425  0.30157  0.000456  0.96176  0.001
H  H9  1  0.28504666  0.45789831  0.89450729  1  0.542152  0.000689  0.317419  0.301561  0.000456  0.96168  0.001
H  H10  1  0.17285474  0.71495176  0.56117613  1  0.543343  0.000683  0.317417  0.301581  0.000456  0.961833  0.001
H  H11  1  0.54210036  0.82714390  0.22784191  1  0.551789  0.000679  0.317423  0.301575  0.000456  0.961808  0.001
H  H12  1  0.28877399  0.77697201  0.84484626  1  0.112611  0.000735  0.119379  0.119289  0.000223  1.013877  0.001
H  H13  1  0.22302796  0.51180748  0.17817994  1  0.11782  0.000732  0.119345  0.11919  0.000223  1.013874  0.001
H  H14  1  0.48819612  0.71121813  0.51151448  1  0.164411  0.000697  0.119355  0.119212  0.000223  1.013904  0.001
H  H15  1  0.51181043  0.22303258  0.82181923  1  0.117849  0.000732  0.119366  0.119234  0.000223  1.013844  0.001
H  H16  1  0.71122408  0.48819374  0.48848654  1  0.164415  0.000697  0.119359  0.119249  0.000223  1.013892  0.001
H  H17  1  0.77696305  0.28877602  0.15515232  1  0.112565  0.000735  0.119355  0.11923  0.000223  1.013817  0.001
H  H18  1  0.09472995  0.64323262  0.71554336  1  0.15934  0.001133  0.116549  0.115984  0.000582  1.068378  0.001
H  H19  1  0.35676676  0.45150417  0.04887607  1  0.15745  0.001134  0.116583  0.116094  0.000582  1.068296  0.001
H  H20  1  0.54849444  0.90525976  0.38220970  1  0.158435  0.001134  0.116584  0.116065  0.000583  1.068359  0.001
H  H21  1  0.45150319  0.35676977  0.95112311  1  0.157242  0.001135  0.116561  0.116033  0.000582  1.06836  0.001
H  H22  1  0.90526582  0.54849573  0.61779134  1  0.158467  0.001134  0.116549  0.115988  0.000583  1.068378  0.001
H  H23  1  0.64322871  0.09472886  0.28445703  1  0.159317  0.001133  0.11657  0.116029  0.000582  1.068379  0.001
H  H24  1  0.69675676  0.56383293  0.90127190  1  0.065837  3.2e-05  0.107769  0.119721  -9e-06  1.00433  0.0
H  H25  1  0.43616575  0.13292849  0.23460311  1  0.079715  3.2e-05  0.10779  0.119726  -9e-06  1.004318  0.0
H  H26  1  0.86707350  0.30323857  0.56793601  1  0.082958  3e-05  0.107785  0.119718  -9e-06  1.004333  0.0
H  H27  1  0.13292802  0.43616686  0.76539484  1  0.080099  3.2e-05  0.107777  0.11974  -9e-06  1.004333  0.0
H  H28  1  0.30324218  0.86707675  0.43206319  1  0.08294  3e-05  0.107775  0.119719  -9e-06  1.004295  0.0
H  H29  1  0.56382941  0.69675636  0.09872913  1  0.066786  3.2e-05  0.107772  0.119722  -9e-06  1.004297  0.0
H  H30  1  0.81832435  0.74817528  0.94119302  1  0.038815  0.000369  0.107165  0.123681  0.000138  0.974001  0.0
H  H31  1  0.25182454  0.07015196  0.27452660  1  0.035927  0.000374  0.107189  0.123696  0.000138  0.973968  0.0
H  H32  1  0.92984649  0.18166945  0.60785797  1  0.037321  0.000371  0.107192  0.123696  0.000138  0.973971  0.0
H  H33  1  0.07015103  0.25182391  0.72547195  1  0.035932  0.000374  0.107174  0.123703  0.000138  0.97397  0.0
H  H34  1  0.18167223  0.92984889  0.39214123  1  0.037292  0.00037  0.107183  0.123703  0.000138  0.973968  0.0
H  H35  1  0.74817219  0.81832340  0.05880680  1  0.039211  0.000368  0.107197  0.123727  0.000138  0.973938  0.0
H  H36  1  0.69765478  0.57567701  0.05323630  1  0.073662  0.007595  0.112665  0.075064  0.004139  0.998748  0.004
H  H37  1  0.42432550  0.12198009  0.38656787  1  0.077384  0.007586  0.112679  0.075099  0.004139  0.998706  0.004
H  H38  1  0.87802468  0.30234566  0.71989957  1  0.091387  0.007538  0.112661  0.075052  0.004139  0.998754  0.004
H  H39  1  0.12198244  0.42432372  0.61342947  1  0.077328  0.007586  0.112697  0.075106  0.004139  0.998707  0.004
H  H40  1  0.30234628  0.87802494  0.28009841  1  0.091494  0.007537  0.112675  0.075062  0.004139  0.998738  0.004
H  H41  1  0.57567524  0.69765499  0.94676351  1  0.073659  0.007595  0.112675  0.075067  0.004139  0.998723  0.004
C  C42  1  0.73160598  0.39421387  0.01610492  1  1.605425  -0.001242  0.205703  0.560081  -0.002007  4.153921  -0.003
C  C43  1  0.60578735  0.33739708  0.34943627  1  1.576474  -0.001135  0.205729  0.560115  -0.002006  4.154014  -0.003
C  C44  1  0.66260634  0.26838918  0.68277025  1  1.59261  -0.001231  0.205718  0.560066  -0.002007  4.153873  -0.003
C  C45  1  0.33739759  0.60578737  0.65056352  1  1.576521  -0.001135  0.205745  0.560155  -0.002007  4.154045  -0.003
C  C46  1  0.26839481  0.66260920  0.31722955  1  1.592787  -0.00123  0.205713  0.560057  -0.002007  4.153894  -0.003
C  C47  1  0.39421078  0.73160593  0.98389549  1  1.605475  -0.001242  0.205742  0.560192  -0.002007  4.15389  -0.003
C  C48  1  0.92336724  0.64333164  0.14612718  1  1.31687  -0.000296  0.207006  0.354978  -0.000307  4.198226  0.001
C  C49  1  0.35668015  0.28004513  0.47945899  1  1.346459  -0.000254  0.206977  0.354925  -0.000307  4.198106  0.001
C  C50  1  0.71996171  0.07663377  0.81279217  1  1.344638  -0.000274  0.207036  0.355029  -0.000306  4.198187  0.001
C  C51  1  0.28004485  0.35667464  0.52054018  1  1.313945  -0.000284  0.20702  0.354971  -0.000307  4.198136  0.001
C  C52  1  0.07663411  0.71996034  0.18720944  1  1.345135  -0.000274  0.206981  0.354892  -0.000306  4.198245  0.001
C  C53  1  0.64332892  0.92336667  0.85387387  1  1.31759  -0.000298  0.206981  0.354902  -0.000306  4.198354  0.001
C  C54  1  0.16592963  0.72502942  0.84239258  1  0.434754  0.003415  -0.002541  -0.018569  0.002496  3.987032  0.003
C  C55  1  0.27496881  0.44090428  0.17572584  1  0.428724  0.003439  -0.002451  -0.018256  0.002496  3.986849  0.003
C  C56  1  0.55909649  0.83406310  0.50906083  1  0.365196  0.003506  -0.002457  -0.018236  0.002495  3.986908  0.003
C  C57  1  0.44090677  0.27497411  0.82427394  1  0.428534  0.003438  -0.002493  -0.018319  0.002495  3.986857  0.003
C  C58  1  0.83406879  0.55909625  0.49094203  1  0.365063  0.003509  -0.002559  -0.018524  0.002496  3.987085  0.003
C  C59  1  0.72502175  0.16592828  0.15760721  1  0.434702  0.003416  -0.002503  -0.018336  0.002495  3.986915  0.003
C  C60  1  0.06940404  0.65728283  0.77787200  1  0.282004  0.004422  -0.006887  -0.058846  0.002941  3.964205  0.003
C  C61  1  0.34271442  0.41212465  0.11120477  1  0.272556  0.004431  -0.006928  -0.059041  0.002941  3.964348  0.003
C  C62  1  0.58787457  0.93058920  0.44454022  1  0.275191  0.004407  -0.006915  -0.059053  0.002942  3.964463  0.003
C  C63  1  0.41212624  0.34271884  0.88879440  1  0.272557  0.004431  -0.006951  -0.059069  0.002941  3.964362  0.003
C  C64  1  0.93059566  0.58787744  0.55546143  1  0.275039  0.004406  -0.006873  -0.058861  0.002941  3.964367  0.003
C  C65  1  0.65728043  0.06940331  0.22212778  1  0.282451  0.004421  -0.006905  -0.058999  0.002941  3.964385  0.003
C  C66  1  0.93320726  0.64760972  0.88575486  1  1.030493  0.000548  0.22132  0.359772  -0.000352  3.920362  0.001
C  C67  1  0.35238686  0.28559935  0.21908691  1  0.999057  0.000722  0.221264  0.359576  -0.000352  3.920451  0.001
C  C68  1  0.71439728  0.06678761  0.55242010  1  0.995527  0.000692  0.221263  0.359616  -0.000353  3.920438  0.001
C  C69  1  0.28559867  0.35238780  0.78091287  1  0.998942  0.000722  0.221314  0.359643  -0.000351  3.920432  0.001
C  C70  1  0.06679084  0.71440107  0.44758029  1  0.995522  0.000692  0.221327  0.35972  -0.000352  3.920346  0.001
C  C71  1  0.64760951  0.93320579  0.11424619  1  1.030361  0.000548  0.221295  0.359671  -0.000351  3.920414  0.001
C  C72  1  0.80345303  0.63294549  0.93501558  1  0.020905  0.003331  -0.143251  -0.282303  0.001999  3.930222  0.003
C  C73  1  0.36705417  0.17050956  0.26834786  1  0.009548  0.003329  -0.143282  -0.282255  0.001999  3.930173  0.003
C  C74  1  0.82948956  0.19654422  0.60168032  1  0.012829  0.003334  -0.143274  -0.282236  0.001999  3.930156  0.003
C  C75  1  0.17051056  0.36705559  0.73165069  1  0.009273  0.003328  -0.143249  -0.282287  0.001998  3.930268  0.003
C  C76  1  0.19654792  0.82949282  0.39831887  1  0.012983  0.003334  -0.143276  -0.282311  0.001999  3.930137  0.003
C  C77  1  0.63294251  0.80345213  0.06498485  1  0.019919  0.00333  -0.143275  -0.282323  0.001998  3.930165  0.003
C  C78  1  0.78819103  0.56686368  0.02107655  1  0.329434  0.013029  0.007484  0.045083  0.009847  3.883592  0.009
C  C79  1  0.43313855  0.22133132  0.35440734  1  0.352085  0.012945  0.007459  0.045089  0.009847  3.883551  0.009
C  C80  1  0.77867209  0.21180707  0.68774093  1  0.323381  0.013037  0.007477  0.045084  0.009846  3.883543  0.009
C  C81  1  0.22133343  0.43313886  0.64559123  1  0.351759  0.012944  0.007439  0.045068  0.009847  3.883597  0.009
C  C82  1  0.21181029  0.77867371  0.31225887  1  0.323104  0.013038  0.007454  0.045071  0.009846  3.883551  0.009
C  C83  1  0.56686042  0.78819095  0.97892448  1  0.329083  0.013029  0.007458  0.045116  0.009847  3.883497  0.009
N  N84  1  0.07977557  0.71808993  0.90924858  1  -1.203774  0.094541  -0.384392  -0.361576  0.062284  3.605951  0.081
N  N85  1  0.28190655  0.36168901  0.24258138  1  -1.168799  0.094332  -0.384365  -0.361598  0.062281  3.605917  0.081
N  N86  1  0.63831047  0.92021828  0.57591507  1  -1.165802  0.094345  -0.384411  -0.361727  0.062282  3.606044  0.081
N  N87  1  0.36168976  0.28190777  0.75741779  1  -1.168623  0.094336  -0.384347  -0.361611  0.062283  3.605915  0.081
N  N88  1  0.92022318  0.63831295  0.42408536  1  -1.165569  0.09434  -0.384366  -0.361512  0.062282  3.605942  0.081
N  N89  1  0.71808770  0.07977848  0.09075060  1  -1.20408  0.094538  -0.384397  -0.361665  0.062282  3.605978  0.081
N  N90  1  0.93020928  0.65029719  0.06603465  1  -1.169886  0.096404  -0.404289  -0.433896  0.06254  3.557723  0.08
N  N91  1  0.34970569  0.27991418  0.39936646  1  -1.172219  0.096397  -0.404247  -0.433839  0.06254  3.557588  0.08
N  N92  1  0.72009162  0.06979175  0.73270148  1  -1.172411  0.096411  -0.404318  -0.433943  0.06254  3.557766  0.08
N  N93  1  0.27991673  0.34970529  0.60063210  1  -1.171857  0.0964  -0.404334  -0.433927  0.062541  3.557628  0.08
N  N94  1  0.06979197  0.72009240  0.26729952  1  -1.172487  0.096412  -0.404267  -0.433835  0.062541  3.55764  0.08
N  N95  1  0.65029391  0.93020930  0.93396578  1  -1.169509  0.096407  -0.404253  -0.433858  0.062542  3.557636  0.08
N  N96  1  0.92409958  0.60911411  0.80621200  1  -1.298225  0.0059  -0.371547  -0.240573  0.003484  3.61444  0.005
N  N97  1  0.39088319  0.31498876  0.13954282  1  -1.279322  0.005887  -0.371543  -0.240513  0.003484  3.614454  0.005
N  N98  1  0.68500566  0.07589278  0.47287658  1  -1.273891  0.005895  -0.371533  -0.240453  0.003484  3.614582  0.005
N  N99  1  0.31498709  0.39088319  0.86045635  1  -1.279053  0.005886  -0.371526  -0.240426  0.003484  3.614403  0.005
N  N100  1  0.07589641  0.68501098  0.52712443  1  -1.273851  0.005895  -0.371545  -0.240574  0.003484  3.614647  0.005
N  N101  1  0.60911635  0.92410167  0.19379026  1  -1.298138  0.005899  -0.371504  -0.24045  0.003484  3.614534  0.005
O  O102  1  0.83405175  0.35907488  0.99936172  1  -1.101851  0.102869  -0.321116  -0.498608  0.065072  2.312719  0.093
O  O103  1  0.64092692  0.47498116  0.33269371  1  -1.101147  0.102843  -0.321097  -0.498632  0.065071  2.312842  0.093
O  O104  1  0.52502197  0.16594532  0.66602834  1  -1.105291  0.102882  -0.321114  -0.49859  0.065069  2.312748  0.093
O  O105  1  0.47498211  0.64092634  0.66730731  1  -1.101144  0.102846  -0.321116  -0.498634  0.065073  2.312809  0.093
O  O106  1  0.16594845  0.52502333  0.33397387  1  -1.105263  0.102889  -0.321109  -0.498576  0.065074  2.312637  0.093
O  O107  1  0.35907123  0.83405003  0.00063931  1  -1.101966  0.102864  -0.321131  -0.498678  0.06507  2.312723  0.093
O  O108  1  0.59201301  0.30088601  0.02587365  1  -1.194229  0.004023  -0.316908  -0.564542  0.001919  2.193889  0.004
O  O109  1  0.69911692  0.29113106  0.35920518  1  -1.190549  0.004027  -0.316929  -0.564561  0.00192  2.193849  0.004
O  O110  1  0.70887219  0.40798655  0.69253955  1  -1.190254  0.004026  -0.316913  -0.564544  0.00192  2.19377  0.004
O  O111  1  0.29113323  0.69911749  0.64079462  1  -1.190543  0.004027  -0.316923  -0.564572  0.001919  2.193891  0.004
O  O112  1  0.40798695  0.70887221  0.30745904  1  -1.190349  0.004024  -0.316897  -0.56452  0.001919  2.193882  0.004
O  O113  1  0.30088196  0.59201186  0.97412493  1  -1.194317  0.004024  -0.316925  -0.564598  0.001919  2.193896  0.004
O  O114  1  0.80296073  0.57519696  0.19039796  1  -1.104282  0.096664  -0.315304  -0.464183  0.061486  2.288901  0.087
O  O115  1  0.42482848  0.22778554  0.52372873  1  -1.105316  0.096676  -0.315369  -0.46425  0.061488  2.288877  0.087
O  O116  1  0.77222347  0.19704032  0.85706356  1  -1.10671  0.096676  -0.315378  -0.46426  0.061487  2.288823  0.087
O  O117  1  0.22777900  0.42481558  0.47626984  1  -1.105233  0.096678  -0.31533  -0.464186  0.061488  2.28886  0.087
O  O118  1  0.19703986  0.77221683  0.14293807  1  -1.106711  0.096679  -0.315352  -0.464198  0.061489  2.28886  0.087
O  O119  1  0.57519252  0.80296176  0.80960368  1  -1.104519  0.096665  -0.315329  -0.464192  0.061486  2.289011  0.087
