# generated using pymatgen
data_ZnH28C24(NO)4
_symmetry_space_group_name_H-M   'P 1'
_cell_length_a   6.40920870
_cell_length_b   10.07286596
_cell_length_c   17.14901219
_cell_angle_alpha   89.99810115
_cell_angle_beta   89.99973185
_cell_angle_gamma   96.78811832
_symmetry_Int_Tables_number   1
_chemical_formula_structural   ZnH28C24(NO)4
_chemical_formula_sum   'Zn2 H56 C48 N8 O8'
_cell_volume   1099.36389402
_cell_formula_units_Z   2
loop_
 _symmetry_equiv_pos_site_id
 _symmetry_equiv_pos_as_xyz
  1  'x, y, z'
loop_
 _atom_site_type_symbol
 _atom_site_label
 _atom_site_symmetry_multiplicity
 _atom_site_fract_x
 _atom_site_fract_y
 _atom_site_fract_z
 _atom_site_occupancy
 _atom_site_pbe_bader_spin_density
 _atom_site_pbe_cm5_charge
 _atom_site_pbe_ddec_charge
 _atom_site_pbe_ddec_spin_density
 _atom_site_pbe_ddec_sum_bond_order
 _atom_site_pbe_magmom
Zn  Zn0  1  0.45121185  0.37274018  0.09957705  1  0  0.68248  0.760775  0  2.409653  0
Zn  Zn1  1  0.54879271  0.62724769  0.59956824  1  0  0.682401  0.760766  0  2.409533  0
H  H2  1  0.17535719  0.96615097  0.17823758  1  0  0.09889  0.086525  0  0.994075  0
H  H3  1  0.82462217  0.03383026  0.67821764  1  0  0.098834  0.086504  0  0.994131  0
H  H4  1  0.05803883  0.99474007  0.00872462  1  0  0.079148  0.074245  0  1.037152  0
H  H5  1  0.94196502  0.00528897  0.50870349  1  0  0.079132  0.074209  0  1.036983  0
H  H6  1  0.89529180  0.98172316  0.09140004  1  0  0.087272  0.091654  0  1.021191  0
H  H7  1  0.10471166  0.01829072  0.59137929  1  0  0.087161  0.091468  0  1.021113  0
H  H8  1  0.83017811  0.74729767  0.06516445  1  0  0.086751  0.090963  0  1.017633  0
H  H9  1  0.16982548  0.25272143  0.56515297  1  0  0.086747  0.091019  0  1.017558  0
H  H10  1  0.01836712  0.76344888  0.98992607  1  0  0.081336  0.077863  0  1.034774  0
H  H11  1  0.98165109  0.23659198  0.48991200  1  0  0.081297  0.077798  0  1.034799  0
H  H12  1  0.58150550  0.93000363  0.02539847  1  0  0.085772  0.125625  0  1.043421  0
H  H13  1  0.41849289  0.07001537  0.52538725  1  0  0.085747  0.125496  0  1.043477  0
H  H14  1  0.34597683  0.86346979  0.97758907  1  0  0.081932  0.115348  0  1.029847  0
H  H15  1  0.65402853  0.13657560  0.47757644  1  0  0.082007  0.115311  0  1.029929  0
H  H16  1  0.52126448  0.75437546  0.01291592  1  0  0.081965  0.113677  0  1.034571  0
H  H17  1  0.47872380  0.24564609  0.51290976  1  0  0.081999  0.113715  0  1.034395  0
H  H18  1  0.55846120  0.72473312  0.16635680  1  0  0.081962  0.119504  0  1.028105  0
H  H19  1  0.44152013  0.27524857  0.66636061  1  0  0.081901  0.119505  0  1.028171  0
H  H20  1  0.42675041  0.83002815  0.22770737  1  0  0.077487  0.102362  0  1.043936  0
H  H21  1  0.57322658  0.16993101  0.72769991  1  0  0.077492  0.102411  0  1.043946  0
H  H22  1  0.63297287  0.90132853  0.16640774  1  0  0.085315  0.124669  0  1.041433  0
H  H23  1  0.36702113  0.09865414  0.66639773  1  0  0.085384  0.124765  0  1.041324  0
H  H24  1  0.16569516  0.66929595  0.22650767  1  0  0.077486  0.105278  0  1.060734  0
H  H25  1  0.83428784  0.33067834  0.72648430  1  0  0.077457  0.10532  0  1.060892  0
H  H26  1  0.91798528  0.62273527  0.18171914  1  0  0.080551  0.113468  0  1.037059  0
H  H27  1  0.08200261  0.37725852  0.68170674  1  0  0.0805  0.113387  0  1.037011  0
H  H28  1  0.99206456  0.79133638  0.20844041  1  0  0.0828  0.116212  0  1.040438  0
H  H29  1  0.00791580  0.20864613  0.70843229  1  0  0.0828  0.116167  0  1.04039  0
H  H30  1  0.15197980  0.75975333  0.53963601  1  0  0.145109  0.120314  0  1.009982  0
H  H31  1  0.84803069  0.24024090  0.03965165  1  0  0.145146  0.120397  0  1.010154  0
H  H32  1  0.49749064  0.48348301  0.42841186  1  0  0.118557  0.118231  0  1.04292  0
H  H33  1  0.50251713  0.51651042  0.92841562  1  0  0.118646  0.118258  0  1.042929  0
H  H34  1  0.16749173  0.54488226  0.32960386  1  0  0.124358  0.120263  0  1.043851  0
H  H35  1  0.83250239  0.45509934  0.82961050  1  0  0.124362  0.120297  0  1.043844  0
H  H36  1  0.84093355  0.65595006  0.35810076  1  0  0.117063  0.103493  0  0.989612  0
H  H37  1  0.15906586  0.34404703  0.85811396  1  0  0.116985  0.103421  0  0.989747  0
H  H38  1  0.81295374  0.72152065  0.45264213  1  0  0.119007  0.109666  0  0.98851  0
H  H39  1  0.18704870  0.27847281  0.95265695  1  0  0.118997  0.109671  0  0.988331  0
H  H40  1  0.65989689  0.86373276  0.32415031  1  0  0.102765  0.103875  0  1.013259  0
H  H41  1  0.34009755  0.13627452  0.82414388  1  0  0.1028  0.103898  0  1.013292  0
H  H42  1  0.72388990  0.09578098  0.27591114  1  0  0.105214  0.109078  0  1.016877  0
H  H43  1  0.27612212  0.90423820  0.77590052  1  0  0.10518  0.10903  0  1.016833  0
H  H44  1  0.35595476  0.12621062  0.36628251  1  0  0.104327  0.106874  0  1.003505  0
H  H45  1  0.64407492  0.87377443  0.86629758  1  0  0.104373  0.106893  0  1.003458  0
H  H46  1  0.29413570  0.89329856  0.41178449  1  0  0.10404  0.101947  0  1.025215  0
H  H47  1  0.70585900  0.10667294  0.91180550  1  0  0.104091  0.102058  0  1.025102  0
H  H48  1  0.19802633  0.27518640  0.24123871  1  0  0.118449  0.109353  0  0.999117  0
H  H49  1  0.80199267  0.72484003  0.74123951  1  0  0.118425  0.109353  0  0.999157  0
H  H50  1  0.17353304  0.32983766  0.33915869  1  0  0.113989  0.094398  0  1.008954  0
H  H51  1  0.82647720  0.67017275  0.83915880  1  0  0.113939  0.094312  0  1.008942  0
H  H52  1  0.91920784  0.29151033  0.14750924  1  0  0.139742  0.108649  0  1.028311  0
H  H53  1  0.08078303  0.70850267  0.64750863  1  0  0.13975  0.108619  0  1.028317  0
H  H54  1  0.79259176  0.39668786  0.37982825  1  0  0.125269  0.14534  0  1.048027  0
H  H55  1  0.20740699  0.60330056  0.87982629  1  0  0.125238  0.14525  0  1.048034  0
H  H56  1  0.48049738  0.47601115  0.28062666  1  0  0.116612  0.108953  0  1.034281  0
H  H57  1  0.51949158  0.52397748  0.78061645  1  0  0.116628  0.108877  0  1.034316  0
C  C58  1  0.35608039  0.10242560  0.10767692  1  0  0.20149  0.597572  0  4.117405  0
C  C59  1  0.64391597  0.89756129  0.60765181  1  0  0.201663  0.597777  0  4.116788  0
C  C60  1  0.22715199  0.96607477  0.11678157  1  0  -0.086579  -0.16246  0  3.792605  0
C  C61  1  0.77284113  0.03392101  0.61676104  1  0  -0.086485  -0.162432  0  3.792504  0
C  C62  1  0.03000366  0.94196842  0.06437033  1  0  -0.17063  -0.162348  0  3.878097  0
C  C63  1  0.96999217  0.05805080  0.56435166  1  0  -0.170521  -0.162025  0  3.877522  0
C  C64  1  0.99151928  0.78877173  0.05100627  1  0  -0.171659  -0.193505  0  3.873254  0
C  C65  1  0.00847916  0.21125112  0.55099290  1  0  -0.171673  -0.193675  0  3.873407  0
C  C66  1  0.14886059  0.72688236  0.10389484  1  0  -0.014544  0.018939  0  3.710349  0
C  C67  1  0.85112632  0.27312000  0.60388301  1  0  -0.014542  0.019074  0  3.710126  0
C  C68  1  0.34270930  0.84038618  0.10508456  1  0  -0.006045  0.206983  0  3.686144  0
C  C69  1  0.65727604  0.15960804  0.60507127  1  0  -0.00603  0.206812  0  3.686262  0
C  C70  1  0.21849467  0.59557274  0.07269349  1  0  0.209151  0.58182  0  4.110227  0
C  C71  1  0.78150571  0.40443044  0.57268601  1  0  0.209073  0.58182  0  4.110332  0
C  C72  1  0.45418630  0.84737553  0.02543918  1  0  -0.254544  -0.427361  0  3.889501  0
C  C73  1  0.54580934  0.15264547  0.52542643  1  0  -0.254587  -0.427123  0  3.889506  0
C  C74  1  0.49977348  0.82266338  0.17010347  1  0  -0.253636  -0.42421  0  3.914221  0
C  C75  1  0.50021372  0.17731684  0.67009484  1  0  -0.253628  -0.424314  0  3.914286  0
C  C76  1  0.05156042  0.70155292  0.18525809  1  0  -0.254064  -0.40121  0  3.929922  0
C  C77  1  0.94843827  0.29843243  0.68524284  1  0  -0.253947  -0.4011  0  3.92977  0
C  C78  1  0.20003025  0.68839980  0.49807553  1  0  0.155083  0.108675  0  3.877354  0
C  C79  1  0.79996331  0.31158609  0.99808884  1  0  0.154927  0.10824  0  3.877844  0
C  C80  1  0.37594459  0.54852416  0.43592605  1  0  -0.003633  -0.043161  0  3.996377  0
C  C81  1  0.62404725  0.45146037  0.93593670  1  0  -0.003726  -0.043071  0  3.996195  0
C  C82  1  0.21488886  0.57642771  0.38790930  1  0  0.001194  -0.115037  0  3.937361  0
C  C83  1  0.78509918  0.42355474  0.88791760  1  0  0.001153  -0.115253  0  3.937314  0
C  C84  1  0.92039633  0.72207850  0.40257862  1  0  -0.040156  -0.107961  0  3.888677  0
C  C85  1  0.07960615  0.27790812  0.90259166  1  0  -0.040096  -0.107902  0  3.88847  0
C  C86  1  0.97147416  0.86236580  0.37154317  1  0  -0.010326  0.082562  0  3.989412  0
C  C87  1  0.02852694  0.13762564  0.87155123  1  0  -0.010376  0.082474  0  3.989608  0
C  C88  1  0.81283965  0.92143238  0.33360225  1  0  -0.087999  -0.124555  0  3.982722  0
C  C89  1  0.18715999  0.07857072  0.83359973  1  0  -0.088014  -0.124591  0  3.98272  0
C  C90  1  0.84859508  0.05274583  0.30683185  1  0  -0.088575  -0.130998  0  3.984149  0
C  C91  1  0.15142206  0.94726354  0.80683178  1  0  -0.088532  -0.130898  0  3.984067  0
C  C92  1  0.04395760  0.12752715  0.31883309  1  0  -0.011472  0.087609  0  3.980474  0
C  C93  1  0.95606145  0.87248574  0.81883833  1  0  -0.011563  0.08751  0  3.980351  0
C  C94  1  0.20340657  0.06826249  0.35612032  1  0  -0.085893  -0.117237  0  3.967812  0
C  C95  1  0.79661341  0.93173582  0.85613382  1  0  -0.085873  -0.117169  0  3.967797  0
C  C96  1  0.16816786  0.93648838  0.38183178  1  0  -0.090897  -0.135631  0  4.002098  0
C  C97  1  0.83183722  0.06350078  0.88184690  1  0  -0.090935  -0.135726  0  4.002319  0
C  C98  1  0.09295600  0.27039112  0.29211218  1  0  -0.042485  -0.115167  0  3.906402  0
C  C99  1  0.90705890  0.72962907  0.79211418  1  0  -0.042343  -0.114953  0  3.906345  0
C  C100  1  0.83603890  0.33246667  0.19506653  1  0  0.156008  0.118424  0  3.885129  0
C  C101  1  0.16397583  0.66755545  0.69506352  1  0  0.156126  0.118729  0  3.885224  0
C  C102  1  0.76938198  0.38884829  0.31694707  1  0  -0.00259  -0.130647  0  3.906505  0
C  C103  1  0.23063603  0.61115884  0.81694396  1  0  -0.002507  -0.130342  0  3.906258  0
C  C104  1  0.61521475  0.42435070  0.26787837  1  0  -0.005979  -0.044779  0  4.016323  0
C  C105  1  0.38478765  0.57564949  0.76786998  1  0  -0.006054  -0.044876  0  4.016468  0
N  N106  1  0.36520003  0.61990492  0.50433181  1  0  -0.358258  -0.280258  0  3.603432  0
N  N107  1  0.63479610  0.38008267  0.00434419  1  0  -0.35819  -0.279948  0  3.603507  0
N  N108  1  0.10444348  0.66320127  0.42871522  1  0  -0.240069  0.060461  0  3.802972  0
N  N109  1  0.89555027  0.33678414  0.92872746  1  0  -0.239945  0.060629  0  3.802932  0
N  N110  1  0.90893292  0.33233322  0.26902706  1  0  -0.245788  0.047734  0  3.787008  0
N  N111  1  0.09108337  0.66768280  0.76902637  1  0  -0.245845  0.04746  0  3.787246  0
N  N112  1  0.65711531  0.38733876  0.19228039  1  0  -0.356505  -0.29063  0  3.578105  0
N  N113  1  0.34288893  0.61266871  0.69227266  1  0  -0.356609  -0.290812  0  3.578285  0
O  O114  1  0.55250713  0.11651583  0.10785715  1  0  -0.320248  -0.559447  0  2.183002  0
O  O115  1  0.44748634  0.88346404  0.60782903  1  0  -0.320326  -0.559588  0  2.182742  0
O  O116  1  0.24721248  0.20491428  0.10316072  1  0  -0.349642  -0.587834  0  2.263069  0
O  O117  1  0.75280453  0.79508213  0.60313542  1  0  -0.349709  -0.587861  0  2.262639  0
O  O118  1  0.29817750  0.52378702  0.12585684  1  0  -0.346601  -0.564626  0  2.342406  0
O  O119  1  0.70180609  0.47619264  0.62585532  1  0  -0.346527  -0.564607  0  2.342299  0
O  O120  1  0.20495821  0.56414165  0.00209872  1  0  -0.329762  -0.570359  0  2.178378  0
O  O121  1  0.79504384  0.43588521  0.50209423  1  0  -0.32977  -0.570396  0  2.178543  0
