# generated using pymatgen
data_Al2H10C22Br3O10F
_symmetry_space_group_name_H-M   'P 1'
_cell_length_a   6.67797269
_cell_length_b   16.42047597
_cell_length_c   17.07579572
_cell_angle_alpha   79.09611385
_cell_angle_beta   89.99863693
_cell_angle_gamma   89.99975121
_symmetry_Int_Tables_number   1
_chemical_formula_structural   Al2H10C22Br3O10F
_chemical_formula_sum   'Al4 H20 C44 Br6 O20 F2'
_cell_volume   1838.64923588
_cell_formula_units_Z   2
loop_
 _symmetry_equiv_pos_site_id
 _symmetry_equiv_pos_as_xyz
  1  'x, y, z'
loop_
 _atom_site_type_symbol
 _atom_site_label
 _atom_site_symmetry_multiplicity
 _atom_site_fract_x
 _atom_site_fract_y
 _atom_site_fract_z
 _atom_site_occupancy
 _atom_site_pbe_bader_charge
 _atom_site_pbe_bader_spin_density
 _atom_site_pbe_cm5_charge
 _atom_site_pbe_ddec_charge
 _atom_site_pbe_ddec_spin_density
 _atom_site_pbe_ddec_sum_bond_order
 _atom_site_pbe_magmom
Al  Al0  1  0.08758225  0.50239872  0.49894178  1  2.495556  0  0.39567  1.644663  0  2.574536  0
Al  Al1  1  0.58757980  0.49760095  0.50106432  1  2.49596  0  0.395745  1.644789  0  2.574221  0
Al  Al2  1  0.63372372  0.00004325  0.00081001  1  2.501862  0  0.39479  1.650101  0  2.568753  0
Al  Al3  1  0.13371783  0.99995983  0.99919542  1  2.501846  0  0.394699  1.649984  0  2.569088  0
H  H4  1  0.57116173  0.25859564  0.65463467  1  0.0683  0  0.109386  0.111507  0  0.996407  0
H  H5  1  0.07120593  0.74138437  0.34537516  1  0.066988  0  0.109384  0.11149  0  0.996406  0
H  H6  1  0.59184987  0.14012717  0.76962280  1  0.085887  0  0.110613  0.114982  0  0.994955  0
H  H7  1  0.09185219  0.85985351  0.23038402  1  0.086189  0  0.11055  0.114947  0  0.994914  0
H  H8  1  0.35759369  0.21112844  0.80433353  1  0.137804  0  0.103492  0.094547  0  1.011888  0
H  H9  1  0.85760351  0.78887376  0.19564423  1  0.138324  0  0.103499  0.0946  0  1.011874  0
H  H10  1  0.33504630  0.34193734  0.69896181  1  0.086834  0  0.103839  0.129825  0  0.993303  0
H  H11  1  0.83505787  0.65806842  0.30100940  1  0.086628  0  0.103945  0.130041  0  0.993546  0
H  H12  1  0.21341249  0.39243552  0.76979609  1  0.065392  0  0.101454  0.125902  0  0.972991  0
H  H13  1  0.71347415  0.60756278  0.23018545  1  0.065051  0  0.10146  0.125841  0  0.97313  0
H  H14  1  0.55977009  0.42119428  0.29103987  1  0.131071  0  0.111863  0.130741  0  0.998289  0
H  H15  1  0.05972087  0.57882364  0.70896556  1  0.131156  0  0.111832  0.130754  0  0.998483  0
H  H16  1  0.21116390  0.17409677  0.30622678  1  0.083709  0  0.092173  0.100274  0  1.046337  0
H  H17  1  0.71111206  0.82591262  0.69376363  1  0.083837  0  0.092272  0.100462  0  1.046404  0
H  H18  1  0.17454304  0.08994099  0.20113880  1  0.097112  0  0.117704  0.1289  0  0.968153  0
H  H19  1  0.67454304  0.91006519  0.79885465  1  0.0971  0  0.117728  0.12894  0  0.968103  0
H  H20  1  0.33061530  0.40357776  0.47216274  1  0.599748  0  0.329846  0.405205  0  0.909544  0
H  H21  1  0.83060893  0.59642099  0.52784844  1  0.599563  0  0.329862  0.405246  0  0.90951  0
H  H22  1  0.38180412  0.11021563  0.98213397  1  0.602588  0  0.327664  0.407596  0  0.906454  0
H  H23  1  0.88180597  0.88978303  0.01785987  1  0.602641  0  0.32765  0.407606  0  0.906478  0
C  C24  1  0.33951412  0.58326045  0.60280775  1  1.597593  0  0.271069  0.659538  0  4.068983  0
C  C25  1  0.83954486  0.41674653  0.39719562  1  1.597633  0  0.270785  0.658761  0  4.069868  0
C  C26  1  0.34269605  0.61785601  0.39072576  1  1.591635  0  0.264582  0.640189  0  4.119525  0
C  C27  1  0.84262681  0.38213460  0.60927414  1  1.591694  0  0.26465  0.640171  0  4.119303  0
C  C28  1  0.02039477  0.29946519  0.72842612  1  -0.027594  0  0.003839  0.083078  0  3.872057  0
C  C29  1  0.52043010  0.70051252  0.27156234  1  -0.027667  0  0.003986  0.083241  0  3.870895  0
C  C30  1  0.85531407  0.31127694  0.67751923  1  -0.008478  0  -0.007582  -0.07754  0  3.966539  0
C  C31  1  0.35533085  0.68870687  0.32247831  1  -0.007925  0  -0.00771  -0.077633  0  3.966049  0
C  C32  1  0.70139519  0.25177091  0.69385496  1  0.014368  0  -0.07786  -0.094246  0  3.980923  0
C  C33  1  0.20141229  0.74821326  0.30614932  1  0.015243  0  -0.077825  -0.094148  0  3.980696  0
C  C34  1  0.71273934  0.18543137  0.75819624  1  -0.049974  0  -0.081163  -0.105693  0  3.983284  0
C  C35  1  0.21275017  0.81454572  0.24180390  1  -0.051482  0  -0.081149  -0.105765  0  3.982678  0
C  C36  1  0.87887978  0.17420477  0.80987071  1  0.009297  0  -0.003257  -0.054177  0  3.96236  0
C  C37  1  0.37888722  0.82578955  0.19011065  1  0.011267  0  -0.003108  -0.053999  0  3.962274  0
C  C38  1  0.03218375  0.23213380  0.79186543  1  -0.028959  0  -0.00907  0.010038  0  3.909139  0
C  C39  1  0.53220067  0.76785843  0.20811101  1  -0.029127  0  -0.009155  0.009904  0  3.908926  0
C  C40  1  0.24060138  0.25481721  0.81366515  1  -0.036655  0  -0.063926  0.025423  0  3.741863  0
C  C41  1  0.74060115  0.74518275  0.18631158  1  -0.040989  0  -0.064069  0.025014  0  3.742117  0
C  C42  1  0.22182665  0.33467132  0.74641279  1  -0.025492  0  -0.149652  -0.238604  0  3.834313  0
C  C43  1  0.72188246  0.66531530  0.25357596  1  -0.021188  0  -0.149708  -0.238571  0  3.834151  0
C  C44  1  0.83245346  0.36082251  0.33732059  1  0.053841  0  -0.016909  -0.071117  0  3.971954  0
C  C45  1  0.33240810  0.63918871  0.66268276  1  0.054512  0  -0.017119  -0.071714  0  3.972061  0
C  C46  1  0.89626327  0.14619968  0.15637430  1  0.043504  0  -0.019051  -0.148081  0  3.97671  0
C  C47  1  0.39626577  0.85378504  0.84364523  1  0.059684  0  -0.019145  -0.148442  0  3.977094  0
C  C48  1  0.08310773  0.18340415  0.26619052  1  0.010742  0  -0.104291  -0.154234  0  4.041674  0
C  C49  1  0.58309351  0.81659677  0.73380248  1  0.010666  0  -0.104483  -0.154448  0  4.041801  0
C  C50  1  0.06253134  0.13609996  0.20856926  1  -0.010576  0  -0.075151  -0.054033  0  3.987598  0
C  C51  1  0.56253017  0.86389766  0.79143093  1  -0.027035  0  -0.075162  -0.054126  0  3.987216  0
C  C52  1  0.75634304  0.20662434  0.16354008  1  0.472657  0  0.115464  0.249914  0  3.976007  0
C  C53  1  0.25634808  0.79336837  0.83649445  1  0.472609  0  0.115447  0.250105  0  3.976539  0
C  C54  1  0.77323709  0.26016335  0.21988340  1  0.02589  0  -0.010442  -0.064585  0  3.948319  0
C  C55  1  0.27322776  0.73983952  0.78013020  1  0.026199  0  -0.010318  -0.064489  0  3.947452  0
C  C56  1  0.94344906  0.24662323  0.27360572  1  0.052257  0  -0.006457  0.056277  0  3.98359  0
C  C57  1  0.44342748  0.75337914  0.72640231  1  0.051953  0  -0.006469  0.056201  0  3.983609  0
C  C58  1  0.96846081  0.29846259  0.33134309  1  -0.087782  0  -0.004699  0.043231  0  3.8766  0
C  C59  1  0.46843541  0.70154833  0.66865593  1  -0.088103  0  -0.004802  0.043219  0  3.87638  0
C  C60  1  0.66649874  0.37276523  0.28477781  1  0.040711  0  -0.096432  -0.161559  0  4.012414  0
C  C61  1  0.16644921  0.62724554  0.71522336  1  0.039435  0  -0.096225  -0.161226  0  4.012599  0
C  C62  1  0.63754105  0.32555040  0.22729834  1  -0.099688  0  -0.012939  0.082846  0  3.948446  0
C  C63  1  0.13750310  0.67445474  0.77271243  1  -0.099401  0  -0.012912  0.082887  0  3.947965  0
C  C64  1  0.38301670  0.89364007  0.11889657  1  1.58583  0  0.268929  0.645123  0  4.11007  0
C  C65  1  0.88301927  0.10635008  0.88110685  1  1.585716  0  0.269086  0.645188  0  4.10893  0
C  C66  1  0.38444868  0.90692252  0.90572724  1  1.603957  0  0.269109  0.659418  0  4.097311  0
C  C67  1  0.88441600  0.09307070  0.09428569  1  1.603183  0  0.268998  0.659072  0  4.097657  0
Br  Br68  1  0.40884757  0.35534081  0.16126826  1  -0.019792  0  0.038161  -0.043956  0  1.444625  0
Br  Br69  1  0.90880288  0.64467788  0.83874269  1  -0.019741  0  0.038156  -0.044004  0  1.444834  0
Br  Br70  1  0.29008393  0.27227509  0.92306728  1  -0.137888  0  -0.013498  -0.117744  0  1.275462  0
Br  Br71  1  0.79009624  0.72772697  0.07690937  1  -0.138116  0  -0.013422  -0.117598  0  1.275612  0
Br  Br72  1  0.18852576  0.27543908  0.40374709  1  -0.051529  0  0.069325  -0.023068  0  1.503489  0
Br  Br73  1  0.68849245  0.72457320  0.59624988  1  -0.051207  0  0.069377  -0.022958  0  1.503573  0
O  O74  1  0.50995559  0.58729963  0.41741467  1  -1.252277  0  -0.233304  -0.585577  0  2.354828  0
O  O75  1  0.00990782  0.41267611  0.58255177  1  -1.251661  0  -0.233432  -0.585803  0  2.354407  0
O  O76  1  0.16939862  0.56420976  0.57784791  1  -1.255291  0  -0.229862  -0.581596  0  2.347791  0
O  O77  1  0.66945531  0.43575920  0.42218748  1  -1.255084  0  -0.229825  -0.581358  0  2.348289  0
O  O78  1  0.16926670  0.59434395  0.41710918  1  -1.25733  0  -0.237011  -0.590527  0  2.32714  0
O  O79  1  0.66921586  0.40567634  0.58292529  1  -1.257595  0  -0.237004  -0.590316  0  2.327447  0
O  O80  1  0.00768123  0.44178787  0.41774778  1  -1.254447  0  -0.230876  -0.588835  0  2.382123  0
O  O81  1  0.50763590  0.55825826  0.58222000  1  -1.254588  0  -0.230983  -0.589201  0  2.382305  0
O  O82  1  0.33552411  0.45049064  0.49932567  1  -1.410217  0  -0.451296  -0.987702  0  2.20924  0
O  O83  1  0.83552346  0.54951077  0.50068131  1  -1.410064  0  -0.451321  -0.987725  0  2.209154  0
O  O84  1  0.21338590  0.92709125  0.92829154  1  -1.241784  0  -0.232581  -0.582457  0  2.339431  0
O  O85  1  0.71337795  0.07290630  0.07172277  1  -1.241597  0  -0.232557  -0.582289  0  2.33998  0
O  O86  1  0.55428376  0.91791737  0.09138304  1  -1.251638  0  -0.230474  -0.583876  0  2.349019  0
O  O87  1  0.05430568  0.08207781  0.90862016  1  -1.25146  0  -0.230468  -0.583757  0  2.348572  0
O  O88  1  0.55324940  0.92797899  0.92996414  1  -1.2487  0  -0.230466  -0.586987  0  2.363655  0
O  O89  1  0.05323761  0.07201916  0.07004261  1  -1.248413  0  -0.230515  -0.58702  0  2.363529  0
O  O90  1  0.71369744  0.07997387  0.90919561  1  -1.25633  0  -0.230594  -0.586014  0  2.353994  0
O  O91  1  0.21371032  0.92002227  0.09081334  1  -1.256392  0  -0.230578  -0.585919  0  2.35409  0
O  O92  1  0.38372330  0.04984827  0.99309705  1  -1.414427  0  -0.453173  -0.997113  0  2.22124  0
O  O93  1  0.88372628  0.95015085  0.00691048  1  -1.41446  0  -0.453148  -0.997183  0  2.221387  0
F  F94  1  0.59910048  0.21709466  0.11284616  1  -0.631617  0  -0.086731  -0.119411  0  1.458218  0
F  F95  1  0.09915989  0.78288372  0.88719224  1  -0.631458  0  -0.086724  -0.119354  0  1.458713  0
