# generated using pymatgen
data_CuH4(C2N3)2
_symmetry_space_group_name_H-M   'P 1'
_cell_length_a   12.06178614
_cell_length_b   12.35454834
_cell_length_c   12.53603659
_cell_angle_alpha   56.47273176
_cell_angle_beta   62.15415123
_cell_angle_gamma   62.78224011
_symmetry_Int_Tables_number   1
_chemical_formula_structural   CuH4(C2N3)2
_chemical_formula_sum   'Cu6 H24 C24 N36'
_cell_volume   1325.63240244
_cell_formula_units_Z   6
loop_
 _symmetry_equiv_pos_site_id
 _symmetry_equiv_pos_as_xyz
  1  'x, y, z'
loop_
 _atom_site_type_symbol
 _atom_site_label
 _atom_site_symmetry_multiplicity
 _atom_site_fract_x
 _atom_site_fract_y
 _atom_site_fract_z
 _atom_site_occupancy
 _atom_site_pbe_bader_charge
 _atom_site_pbe_bader_spin_density
 _atom_site_pbe_cm5_charge
 _atom_site_pbe_ddec_charge
 _atom_site_pbe_ddec_spin_density
 _atom_site_pbe_ddec_sum_bond_order
 _atom_site_pbe_magmom
Cu  Cu0  1  0.50004443  0.49997818  0.49998292  1  1.059249  -0.527832  0.791782  0.542926  -0.712922  2.57656  -0.526
Cu  Cu1  1  0.49998468  0.00002450  0.00000881  1  1.075415  0.605763  0.795337  0.545498  0.752883  2.583034  0.604
Cu  Cu2  1  0.99999374  0.50002172  0.99999061  1  1.080219  0.623066  0.789844  0.548084  0.772358  2.569412  0.621
Cu  Cu3  1  0.50000360  0.50000588  0.99996476  1  1.056863  0.567104  0.779271  0.534652  0.703504  2.563816  0.566
Cu  Cu4  1  0.36338087  0.38067379  0.87776929  1  1.074451  0.583214  0.785996  0.476532  0.726841  2.584246  0.582
Cu  Cu5  1  0.63660755  0.61933007  0.12222576  1  1.07445  0.583172  0.786205  0.476642  0.726789  2.584472  0.582
H  H6  1  0.17303205  0.66215249  0.48611109  1  0.085058  0.001094  0.118068  0.11596  0.00054  0.993742  0.0
H  H7  1  0.66779446  0.97591788  0.15303422  1  0.120895  0.000562  0.122833  0.122609  0.000248  0.992956  0.0
H  H8  1  0.95895151  0.67605789  0.71145491  1  0.126875  0.000748  0.122792  0.122783  0.000314  0.995331  0.0
H  H9  1  0.64839026  0.20124781  0.17346801  1  0.088723  0.000553  0.123174  0.123289  0.000227  0.990919  0.0
H  H10  1  0.66074427  0.21415408  0.47766308  1  0.117462  0.000244  0.122952  0.126126  0.000159  0.989155  0.0
H  H11  1  0.22639409  0.65201450  0.16240314  1  0.090892  2.1e-05  0.119471  0.121084  -8.2e-05  0.990841  0.0
H  H12  1  0.66052070  0.97371873  0.71758345  1  0.091268  -0.000602  0.122947  0.126083  -0.000391  0.988936  0.0
H  H13  1  0.99131920  0.66233248  0.15519515  1  0.108041  0.000214  0.118348  0.119857  3.8e-05  0.992526  0.0
H  H14  1  0.67750947  0.64844292  0.46298826  1  0.110554  0.000524  0.122542  0.122958  0.000334  0.996275  0.0
H  H15  1  0.97442873  0.18604443  0.17348935  1  0.115318  0.000309  0.119681  0.118414  0.000135  0.993479  0.0
H  H16  1  0.65779259  0.67708303  0.68066477  1  0.084125  2.2e-05  0.120112  0.118789  1.2e-05  0.99241  0.0
H  H17  1  0.19350876  0.96564804  0.15377791  1  0.097073  0.00043  0.118543  0.11723  0.000205  0.996754  0.0
H  H18  1  0.80648341  0.03435048  0.84623058  1  0.097097  0.000427  0.118563  0.11723  0.000203  0.99675  0.0
H  H19  1  0.32253248  0.35151874  0.53701802  1  0.110764  0.000522  0.122573  0.123106  0.000334  0.99624  0.0
H  H20  1  0.02555590  0.81395391  0.82652650  1  0.115175  0.000306  0.119686  0.118446  0.000134  0.993562  0.0
H  H21  1  0.34219284  0.32295939  0.31931559  1  0.084377  1.9e-05  0.120103  0.118739  1e-05  0.992497  0.0
H  H22  1  0.33943325  0.02624714  0.28243205  1  0.090661  -0.000604  0.122947  0.126111  -0.000391  0.989199  0.0
H  H23  1  0.77359297  0.34798215  0.83762285  1  0.091524  2.1e-05  0.119527  0.121168  -8.2e-05  0.99082  0.0
H  H24  1  0.33925231  0.78580498  0.52233419  1  0.117886  0.000243  0.122988  0.126139  0.000159  0.989119  0.0
H  H25  1  0.00866834  0.33771474  0.84477160  1  0.107949  0.000213  0.118309  0.119878  3.8e-05  0.992607  0.0
H  H26  1  0.33219468  0.02407221  0.84700114  1  0.119944  0.000559  0.122885  0.122709  0.000247  0.992925  0.0
H  H27  1  0.04107772  0.32393398  0.28852582  1  0.126825  0.000746  0.122788  0.122736  0.000313  0.994985  0.0
H  H28  1  0.35158492  0.79873051  0.82658347  1  0.088805  0.000551  0.123222  0.123425  0.000226  0.99086  0.0
H  H29  1  0.82694170  0.33785293  0.51388171  1  0.085305  0.001093  0.118045  0.115996  0.000539  0.993865  0.0
C  C30  1  0.16682265  0.61667262  0.59081074  1  0.410958  0.004821  -0.005618  -0.071608  0.003773  4.054053  0.005
C  C31  1  0.61569585  0.08133636  0.11047649  1  0.374861  0.003827  0.000609  -0.066161  0.003423  4.030729  0.005
C  C32  1  0.06149087  0.62462686  0.70075670  1  0.364038  0.00209  0.000338  -0.064104  0.002393  4.025061  0.004
C  C33  1  0.60557745  0.19139560  0.12115116  1  0.416585  0.003763  0.001391  -0.062844  0.003288  4.024188  0.005
C  C34  1  0.61464144  0.19618738  0.58164551  1  0.39047  0.00055  -0.002454  -0.070234  -0.000493  4.018322  -0.001
C  C35  1  0.20708146  0.61175791  0.11672757  1  0.376505  0.00355  -0.00676  -0.073313  0.003271  4.034008  0.005
C  C36  1  0.61453173  0.07871260  0.69891068  1  0.405463  -0.000443  -0.002355  -0.069965  0.000419  4.021184  0.002
C  C37  1  0.09192419  0.61684511  0.11284252  1  0.391801  0.003322  -0.009577  -0.0761  0.002835  4.04759  0.004
C  C38  1  0.62130077  0.61104023  0.56719313  1  0.40802  0.001185  -0.000223  -0.068182  0.000629  4.024698  0.001
C  C39  1  0.07707548  0.17984360  0.12255793  1  0.379096  0.002307  -0.003017  -0.066327  0.002336  4.037543  0.004
C  C40  1  0.61057131  0.62555391  0.67385840  1  0.41899  -5.3e-05  -0.002941  -0.066849  0.000275  4.044617  0.002
C  C41  1  0.18444926  0.07203508  0.11196361  1  0.413536  0.003734  -0.006452  -0.07278  0.003338  4.046788  0.005
C  C42  1  0.81554672  0.92796493  0.88803488  1  0.413435  0.00374  -0.006429  -0.072632  0.003343  4.047258  0.005
C  C43  1  0.37869335  0.38894986  0.43281009  1  0.407262  0.001184  -0.000299  -0.068293  0.000628  4.024667  0.001
C  C44  1  0.92291750  0.82018048  0.87743238  1  0.379976  0.002306  -0.003028  -0.066389  0.00234  4.03771  0.004
C  C45  1  0.38942245  0.37445136  0.32616051  1  0.41949  -4.1e-05  -0.002713  -0.066514  0.000283  4.045012  0.002
C  C46  1  0.38544737  0.92126998  0.30111818  1  0.405669  -0.000441  -0.002401  -0.070081  0.000418  4.021427  0.002
C  C47  1  0.79292024  0.38824023  0.88328395  1  0.375687  0.003543  -0.006699  -0.073314  0.003265  4.034361  0.005
C  C48  1  0.38536543  0.80380810  0.41834806  1  0.389506  0.000541  -0.002355  -0.069991  -0.0005  4.018488  -0.001
C  C49  1  0.90807391  0.38315973  0.88715896  1  0.39222  0.003319  -0.009646  -0.076188  0.002834  4.047872  0.004
C  C50  1  0.38428635  0.91866465  0.88953513  1  0.375841  0.00383  0.000587  -0.066083  0.003426  4.030563  0.005
C  C51  1  0.93852412  0.37537168  0.29923788  1  0.362207  0.002111  0.000425  -0.063715  0.002401  4.024953  0.004
C  C52  1  0.39440570  0.80860814  0.87887446  1  0.416703  0.003763  0.001362  -0.063003  0.003288  4.024712  0.005
C  C53  1  0.83321094  0.38330912  0.40917486  1  0.410585  0.004825  -0.005574  -0.071718  0.003775  4.0542  0.005
N  N54  1  0.27408267  0.53696940  0.63405603  1  -0.643497  0.021246  -0.22927  -0.194794  0.012864  3.433114  0.016
N  N55  1  0.54263580  0.12650670  0.03105201  1  -0.684246  0.073085  -0.243767  -0.157331  0.047698  3.551485  0.065
N  N56  1  0.10809431  0.54918011  0.80799006  1  -0.676051  0.096795  -0.258778  -0.148089  0.063305  3.593179  0.084
N  N57  1  0.52688275  0.29988467  0.04760959  1  -0.649004  0.074798  -0.24444  -0.153346  0.049108  3.551762  0.066
N  N58  1  0.54067653  0.29958374  0.61761833  1  -0.700073  -0.075258  -0.25349  -0.142606  -0.054074  3.623185  -0.066
N  N59  1  0.30498319  0.54156147  0.04708227  1  -0.696464  0.087294  -0.262186  -0.15607  0.057048  3.636681  0.076
N  N60  1  0.54038325  0.11620839  0.80066637  1  -0.704561  0.081749  -0.254252  -0.145042  0.054048  3.635663  0.072
N  N61  1  0.12422983  0.54970394  0.04122786  1  -0.686746  0.056899  -0.240933  -0.172085  0.037012  3.541705  0.05
N  N62  1  0.54158131  0.53505368  0.61471620  1  -0.680145  -0.068653  -0.256875  -0.147292  -0.049711  3.596056  -0.061
N  N63  1  0.12068497  0.29114390  0.05173804  1  -0.670116  0.046773  -0.243781  -0.176128  0.030245  3.510532  0.042
N  N64  1  0.52489952  0.55830473  0.78253737  1  -0.689961  0.007738  -0.231923  -0.180669  0.004966  3.46828  0.008
N  N65  1  0.29016584  0.12099641  0.03478871  1  -0.681202  0.038122  -0.2398  -0.184047  0.024393  3.500212  0.034
N  N66  1  0.70983586  0.87899550  0.96520646  1  -0.681458  0.03817  -0.239727  -0.184155  0.024421  3.500608  0.034
N  N67  1  0.45843300  0.46495412  0.38525421  1  -0.679247  -0.068717  -0.25694  -0.147711  -0.049753  3.596291  -0.061
N  N68  1  0.87927756  0.70888335  0.94826933  1  -0.670006  0.046816  -0.243797  -0.176246  0.030271  3.510459  0.042
N  N69  1  0.47510191  0.44169642  0.21748906  1  -0.690576  0.00772  -0.232145  -0.181029  0.004954  3.468534  0.008
N  N70  1  0.45960650  0.88376190  0.19935568  1  -0.703942  0.081813  -0.254246  -0.145062  0.054091  3.635209  0.072
N  N71  1  0.69502688  0.45844957  0.95290953  1  -0.696457  0.087314  -0.26239  -0.156276  0.05706  3.637138  0.076
N  N72  1  0.45934776  0.70042729  0.38235405  1  -0.699084  -0.075287  -0.253361  -0.142423  -0.054094  3.622839  -0.067
N  N73  1  0.87575930  0.45030463  0.95877360  1  -0.6868  0.056913  -0.240751  -0.17199  0.03702  3.541811  0.051
N  N74  1  0.45736249  0.87346455  0.96896486  1  -0.684012  0.073168  -0.243608  -0.157481  0.047751  3.551208  0.065
N  N75  1  0.89191998  0.45083489  0.19200261  1  -0.674116  0.096837  -0.25893  -0.148425  0.063338  3.593726  0.084
N  N76  1  0.47311660  0.70014109  0.95239550  1  -0.648675  0.074861  -0.244606  -0.153698  0.049153  3.5524  0.067
N  N77  1  0.72595301  0.46302689  0.36591027  1  -0.643135  0.021249  -0.229432  -0.195032  0.012866  3.433403  0.016
N  N78  1  0.23636678  0.49789793  0.76475939  1  -0.204758  0.079675  -0.143532  -0.02376  0.054062  3.565877  0.072
N  N79  1  0.49016509  0.25833194  0.99428762  1  -0.174433  0.072104  -0.135922  -0.020655  0.049536  3.531638  0.065
N  N80  1  0.49629711  0.24966833  0.75014481  1  -0.115553  0.000641  -0.121071  -0.072111  0.000415  3.371441  0.002
N  N81  1  0.25311925  0.50509205  0.00234491  1  -0.156582  0.001801  -0.129833  -0.070979  0.001426  3.420827  0.003
N  N82  1  0.48468268  0.50460802  0.74475094  1  -0.176703  0.070758  -0.14198  -0.023678  0.048288  3.553742  0.064
N  N83  1  0.24904832  0.25240629  0.00054178  1  -0.207337  0.084328  -0.147147  -0.02037  0.057354  3.601868  0.076
N  N84  1  0.75092706  0.74759565  0.99947248  1  -0.207599  0.084312  -0.147148  -0.020195  0.057343  3.602096  0.076
N  N85  1  0.51533629  0.49540477  0.25523065  1  -0.177078  0.070718  -0.141763  -0.023197  0.048263  3.55488  0.064
N  N86  1  0.50373034  0.75031382  0.24983940  1  -0.115831  0.000645  -0.121069  -0.072326  0.000418  3.372029  0.002
N  N87  1  0.74687487  0.49493155  0.99764574  1  -0.156643  0.001804  -0.12982  -0.070911  0.001429  3.421136  0.003
N  N88  1  0.50984808  0.74165526  0.00572771  1  -0.17502  0.072103  -0.135712  -0.02017  0.049531  3.532457  0.065
N  N89  1  0.76365743  0.50211290  0.23521424  1  -0.205033  0.079635  -0.143283  -0.023432  0.054038  3.566493  0.072
