# generated using pymatgen
data_KH7C7SO5
_symmetry_space_group_name_H-M   'P 1'
_cell_length_a   6.37944684
_cell_length_b   10.02851874
_cell_length_c   16.17413491
_cell_angle_alpha   95.80483514
_cell_angle_beta   89.99784125
_cell_angle_gamma   108.54376803
_symmetry_Int_Tables_number   1
_chemical_formula_structural   KH7C7SO5
_chemical_formula_sum   'K4 H28 C28 S4 O20'
_cell_volume   975.44214428
_cell_formula_units_Z   4
loop_
 _symmetry_equiv_pos_site_id
 _symmetry_equiv_pos_as_xyz
  1  'x, y, z'
loop_
 _atom_site_type_symbol
 _atom_site_label
 _atom_site_symmetry_multiplicity
 _atom_site_fract_x
 _atom_site_fract_y
 _atom_site_fract_z
 _atom_site_occupancy
 _atom_site_hle17_bader_spin_density
 _atom_site_hle17_ddec_charge
 _atom_site_hle17_ddec_spin_density
 _atom_site_hle17_ddec_sum_bond_order
 _atom_site_hle17_magmom
 _atom_site_hse06_10hf_bader_spin_density
 _atom_site_hse06_10hf_ddec_charge
 _atom_site_hse06_10hf_ddec_spin_density
 _atom_site_hse06_10hf_ddec_sum_bond_order
 _atom_site_hse06_10hf_magmom
 _atom_site_hse06_bader_spin_density
 _atom_site_hse06_ddec_charge
 _atom_site_hse06_ddec_spin_density
 _atom_site_hse06_ddec_sum_bond_order
 _atom_site_hse06_magmom
 _atom_site_pbe_bader_spin_density
 _atom_site_pbe_cm5_charge
 _atom_site_pbe_ddec_charge
 _atom_site_pbe_ddec_spin_density
 _atom_site_pbe_ddec_sum_bond_order
 _atom_site_pbe_magmom
K  K0  1  0.76159388  0.01198186  0.90296577  1  0  0.933844  0  0.455804  0  0  0.885786  0  0.631733  0  0  0.900309  0  0.608558  0  0  0.835218  0.875653  0  0.647046  0
K  K1  1  0.74985322  0.98782581  0.59723463  1  0  0.934363  0  0.454053  0  0  0.887103  0  0.628559  0  0  0.901564  0  0.605412  0  0  0.834105  0.875596  0  0.646139  0
K  K2  1  0.23841001  0.98801371  0.09703535  1  0  0.933826  0  0.45583  0  0  0.885774  0  0.631742  0  0  0.900295  0  0.60857  0  0  0.835217  0.875645  0  0.647054  0
K  K3  1  0.25012877  0.01217611  0.40276629  1  0  0.934378  0  0.454017  0  0  0.887096  0  0.628558  0  0  0.901579  0  0.605366  0  0  0.834097  0.875589  0  0.646136  0
H  H4  1  0.62575424  0.19711211  0.75488242  1  0  0.406483  0  0.884073  0  0  0.383417  0  0.949638  0  0  0.393987  0  0.934453  0  0  0.311078  0.376085  0  0.96005  0
H  H5  1  0.42959435  0.80283159  0.74544622  1  0  0.407179  0  0.882714  0  0  0.383402  0  0.949537  0  0  0.393933  0  0.934431  0  0  0.311108  0.375752  0  0.960579  0
H  H6  1  0.37425228  0.80288558  0.24511822  1  0  0.406451  0  0.884122  0  0  0.383381  0  0.949692  0  0  0.393951  0  0.934507  0  0  0.311068  0.376049  0  0.960105  0
H  H7  1  0.57040591  0.19716927  0.25455587  1  0  0.4072  0  0.882698  0  0  0.38343  0  0.949497  0  0  0.39396  0  0.934392  0  0  0.311146  0.375779  0  0.960549  0
H  H8  1  0.29505279  0.56223771  0.94290624  1  0  0.119785  0  0.964695  0  0  0.13177  0  1.025448  0  0  0.134853  0  1.024173  0  0  0.110871  0.129536  0  1.026487  0
H  H9  1  0.73308874  0.43759120  0.55716835  1  0  0.11905  0  0.965085  0  0  0.131365  0  1.025676  0  0  0.134469  0  1.024324  0  0  0.110702  0.129132  0  1.026782  0
H  H10  1  0.70494697  0.43776528  0.05709351  1  0  0.119822  0  0.96472  0  0  0.131821  0  1.025458  0  0  0.134906  0  1.024177  0  0  0.110877  0.129586  0  1.0265  0
H  H11  1  0.26690996  0.56240966  0.44283312  1  0  0.119078  0  0.965162  0  0  0.131391  0  1.025747  0  0  0.134497  0  1.024392  0  0  0.11073  0.129158  0  1.026854  0
H  H12  1  0.60582984  0.42826020  0.76609532  1  0  0.108347  0  0.994566  0  0  0.11742  0  1.057742  0  0  0.119106  0  1.059493  0  0  0.100353  0.116102  0  1.056814  0
H  H13  1  0.17874277  0.57180860  0.73438927  1  0  0.107457  0  0.994515  0  0  0.116429  0  1.057748  0  0  0.118189  0  1.059394  0  0  0.100258  0.115288  0  1.056622  0
H  H14  1  0.39417144  0.57173327  0.23390380  1  0  0.10842  0  0.994594  0  0  0.117492  0  1.057738  0  0  0.11917  0  1.059506  0  0  0.100378  0.116174  0  1.056807  0
H  H15  1  0.82125490  0.42819332  0.26561165  1  0  0.107481  0  0.994597  0  0  0.116415  0  1.057854  0  0  0.118174  0  1.059501  0  0  0.100245  0.115275  0  1.056724  0
H  H16  1  0.80677589  0.68196376  0.81143495  1  0  0.104019  0  0.946531  0  0  0.112917  0  1.009055  0  0  0.116912  0  1.005707  0  0  0.109786  0.110056  0  1.011387  0
H  H17  1  0.12549912  0.31812373  0.68891571  1  0  0.104688  0  0.946247  0  0  0.113355  0  1.008927  0  0  0.117383  0  1.005579  0  0  0.109935  0.110557  0  1.01131  0
H  H18  1  0.19322279  0.31803079  0.18856177  1  0  0.104066  0  0.946429  0  0  0.112935  0  1.008989  0  0  0.116928  0  1.005642  0  0  0.109787  0.110076  0  1.011318  0
H  H19  1  0.87450062  0.68187606  0.31108631  1  0  0.104733  0  0.946129  0  0  0.113373  0  1.008846  0  0  0.117401  0  1.005499  0  0  0.109946  0.110574  0  1.011229  0
H  H20  1  0.43958401  0.38263781  0.91624383  1  0  0.077386  0  0.958046  0  0  0.094935  0  1.025702  0  0  0.09461  0  1.026564  0  0  0.094712  0.095076  0  1.025346  0
H  H21  1  0.05745681  0.61689680  0.58381685  1  0  0.076621  0  0.959729  0  0  0.094491  0  1.027187  0  0  0.094156  0  1.028051  0  0  0.094669  0.094599  0  1.026714  0
H  H22  1  0.56041099  0.61735566  0.08375530  1  0  0.077364  0  0.958006  0  0  0.094907  0  1.025678  0  0  0.094582  0  1.02654  0  0  0.094699  0.095048  0  1.02532  0
H  H23  1  0.94254611  0.38310936  0.41618311  1  0  0.076679  0  0.959657  0  0  0.094524  0  1.027157  0  0  0.094188  0  1.028021  0  0  0.094699  0.09463  0  1.026685  0
H  H24  1  0.27820527  0.35364088  0.00847186  1  0  0.079679  0  0.956471  0  0  0.095058  0  1.028007  0  0  0.094723  0  1.028954  0  0  0.097266  0.095222  0  1.027457  0
H  H25  1  0.92511197  0.64611983  0.49163931  1  0  0.079675  0  0.956265  0  0  0.09495  0  1.028202  0  0  0.094581  0  1.029195  0  0  0.097433  0.095192  0  1.027503  0
H  H26  1  0.72179655  0.64635682  0.99152755  1  0  0.079638  0  0.956516  0  0  0.095016  0  1.02805  0  0  0.09469  0  1.028988  0  0  0.097248  0.09518  0  1.0275  0
H  H27  1  0.07489042  0.35388528  0.50836120  1  0  0.079587  0  0.956294  0  0  0.094877  0  1.028241  0  0  0.094515  0  1.029219  0  0  0.09742  0.09512  0  1.027542  0
H  H28  1  0.32933943  0.20843376  0.94758907  1  0  0.115198  0  0.935736  0  0  0.131211  0  0.996984  0  0  0.133201  0  0.994859  0  0  0.119899  0.129706  0  0.998432  0
H  H29  1  0.12167789  0.79114334  0.55254643  1  0  0.114558  0  0.935781  0  0  0.131154  0  0.996511  0  0  0.133105  0  0.994452  0  0  0.119882  0.129679  0  0.998099  0
H  H30  1  0.67066345  0.79156606  0.05240986  1  0  0.115207  0  0.9357  0  0  0.131215  0  0.996949  0  0  0.133204  0  0.994825  0  0  0.119907  0.129708  0  0.998396  0
H  H31  1  0.87831772  0.20886388  0.44745422  1  0  0.114501  0  0.93572  0  0  0.131099  0  0.996461  0  0  0.133048  0  0.99441  0  0  0.11986  0.129627  0  0.998045  0
C  C32  1  0.06328820  0.63549137  0.87914579  1  0  -0.130244  0  3.807777  0  0  -0.107877  0  4.063933  0  0  -0.113865  0  4.084016  0  0  -0.034119  -0.104347  0  4.050958  0
C  C33  1  0.42816813  0.36438625  0.62103700  1  0  -0.132429  0  3.81095  0  0  -0.108659  0  4.065111  0  0  -0.114778  0  4.0854  0  0  -0.034137  -0.104745  0  4.051966  0
C  C34  1  0.93672097  0.36451162  0.12085458  1  0  -0.130178  0  3.807789  0  0  -0.107795  0  4.063918  0  0  -0.113779  0  4.083995  0  0  -0.034106  -0.104266  0  4.050944  0
C  C35  1  0.57183004  0.63561355  0.37896440  1  0  -0.13251  0  3.811043  0  0  -0.10877  0  4.065244  0  0  -0.114885  0  4.085526  0  0  -0.034139  -0.104859  0  4.052102  0
C  C36  1  0.14499802  0.53096426  0.90391729  1  0  -0.186865  0  3.768877  0  0  -0.220711  0  4.022731  0  0  -0.22246  0  4.042844  0  0  -0.10512  -0.219392  0  4.009608  0
C  C37  1  0.61449764  0.46886403  0.59628458  1  0  -0.183681  0  3.768025  0  0  -0.218693  0  4.020983  0  0  -0.220335  0  4.041088  0  0  -0.104296  -0.217571  0  4.007795  0
C  C38  1  0.85499964  0.46903452  0.09608033  1  0  -0.186994  0  3.768787  0  0  -0.220865  0  4.022662  0  0  -0.222614  0  4.042772  0  0  -0.105165  -0.219547  0  4.009543  0
C  C39  1  0.38549740  0.53113579  0.40371558  1  0  -0.183615  0  3.768045  0  0  -0.218603  0  4.021016  0  0  -0.220248  0  4.041119  0  0  -0.104283  -0.217483  0  4.00783  0
C  C40  1  0.03434091  0.38920924  0.87708677  1  0  0.168307  0  3.784812  0  0  0.160397  0  4.042511  0  0  0.166686  0  4.06006  0  0  0.076898  0.15559  0  4.030982  0
C  C41  1  0.64589465  0.61064550  0.62315384  1  0  0.167351  0  3.785781  0  0  0.159988  0  4.042465  0  0  0.166407  0  4.05994  0  0  0.076773  0.155587  0  4.030458  0
C  C42  1  0.96566198  0.61079058  0.12291277  1  0  0.168318  0  3.784815  0  0  0.160405  0  4.042551  0  0  0.166692  0  4.0601  0  0  0.076891  0.155597  0  4.031025  0
C  C43  1  0.35410303  0.38935645  0.37684399  1  0  0.167294  0  3.785888  0  0  0.159867  0  4.042611  0  0  0.166281  0  4.060091  0  0  0.07671  0.155484  0  4.0306  0
C  C44  1  0.83999013  0.35211332  0.82557143  1  0  0.244922  0  3.819452  0  0  0.234689  0  4.081406  0  0  0.244184  0  4.096181  0  0  0.078286  0.227902  0  4.0719  0
C  C45  1  0.48889077  0.64783817  0.67476886  1  0  0.245605  0  3.816438  0  0  0.233645  0  4.080233  0  0  0.243118  0  4.094904  0  0  0.078454  0.227007  0  4.070017  0
C  C46  1  0.16001118  0.64788335  0.17442543  1  0  0.244952  0  3.819353  0  0  0.234674  0  4.081369  0  0  0.244172  0  4.096137  0  0  0.07824  0.227886  0  4.071863  0
C  C47  1  0.51110690  0.35216377  0.32523082  1  0  0.245682  0  3.816455  0  0  0.233731  0  4.080245  0  0  0.243204  0  4.094917  0  0  0.078505  0.227095  0  4.070023  0
C  C48  1  0.75754864  0.45792694  0.80424172  1  0  -0.20011  0  3.782774  0  0  -0.218004  0  4.037076  0  0  -0.223033  0  4.057838  0  0  -0.110553  -0.214658  0  4.023556  0
C  C49  1  0.30065343  0.54208687  0.69617188  1  0  -0.19905  0  3.781881  0  0  -0.216663  0  4.036913  0  0  -0.221678  0  4.057562  0  0  -0.110833  -0.213111  0  4.022821  0
C  C50  1  0.24246154  0.54206867  0.19575569  1  0  -0.200183  0  3.78286  0  0  -0.218038  0  4.037154  0  0  -0.223063  0  4.057911  0  0  -0.110528  -0.214693  0  4.023635  0
C  C51  1  0.69933954  0.45791507  0.30382657  1  0  -0.199118  0  3.782072  0  0  -0.216696  0  4.037084  0  0  -0.221714  0  4.057742  0  0  -0.110843  -0.213142  0  4.022983  0
C  C52  1  0.86940733  0.60004413  0.83020199  1  0  -0.076053  0  3.796807  0  0  -0.107219  0  4.062294  0  0  -0.104651  0  4.078211  0  0  -0.098654  -0.108986  0  4.051884  0
C  C53  1  0.26996586  0.39997808  0.67005705  1  0  -0.07656  0  3.799593  0  0  -0.108022  0  4.064819  0  0  -0.10548  0  4.080844  0  0  -0.098519  -0.109688  0  4.054124  0
C  C54  1  0.13058612  0.39995252  0.16979735  1  0  -0.076104  0  3.796972  0  0  -0.107254  0  4.062444  0  0  -0.104686  0  4.078357  0  0  -0.098666  -0.109023  0  4.052039  0
C  C55  1  0.73002764  0.60002491  0.32994270  1  0  -0.07656  0  3.799569  0  0  -0.107999  0  4.064802  0  0  -0.105451  0  4.080808  0  0  -0.098518  -0.109669  0  4.054116  0
C  C56  1  0.29940259  0.30930220  0.94516074  1  0  -0.072371  0  3.606728  0  0  -0.167225  0  3.870767  0  0  -0.159992  0  3.873435  0  0  -0.135778  -0.171802  0  3.868445  0
C  C57  1  0.99071414  0.69034390  0.55495943  1  0  -0.070341  0  3.60814  0  0  -0.166919  0  3.872037  0  0  -0.159623  0  3.874826  0  0  -0.136086  -0.171633  0  3.869927  0
C  C58  1  0.70059767  0.69069551  0.05483866  1  0  -0.072297  0  3.606679  0  0  -0.167142  0  3.870726  0  0  -0.159914  0  3.873388  0  0  -0.135745  -0.171715  0  3.868403  0
C  C59  1  0.00928668  0.30966121  0.44504046  1  0  -0.070181  0  3.607995  0  0  -0.166798  0  3.871902  0  0  -0.159505  0  3.874691  0  0  -0.136079  -0.171495  0  3.869799  0
S  S60  1  0.21853447  0.81625250  0.90361772  1  0  1.310662  0  5.708888  0  0  1.219993  0  6.22985  0  0  1.267349  0  6.204655  0  0  0.468341  1.187345  0  6.246387  0
S  S61  1  0.40220020  0.18363272  0.59640457  1  0  1.310609  0  5.708588  0  0  1.219664  0  6.229526  0  0  1.266987  0  6.204501  0  0  0.469  1.186626  0  6.24634  0
S  S62  1  0.78145744  0.18374732  0.09638244  1  0  1.310604  0  5.708835  0  0  1.219933  0  6.229808  0  0  1.267288  0  6.204617  0  0  0.468345  1.187285  0  6.246344  0
S  S63  1  0.59779850  0.81636814  0.40359628  1  0  1.310698  0  5.708593  0  0  1.21976  0  6.229536  0  0  1.267085  0  6.204509  0  0  0.469014  1.186726  0  6.246349  0
O  O64  1  0.09959319  0.27826058  0.89551338  1  0  -0.262627  0  2.378107  0  0  -0.190872  0  2.620946  0  0  -0.207877  0  2.623213  0  0  -0.225228  -0.178505  0  2.617925  0
O  O65  1  0.82214837  0.72150470  0.60466780  1  0  -0.264024  0  2.378494  0  0  -0.190652  0  2.619952  0  0  -0.207823  0  2.622268  0  0  -0.224566  -0.178298  0  2.617556  0
O  O66  1  0.90040760  0.72173818  0.10448548  1  0  -0.262598  0  2.378077  0  0  -0.19083  0  2.620904  0  0  -0.207836  0  2.623174  0  0  -0.225186  -0.178466  0  2.617884  0
O  O67  1  0.17785193  0.27849936  0.39533079  1  0  -0.264081  0  2.378537  0  0  -0.190614  0  2.619964  0  0  -0.207779  0  2.622276  0  0  -0.224526  -0.1783  0  2.617588  0
O  O68  1  0.74298435  0.21267152  0.79972995  1  0  -0.56058  0  2.150242  0  0  -0.516921  0  2.364232  0  0  -0.53386  0  2.349985  0  0  -0.406215  -0.504959  0  2.373589  0
O  O69  1  0.53155289  0.78728231  0.70069310  1  0  -0.561952  0  2.146174  0  0  -0.517353  0  2.36066  0  0  -0.534235  0  2.346505  0  0  -0.406972  -0.505283  0  2.371628  0
O  O70  1  0.25702428  0.78732724  0.20026891  1  0  -0.560628  0  2.150124  0  0  -0.516942  0  2.364115  0  0  -0.533883  0  2.349867  0  0  -0.406246  -0.50498  0  2.373474  0
O  O71  1  0.46844321  0.21271962  0.29930720  1  0  -0.562015  0  2.146107  0  0  -0.517412  0  2.360575  0  0  -0.534296  0  2.34642  0  0  -0.407043  -0.505351  0  2.371567  0
O  O72  1  0.38076031  0.82404448  0.97010265  1  0  -0.732422  0  1.963417  0  0  -0.68878  0  2.217513  0  0  -0.709377  0  2.203415  0  0  -0.436847  -0.67443  0  2.226992  0
O  O73  1  0.55651936  0.17579435  0.52986872  1  0  -0.732293  0  1.962313  0  0  -0.688983  0  2.216645  0  0  -0.709516  0  2.202462  0  0  -0.43623  -0.674133  0  2.225731  0
O  O74  1  0.61923888  0.17595110  0.02989786  1  0  -0.73234  0  1.963542  0  0  -0.688695  0  2.217631  0  0  -0.709292  0  2.203539  0  0  -0.436839  -0.674348  0  2.227112  0
O  O75  1  0.44347831  0.82420759  0.47013097  1  0  -0.73233  0  1.96233  0  0  -0.68902  0  2.216655  0  0  -0.709553  0  2.202471  0  0  -0.436251  -0.674171  0  2.225743  0
O  O76  1  0.06060679  0.89035530  0.92956490  1  0  -0.740562  0  1.979465  0  0  -0.696008  0  2.238788  0  0  -0.716908  0  2.223656  0  0  -0.470236  -0.681069  0  2.247934  0
O  O77  1  0.17005870  0.10987618  0.57049760  1  0  -0.740017  0  1.977451  0  0  -0.695666  0  2.236608  0  0  -0.716579  0  2.221506  0  0  -0.470451  -0.680489  0  2.246233  0
O  O78  1  0.93939452  0.10964452  0.07043526  1  0  -0.740601  0  1.979318  0  0  -0.696044  0  2.238632  0  0  -0.716945  0  2.223502  0  0  -0.470255  -0.681107  0  2.247779  0
O  O79  1  0.82993949  0.89012679  0.42950463  1  0  -0.740075  0  1.97751  0  0  -0.6957  0  2.236629  0  0  -0.716616  0  2.221526  0  0  -0.47045  -0.680522  0  2.246254  0
O  O80  1  0.32863859  0.86590713  0.82646763  1  0  -0.707055  0  1.966139  0  0  -0.654073  0  2.199688  0  0  -0.673995  0  2.182146  0  0  -0.379878  -0.639945  0  2.211575  0
O  O81  1  0.46264139  0.13378519  0.67348582  1  0  -0.70654  0  1.965728  0  0  -0.653834  0  2.198581  0  0  -0.673748  0  2.181119  0  0  -0.380297  -0.640231  0  2.212162  0
O  O82  1  0.67136847  0.13409477  0.17353638  1  0  -0.707032  0  1.966072  0  0  -0.654058  0  2.199622  0  0  -0.673981  0  2.182083  0  0  -0.379871  -0.639929  0  2.211511  0
O  O83  1  0.53735627  0.86621674  0.32651510  1  0  -0.70655  0  1.965743  0  0  -0.653846  0  2.198597  0  0  -0.673764  0  2.181136  0  0  -0.380299  -0.640242  0  2.212174  0
