# generated using pymatgen
data_Cu4H24C29S4(N2O)4
_symmetry_space_group_name_H-M   'P 1'
_cell_length_a   10.74820550
_cell_length_b   13.27531023
_cell_length_c   13.44810000
_cell_angle_alpha   90.00000000
_cell_angle_beta   90.00000000
_cell_angle_gamma   90.00000000
_symmetry_Int_Tables_number   1
_chemical_formula_structural   Cu4H24C29S4(N2O)4
_chemical_formula_sum   'Cu8 H48 C58 S8 N16 O8'
_cell_volume   1918.85240221
_cell_formula_units_Z   2
loop_
 _symmetry_equiv_pos_site_id
 _symmetry_equiv_pos_as_xyz
  1  'x, y, z'
loop_
 _atom_site_type_symbol
 _atom_site_label
 _atom_site_symmetry_multiplicity
 _atom_site_fract_x
 _atom_site_fract_y
 _atom_site_fract_z
 _atom_site_occupancy
 _atom_site_pbe_bader_charge
 _atom_site_pbe_bader_spin_density
 _atom_site_pbe_cm5_charge
 _atom_site_pbe_ddec_charge
 _atom_site_pbe_ddec_spin_density
 _atom_site_pbe_ddec_sum_bond_order
 _atom_site_pbe_magmom
Cu  Cu0  1  0.23766200  0.65489694  0.27120560  1  0.628934  0  0.471821  0.312824  0  2.762457  0
Cu  Cu1  1  0.23765828  0.84510718  0.22879440  1  0.631242  0  0.471808  0.312755  0  2.76263  0
Cu  Cu2  1  0.73881915  0.72843194  0.15496167  1  0.629745  0  0.470303  0.313094  0  2.752046  0
Cu  Cu3  1  0.73882659  0.77156615  0.34504056  1  0.631788  0  0.470331  0.313173  0  2.752061  0
Cu  Cu4  1  0.76234121  0.34510606  0.72879738  1  0.631236  0  0.471842  0.312825  0  2.762604  0
Cu  Cu5  1  0.76234121  0.15489732  0.77120337  1  0.628966  0  0.471813  0.312766  0  2.762495  0
Cu  Cu6  1  0.26118220  0.27156503  0.84503908  1  0.629767  0  0.470253  0.31303  0  2.751882  0
Cu  Cu7  1  0.26118034  0.22843459  0.65495795  1  0.63186  0  0.470303  0.313051  0  2.752166  0
H  H8  1  0.46735522  0.52520204  0.21704850  1  0.096779  0  0.116862  0.10389  0  0.998959  0
H  H9  1  0.46735429  0.97479681  0.28294926  1  0.096831  0  0.116846  0.103857  0  0.998941  0
H  H10  1  0.96955720  0.78438393  0.02512623  1  0.128692  0  0.116745  0.103991  0  0.997485  0
H  H11  1  0.96956092  0.71561793  0.47487675  1  0.128383  0  0.11676  0.104  0  0.997521  0
H  H12  1  0.53264426  0.47479870  0.78294852  1  0.096838  0  0.116867  0.103871  0  0.99896  0
H  H13  1  0.53264612  0.02520092  0.71704702  1  0.096855  0  0.116869  0.103889  0  0.998925  0
H  H14  1  0.03044229  0.21561379  0.97488047  1  0.1281  0  0.11675  0.10399  0  0.997548  0
H  H15  1  0.03043299  0.28438431  0.52512325  1  0.128381  0  0.116788  0.104023  0  0.997583  0
H  H16  1  0.50309701  0.31959554  0.46557060  1  0.11947  0  0.105252  0.118783  0  1.040444  0
H  H17  1  0.50309980  0.18040332  0.03442642  1  0.119495  0  0.105261  0.118808  0  1.040374  0
H  H18  1  0.00112577  0.53367416  0.82041775  1  0.106484  0  0.105419  0.119209  0  1.041718  0
H  H19  1  0.00112391  0.96632619  0.67958596  1  0.106417  0  0.105411  0.119212  0  1.041653  0
H  H20  1  0.49690434  0.68040519  0.53442642  1  0.119454  0  0.105277  0.118816  0  1.040397  0
H  H21  1  0.49690341  0.81959817  0.96557209  1  0.119506  0  0.105255  0.118789  0  1.040364  0
H  H22  1  0.99887837  0.46632432  0.17958596  1  0.106455  0  0.105384  0.119179  0  1.041698  0
H  H23  1  0.99887279  0.03367379  0.32041627  1  0.106453  0  0.105413  0.119194  0  1.041705  0
H  H24  1  0.31545452  0.39956957  0.53866792  1  0.105722  0  0.089475  0.093915  0  1.076231  0
H  H25  1  0.31545824  0.10042854  0.96132837  1  0.106233  0  0.089505  0.093942  0  1.076195  0
H  H26  1  0.81376096  0.46023633  0.90010559  1  0.089496  0  0.088878  0.094296  0  1.079219  0
H  H27  1  0.81376282  0.03976630  0.59989367  1  0.089427  0  0.088868  0.09426  0  1.079216  0
H  H28  1  0.68454404  0.60042815  0.46132985  1  0.105947  0  0.089477  0.093949  0  1.076204  0
H  H29  1  0.68454590  0.89957295  0.03866717  1  0.105689  0  0.089501  0.093985  0  1.076202  0
H  H30  1  0.18623853  0.53976366  0.09989441  1  0.089528  0  0.088875  0.094269  0  1.079228  0
H  H31  1  0.18623388  0.96023519  0.40010931  1  0.089521  0  0.088839  0.094236  0  1.079188  0
H  H32  1  0.21124177  0.54133726  0.44807891  1  0.089431  0  0.10933  0.083383  0  1.001649  0
H  H33  1  0.21124550  0.95866385  0.05191588  1  0.089417  0  0.109336  0.083368  0  1.00174  0
H  H34  1  0.71166857  0.55159163  0.04117979  1  0.08923  0  0.109367  0.082986  0  1.002097  0
H  H35  1  0.71167601  0.94841173  0.45881872  1  0.089275  0  0.109342  0.082965  0  1.002128  0
H  H36  1  0.78875585  0.45866348  0.55191886  1  0.089437  0  0.109313  0.083344  0  1.001725  0
H  H37  1  0.78875957  0.04133839  0.94807594  1  0.089622  0  0.109338  0.083333  0  1.001652  0
H  H38  1  0.28832906  0.44840609  0.95882095  1  0.089233  0  0.109358  0.082924  0  1.002094  0
H  H39  1  0.28831790  0.05158900  0.54118723  1  0.089301  0  0.109358  0.082984  0  1.00217  0
H  H40  1  0.60694318  0.24120265  0.36099598  1  0.070551  0  0.106676  0.079812  0  0.995819  0
H  H41  1  0.60694318  0.25879697  0.13900328  1  0.070589  0  0.106661  0.079796  0  0.995743  0
H  H42  1  0.10482401  0.63807774  0.74244466  1  0.071749  0  0.106845  0.080911  0  0.995918  0
H  H43  1  0.10482494  0.86192261  0.75755832  1  0.071705  0  0.106845  0.08086  0  0.995883  0
H  H44  1  0.39305166  0.75879733  0.63900179  1  0.070598  0  0.106666  0.079777  0  0.995814  0
H  H45  1  0.39305445  0.74120302  0.86099746  1  0.07059  0  0.106658  0.079777  0  0.99579  0
H  H46  1  0.89517083  0.36192224  0.25755980  1  0.071694  0  0.106868  0.080896  0  0.995854  0
H  H47  1  0.89517269  0.13807512  0.24244317  1  0.071741  0  0.106844  0.080905  0  0.995891  0
H  H48  1  0.72444000  0.33209469  0.38957697  1  0.074375  0  0.104524  0.08053  0  0.996862  0
H  H49  1  0.72444093  0.16790493  0.11041932  1  0.074519  0  0.10453  0.08054  0  0.996728  0
H  H50  1  0.22315260  0.60890102  0.83144087  1  0.076604  0  0.104557  0.080231  0  0.99703  0
H  H51  1  0.22315353  0.89109782  0.66856136  1  0.076191  0  0.10455  0.080206  0  0.997034  0
H  H52  1  0.27555670  0.66790379  0.61042080  1  0.074578  0  0.104527  0.080515  0  0.996756  0
H  H53  1  0.27555763  0.83209656  0.88957920  1  0.074587  0  0.104535  0.080532  0  0.996741  0
H  H54  1  0.77684782  0.39109595  0.16855764  1  0.076449  0  0.104552  0.080219  0  0.996972  0
H  H55  1  0.77684038  0.10889990  0.33143864  1  0.07608  0  0.104563  0.080179  0  0.996949  0
C  C56  1  0.45525925  0.71254907  0.12626691  1  0.540471  0  0.140222  0.260166  0  4.227495  0
C  C57  1  0.45526297  0.78745429  0.37373235  1  0.540075  0  0.140088  0.260108  0  4.226844  0
C  C58  1  0.95433326  0.87462287  0.21290219  1  0.551135  0  0.140455  0.260836  0  4.228793  0
C  C59  1  0.95433791  0.62537974  0.28709557  1  0.55118  0  0.14053  0.260912  0  4.22875  0
C  C60  1  0.54473931  0.28745392  0.87373161  1  0.540535  0  0.140182  0.260155  0  4.227415  0
C  C61  1  0.54474396  0.21254720  0.62626319  1  0.540357  0  0.140076  0.259981  0  4.227218  0
C  C62  1  0.04566623  0.12537861  0.78709409  1  0.551097  0  0.140413  0.260858  0  4.228634  0
C  C63  1  0.04566530  0.37462251  0.71290517  1  0.551123  0  0.140474  0.260928  0  4.228855  0
C  C64  1  0.43504099  0.49562759  0.28821990  1  0.563112  0  0.034088  -0.022067  0  3.90254  0
C  C65  1  0.43504099  0.00437127  0.21177862  1  0.563119  0  0.034105  -0.021931  0  3.902383  0
C  C66  1  0.93644097  0.71263495  0.99568861  1  0.528282  0  0.033727  -0.023455  0  3.89918  0
C  C67  1  0.93644376  0.78736691  0.50431362  1  0.528401  0  0.033681  -0.023564  0  3.899264  0
C  C68  1  0.56495942  0.50437315  0.71177936  1  0.563395  0  0.034073  -0.022034  0  3.902498  0
C  C69  1  0.56495942  0.99562720  0.78821767  1  0.563383  0  0.034032  -0.022149  0  3.90262  0
C  C70  1  0.06356224  0.28736127  0.00431734  1  0.528688  0  0.033758  -0.023482  0  3.899321  0
C  C71  1  0.06355200  0.21263609  0.49569010  1  0.528544  0  0.033629  -0.023673  0  3.899276  0
C  C72  1  0.49803197  0.41525357  0.33374083  1  0.472168  0  0.088578  0.222163  0  4.059549  0
C  C73  1  0.49803104  0.08474830  0.16625917  1  0.472188  0  0.088582  0.222113  0  4.059438  0
C  C74  1  0.99806242  0.66673244  0.91541853  1  0.497221  0  0.088232  0.222294  0  4.056972  0
C  C75  1  0.99806335  0.83327017  0.58458444  1  0.49732  0  0.088263  0.222368  0  4.056915  0
C  C76  1  0.50196751  0.58474867  0.66625917  1  0.472185  0  0.088546  0.222129  0  4.059503  0
C  C77  1  0.50196844  0.91525319  0.83373934  1  0.472152  0  0.088569  0.222186  0  4.059602  0
C  C78  1  0.00194265  0.33326453  0.08458667  1  0.497297  0  0.088259  0.222367  0  4.056968  0
C  C79  1  0.00193428  0.16673207  0.41541853  1  0.49715  0  0.088242  0.222434  0  4.057002  0
C  C80  1  0.45647434  0.38016739  0.42595088  1  -0.067083  0  -0.090612  -0.170633  0  3.950458  0
C  C81  1  0.45647527  0.11983072  0.07404689  1  -0.067063  0  -0.09063  -0.170676  0  3.950436  0
C  C82  1  0.95547019  0.57367850  0.88075565  1  -0.072274  0  -0.090847  -0.170416  0  3.951882  0
C  C83  1  0.95547112  0.92632411  0.61924659  1  -0.072059  0  -0.090818  -0.170445  0  3.951734  0
C  C84  1  0.54352515  0.61983109  0.57404763  1  -0.067038  0  -0.090629  -0.170681  0  3.95047  0
C  C85  1  0.54352701  0.88016926  0.92594939  1  -0.067028  0  -0.090625  -0.170646  0  3.950292  0
C  C86  1  0.04453115  0.42632149  0.11924733  1  -0.072076  0  -0.090833  -0.170428  0  3.951819  0
C  C87  1  0.04452464  0.07367662  0.38075639  1  -0.072209  0  -0.090808  -0.170448  0  3.951814  0
C  C88  1  0.35173965  0.42556896  0.46749429  1  -0.023798  0  -0.088307  -0.089232  0  4.011748  0
C  C89  1  0.35174244  0.07442839  0.03250199  1  -0.024391  0  -0.088338  -0.089289  0  4.011806  0
C  C90  1  0.85092623  0.53192128  0.92602003  1  -0.022317  0  -0.089231  -0.090745  0  4.011598  0
C  C91  1  0.85092809  0.96808208  0.57397774  1  -0.022426  0  -0.089231  -0.090665  0  4.0115  0
C  C92  1  0.64825984  0.57442876  0.53250496  1  -0.024035  0  -0.088321  -0.089286  0  4.011834  0
C  C93  1  0.64826263  0.92557159  0.96749281  1  -0.023711  0  -0.088386  -0.089436  0  4.011764  0
C  C94  1  0.14907512  0.46807720  0.07398145  1  -0.022446  0  -0.089203  -0.090703  0  4.011547  0
C  C95  1  0.14906860  0.03191865  0.42602524  1  -0.022434  0  -0.089252  -0.090696  0  4.011601  0
C  C96  1  0.29343410  0.50409293  0.41797131  1  0.451577  0  0.020122  0.039423  0  3.970579  0
C  C97  1  0.29343689  0.99590441  0.08202646  1  0.451599  0  0.020149  0.039554  0  3.9706  0
C  C98  1  0.79386926  0.58188471  0.00425190  1  0.455992  0  0.020124  0.040446  0  3.969384  0
C  C99  1  0.79387392  0.91811866  0.49574587  1  0.455975  0  0.020126  0.040443  0  3.969258  0
C  C100  1  0.70656446  0.49590480  0.58202869  1  0.451574  0  0.020176  0.039563  0  3.970637  0
C  C101  1  0.70656818  0.00409331  0.91796834  1  0.451333  0  0.020234  0.039715  0  3.970392  0
C  C102  1  0.20613115  0.41811302  0.99574959  1  0.455822  0  0.020133  0.040586  0  3.969301  0
C  C103  1  0.20612371  0.08188208  0.50425562  1  0.456063  0  0.020092  0.040379  0  3.969431  0
C  C104  1  0.66834412  0.29927662  0.32932756  1  0.410056  0  -0.062339  -0.029961  0  3.843568  0
C  C105  1  0.66834692  0.20072299  0.17067169  1  0.409844  0  -0.062341  -0.029978  0  3.843355  0
C  C106  1  0.16705114  0.67002879  0.79922666  1  0.396869  0  -0.062435  -0.029331  0  3.836418  0
C  C107  1  0.16705114  0.82997232  0.70077557  1  0.398095  0  -0.062395  -0.029214  0  3.836223  0
C  C108  1  0.33165257  0.70072336  0.67067169  1  0.409846  0  -0.06232  -0.029911  0  3.8434  0
C  C109  1  0.33165443  0.79927774  0.82932831  1  0.409835  0  -0.062312  -0.029915  0  3.843326  0
C  C110  1  0.83294835  0.32997044  0.20077483  1  0.397563  0  -0.062473  -0.029303  0  3.836241  0
C  C111  1  0.83294556  0.17002541  0.29922591  1  0.398137  0  -0.062409  -0.029189  0  3.836012  0
C  C112  1  0.75064437  0.25000018  0.24999963  1  0.055062  0  -0.018334  0.05366  0  3.81431  0
C  C113  1  0.24935325  0.74999980  0.75000186  1  0.055054  0  -0.01843  0.05363  0  3.814332  0
S  S114  1  0.30256958  0.71026137  0.11568400  1  -0.019459  0  -0.177005  -0.291401  0  3.002895  0
S  S115  1  0.30257516  0.78974350  0.38431154  1  -0.019216  0  -0.176978  -0.291396  0  3.00299  0
S  S116  1  0.80168917  0.88572845  0.21101122  1  0.040074  0  -0.177721  -0.291212  0  3.006889  0
S  S117  1  0.80169383  0.61427265  0.28898804  1  0.040232  0  -0.1777  -0.291193  0  3.006965  0
S  S118  1  0.69743363  0.28974238  0.88431303  1  -0.019486  0  -0.176992  -0.291424  0  3.002783  0
S  S119  1  0.69742991  0.21026251  0.61568251  1  -0.019453  0  -0.177014  -0.291374  0  3.00307  0
S  S120  1  0.19830938  0.11426927  0.78898655  1  0.040176  0  -0.17769  -0.291178  0  3.006831  0
S  S121  1  0.19830938  0.38572658  0.71101122  1  0.040088  0  -0.177723  -0.291203  0  3.006969  0
N  N122  1  0.56494268  0.71556896  0.13178962  1  -1.206596  0  -0.426929  -0.424875  0  3.452343  0
N  N123  1  0.56495291  0.78443289  0.36821112  1  -1.206257  0  -0.426871  -0.424912  0  3.451762  0
N  N124  1  0.06397998  0.86864863  0.21582454  1  -1.277331  0  -0.428098  -0.426312  0  3.456443  0
N  N125  1  0.06398463  0.63135624  0.28417397  1  -1.277447  0  -0.428218  -0.426455  0  3.456408  0
N  N126  1  0.43506518  0.28442951  0.86821261  1  -1.206556  0  -0.426871  -0.424804  0  3.452389  0
N  N127  1  0.43505216  0.21556860  0.63178590  1  -1.206513  0  -0.426846  -0.424777  0  3.451919  0
N  N128  1  0.93601858  0.13135512  0.78417472  1  -1.277339  0  -0.428078  -0.426352  0  3.456262  0
N  N129  1  0.93601951  0.36864675  0.71582454  1  -1.277364  0  -0.428111  -0.426409  0  3.456482  0
N  N130  1  0.33509129  0.53898251  0.32954916  1  -1.232873  0  -0.356859  -0.181528  0  3.696915  0
N  N131  1  0.33509129  0.96101408  0.17045159  1  -1.232919  0  -0.356895  -0.18168  0  3.696891  0
N  N132  1  0.83663826  0.67094477  0.03913192  1  -1.227016  0  -0.354599  -0.181602  0  3.685998  0
N  N133  1  0.83664292  0.82905633  0.46086659  1  -1.22695  0  -0.354578  -0.181551  0  3.685703  0
N  N134  1  0.66491006  0.46101521  0.67045382  1  -1.233204  0  -0.356885  -0.181629  0  3.696879  0
N  N135  1  0.66491006  0.03898365  0.82954395  1  -1.233267  0  -0.356889  -0.181614  0  3.696836  0
N  N136  1  0.16336308  0.32905295  0.96087180  1  -1.226779  0  -0.354606  -0.181637  0  3.685974  0
N  N137  1  0.16335378  0.17094516  0.53913564  1  -1.226973  0  -0.354479  -0.181375  0  3.685711  0
O  O138  1  0.59619348  0.37692377  0.28211495  1  -1.082924  0  -0.178353  -0.19748  0  2.573562  0
O  O139  1  0.59619441  0.12307509  0.21788431  1  -1.082906  0  -0.178347  -0.197424  0  2.573437  0
O  O140  1  0.09608767  0.71848490  0.87648590  1  -1.082409  0  -0.17905  -0.199748  0  2.565808  0
O  O141  1  0.09608953  0.78151545  0.62351856  1  -1.083135  0  -0.17909  -0.199754  0  2.565733  0
O  O142  1  0.40380508  0.62307621  0.71788505  1  -1.082954  0  -0.178298  -0.197389  0  2.573477  0
O  O143  1  0.40380601  0.87692489  0.78211495  1  -1.082975  0  -0.178329  -0.19742  0  2.573475  0
O  O144  1  0.90391554  0.28151056  0.12352005  1  -1.082868  0  -0.179105  -0.199768  0  2.565653  0
O  O145  1  0.90390903  0.21848152  0.37648515  1  -1.083131  0  -0.179091  -0.199784  0  2.565834  0
