# generated using pymatgen
data_CdH30C28(NO3)4
_symmetry_space_group_name_H-M   'P 1'
_cell_length_a   7.21742653
_cell_length_b   9.11465658
_cell_length_c   12.04812107
_cell_angle_alpha   89.96974709
_cell_angle_beta   95.08181637
_cell_angle_gamma   68.44806716
_symmetry_Int_Tables_number   1
_chemical_formula_structural   CdH30C28(NO3)4
_chemical_formula_sum   'Cd1 H30 C28 N4 O12'
_cell_volume   733.79939442
_cell_formula_units_Z   1
loop_
 _symmetry_equiv_pos_site_id
 _symmetry_equiv_pos_as_xyz
  1  'x, y, z'
loop_
 _atom_site_type_symbol
 _atom_site_label
 _atom_site_symmetry_multiplicity
 _atom_site_fract_x
 _atom_site_fract_y
 _atom_site_fract_z
 _atom_site_occupancy
 _atom_site_hle17_bader_spin_density
 _atom_site_hle17_ddec_charge
 _atom_site_hle17_ddec_spin_density
 _atom_site_hle17_ddec_sum_bond_order
 _atom_site_hle17_magmom
 _atom_site_hse06_10hf_bader_spin_density
 _atom_site_hse06_10hf_ddec_charge
 _atom_site_hse06_10hf_ddec_spin_density
 _atom_site_hse06_10hf_ddec_sum_bond_order
 _atom_site_hse06_10hf_magmom
 _atom_site_hse06_bader_spin_density
 _atom_site_hse06_ddec_charge
 _atom_site_hse06_ddec_spin_density
 _atom_site_hse06_ddec_sum_bond_order
 _atom_site_hse06_magmom
 _atom_site_pbe_bader_spin_density
 _atom_site_pbe_cm5_charge
 _atom_site_pbe_ddec_charge
 _atom_site_pbe_ddec_spin_density
 _atom_site_pbe_ddec_sum_bond_order
 _atom_site_pbe_magmom
Cd  Cd0  1  0.50000399  0.00000587  0.99999501  1  0  1.144339  0  1.643132  0  0  0.957921  0  2.077937  0  0  1.012783  0  2.02626  0  0  0.779355  0.920901  0  2.112219  0
H  H1  1  0.11530136  0.90041627  0.68875138  1  0  0.408794  0  0.882677  0  0  0.375562  0  0.963182  0  0  0.38867  0  0.947473  0  0  0.307472  0.366268  0  0.973419  0
H  H2  1  0.88470652  0.09958788  0.31124419  1  0  0.408804  0  0.882628  0  0  0.375565  0  0.963162  0  0  0.388674  0  0.947475  0  0  0.307452  0.366272  0  0.973397  0
H  H3  1  0.92243281  0.92980557  0.07315378  1  0  0.434063  0  0.861937  0  0  0.403453  0  0.924968  0  0  0.414242  0  0.909353  0  0  0.292706  0.395937  0  0.935767  0
H  H4  1  0.07756771  0.07019755  0.92684590  1  0  0.434114  0  0.861874  0  0  0.403505  0  0.9249  0  0  0.414294  0  0.909284  0  0  0.292722  0.395988  0  0.935702  0
H  H5  1  0.76583736  0.07300575  0.12756172  1  0  0.399027  0  0.918702  0  0  0.367511  0  0.984514  0  0  0.37864  0  0.968445  0  0  0.282623  0.359631  0  0.995862  0
H  H6  1  0.23416903  0.92699968  0.87243796  1  0  0.399096  0  0.918606  0  0  0.367524  0  0.984507  0  0  0.378651  0  0.96844  0  0  0.282635  0.359642  0  0.995857  0
H  H7  1  0.15454421  0.42911604  0.25396821  1  0  0.292149  0  0.948816  0  0  0.273142  0  1.017515  0  0  0.280712  0  1.011639  0  0  0.302082  0.268122  0  1.021289  0
H  H8  1  0.84547464  0.57088213  0.74602683  1  0  0.292055  0  0.948981  0  0  0.273074  0  1.017629  0  0  0.280645  0  1.011757  0  0  0.302061  0.268051  0  1.021405  0
H  H9  1  0.44683058  0.27268821  0.81576682  1  0  0.090241  0  0.930489  0  0  0.099389  0  0.990974  0  0  0.10226  0  0.988278  0  0  0.11978  0.097022  0  0.993159  0
H  H10  1  0.55319838  0.72732985  0.18422606  1  0  0.090198  0  0.930508  0  0  0.099373  0  0.990969  0  0  0.10225  0  0.988256  0  0  0.119755  0.097  0  0.993161  0
H  H11  1  0.31573004  0.57052088  0.79370010  1  0  0.114602  0  0.938715  0  0  0.124005  0  0.996891  0  0  0.127877  0  0.995116  0  0  0.109964  0.121153  0  0.998247  0
H  H12  1  0.68429141  0.42949969  0.20629762  1  0  0.114524  0  0.938873  0  0  0.123911  0  0.99707  0  0  0.127781  0  0.995303  0  0  0.109937  0.12106  0  0.998419  0
H  H13  1  0.17266665  0.73057843  0.95741844  1  0  0.1183  0  0.957426  0  0  0.127879  0  1.017373  0  0  0.131662  0  1.013692  0  0  0.114167  0.125248  0  1.019925  0
H  H14  1  0.82734027  0.26943168  0.04258027  1  0  0.118362  0  0.957289  0  0  0.127935  0  1.01725  0  0  0.131723  0  1.013562  0  0  0.114199  0.125301  0  1.019812  0
H  H15  1  0.27329467  0.29179967  0.13415188  1  0  0.083324  0  0.976114  0  0  0.090895  0  1.044545  0  0  0.093617  0  1.04168  0  0  0.118384  0.088707  0  1.046719  0
H  H16  1  0.72670710  0.70820314  0.86583367  1  0  0.083411  0  0.976055  0  0  0.09096  0  1.044507  0  0  0.093681  0  1.041647  0  0  0.118392  0.088771  0  1.046681  0
H  H17  1  0.00189224  0.56575393  0.40021878  1  0  0.053383  0  0.920182  0  0  0.072505  0  0.980979  0  0  0.072676  0  0.98084  0  0  0.102156  0.0721  0  0.981344  0
H  H18  1  0.99806529  0.43425027  0.59976126  1  0  0.053435  0  0.920121  0  0  0.072454  0  0.981023  0  0  0.072627  0  0.98089  0  0  0.102125  0.072044  0  0.981387  0
H  H19  1  0.96053841  0.74852895  0.32914813  1  0  0.063349  0  0.942712  0  0  0.077578  0  1.010749  0  0  0.078026  0  1.010196  0  0  0.103571  0.077289  0  1.010876  0
H  H20  1  0.03946831  0.25147040  0.67084258  1  0  0.063415  0  0.942587  0  0  0.077605  0  1.010637  0  0  0.078077  0  1.010062  0  0  0.103555  0.077314  0  1.010762  0
H  H21  1  0.31355594  0.71694944  0.37559073  1  0  0.076266  0  0.926765  0  0  0.094613  0  0.985315  0  0  0.095007  0  0.986467  0  0  0.091318  0.094299  0  0.984133  0
H  H22  1  0.68644734  0.28302487  0.62443898  1  0  0.076319  0  0.926951  0  0  0.094751  0  0.985382  0  0  0.095141  0  0.986529  0  0  0.09134  0.094432  0  0.984197  0
H  H23  1  0.19272272  0.71902142  0.49644559  1  0  0.067783  0  0.937912  0  0  0.088206  0  0.995947  0  0  0.087956  0  0.997655  0  0  0.08831  0.088142  0  0.995096  0
H  H24  1  0.80722743  0.28096827  0.50356892  1  0  0.067937  0  0.937982  0  0  0.088319  0  0.996046  0  0  0.088067  0  0.997744  0  0  0.088318  0.088218  0  0.99523  0
H  H25  1  0.46823925  0.41823820  0.39255071  1  0  0.059602  0  0.940087  0  0  0.077549  0  1.002798  0  0  0.078292  0  1.003433  0  0  0.083076  0.076831  0  1.00264  0
H  H26  1  0.53171944  0.58172955  0.60748703  1  0  0.059602  0  0.940238  0  0  0.077578  0  1.002882  0  0  0.078363  0  1.003475  0  0  0.083111  0.076886  0  1.002692  0
H  H27  1  0.34680037  0.42201622  0.51366108  1  0  0.051192  0  0.932287  0  0  0.071947  0  0.991213  0  0  0.072188  0  0.992341  0  0  0.08231  0.072019  0  0.989557  0
H  H28  1  0.65313684  0.57797632  0.48637234  1  0  0.051242  0  0.932112  0  0  0.071924  0  0.991092  0  0  0.072151  0  0.992252  0  0  0.082287  0.072004  0  0.989434  0
H  H29  1  0.83544694  0.96306626  0.44548103  1  0  0.111797  0  0.987841  0  0  0.117271  0  1.057966  0  0  0.12113  0  1.05545  0  0  0.111339  0.114508  0  1.059837  0
H  H30  1  0.16455890  0.03692376  0.55451328  1  0  0.111703  0  0.987847  0  0  0.117165  0  1.057976  0  0  0.121026  0  1.055456  0  0  0.111323  0.114403  0  1.059845  0
C  C31  1  0.37542912  0.34897421  0.88169414  1  0  0.14235  0  3.675533  0  0  0.107271  0  3.930169  0  0  0.116098  0  3.947006  0  0  0.0534  0.101666  0  3.918923  0
C  C32  1  0.62459204  0.65103686  0.11829970  1  0  0.142455  0  3.675452  0  0  0.107353  0  3.93003  0  0  0.116188  0  3.946867  0  0  0.053426  0.101756  0  3.918776  0
C  C33  1  0.30506013  0.51290059  0.87074132  1  0  -0.111045  0  3.717659  0  0  -0.123417  0  3.97796  0  0  -0.130922  0  3.997694  0  0  -0.079842  -0.118796  0  3.964889  0
C  C34  1  0.69495396  0.48711766  0.12925556  1  0  -0.111049  0  3.717715  0  0  -0.123433  0  3.978001  0  0  -0.130942  0  3.997738  0  0  -0.079882  -0.118812  0  3.964929  0
C  C35  1  0.22389785  0.60206190  0.96057352  1  0  -0.001577  0  3.657411  0  0  -0.034163  0  3.907363  0  0  -0.028378  0  3.923903  0  0  -0.05684  -0.037465  0  3.895715  0
C  C36  1  0.77611055  0.39794822  0.03942604  1  0  -0.001542  0  3.657247  0  0  -0.034115  0  3.907158  0  0  -0.028326  0  3.923688  0  0  -0.056783  -0.037423  0  3.895533  0
C  C37  1  0.21263142  0.52497399  0.05880157  1  0  -0.117338  0  3.774333  0  0  -0.090178  0  4.01334  0  0  -0.102804  0  4.039053  0  0  -0.011475  -0.082269  0  3.996265  0
C  C38  1  0.78737160  0.47503492  0.94119463  1  0  -0.117355  0  3.774009  0  0  -0.090144  0  4.013  0  0  -0.102771  0  4.03871  0  0  -0.011461  -0.082245  0  3.995936  0
C  C39  1  0.28096691  0.36027284  0.06163949  1  0  0.11219  0  3.684363  0  0  0.069009  0  3.936101  0  0  0.077705  0  3.954578  0  0  0.05004  0.063186  0  3.924496  0
C  C40  1  0.71903817  0.63973591  0.93835009  1  0  0.112113  0  3.684307  0  0  0.068935  0  3.935996  0  0  0.077627  0  3.954481  0  0  0.050037  0.063104  0  3.924406  0
C  C41  1  0.13827809  0.62280680  0.15722655  1  0  0.538066  0  3.870868  0  0  0.485071  0  4.162015  0  0  0.514485  0  4.163636  0  0  0.237722  0.465391  0  4.160262  0
C  C42  1  0.86172309  0.37719746  0.84277144  1  0  0.538114  0  3.870201  0  0  0.48498  0  4.161542  0  0  0.514395  0  4.163168  0  0  0.237743  0.465309  0  4.159782  0
C  C43  1  0.07251075  0.63117016  0.35314190  1  0  0.066128  0  3.661757  0  0  0.002122  0  3.93347  0  0  0.008316  0  3.944379  0  0  -0.061906  -0.002128  0  3.926204  0
C  C44  1  0.92747379  0.36882350  0.64685040  1  0  0.066111  0  3.661617  0  0  0.002191  0  3.933314  0  0  0.008351  0  3.944235  0  0  -0.061878  -0.002044  0  3.926026  0
C  C45  1  0.24990564  0.64781463  0.42433859  1  0  -0.136435  0  3.680444  0  0  -0.174338  0  3.94241  0  0  -0.176281  0  3.957453  0  0  -0.166901  -0.172897  0  3.932123  0
C  C46  1  0.75006482  0.35216792  0.57567969  1  0  -0.136805  0  3.680992  0  0  -0.174785  0  3.942963  0  0  -0.176706  0  3.958008  0  0  -0.166947  -0.173327  0  3.932677  0
C  C47  1  0.41217818  0.49022098  0.46468236  1  0  -0.10098  0  3.703553  0  0  -0.139439  0  3.963776  0  0  -0.140445  0  3.979253  0  0  -0.169482  -0.138795  0  3.953404  0
C  C48  1  0.58777658  0.50975730  0.53535085  1  0  -0.101143  0  3.703803  0  0  -0.139432  0  3.963907  0  0  -0.140484  0  3.979392  0  0  -0.169619  -0.138798  0  3.953507  0
C  C49  1  0.55284420  0.06453166  0.26973334  1  0  0.661351  0  3.890264  0  0  0.603389  0  4.198574  0  0  0.638143  0  4.188894  0  0  0.217715  0.579885  0  4.20478  0
C  C50  1  0.44715896  0.93547370  0.73026214  1  0  0.661142  0  3.890603  0  0  0.603271  0  4.198731  0  0  0.638028  0  4.18905  0  0  0.217676  0.579772  0  4.204927  0
C  C51  1  0.52192247  0.03799983  0.38911335  1  0  -0.052142  0  3.715582  0  0  -0.041382  0  3.958994  0  0  -0.045105  0  3.977662  0  0  -0.004008  -0.038965  0  3.945821  0
C  C52  1  0.47809814  0.96199126  0.61088109  1  0  -0.052095  0  3.715681  0  0  -0.041251  0  3.958864  0  0  -0.044978  0  3.977533  0  0  -0.003955  -0.038834  0  3.945691  0
C  C53  1  0.68690953  0.98063718  0.46867736  1  0  -0.090458  0  3.705465  0  0  -0.128676  0  3.963666  0  0  -0.128797  0  3.982454  0  0  -0.078574  -0.128079  0  3.949848  0
C  C54  1  0.31310781  0.01935154  0.53131546  1  0  -0.090289  0  3.70546  0  0  -0.128503  0  3.963607  0  0  -0.128625  0  3.982406  0  0  -0.078513  -0.127911  0  3.949789  0
C  C55  1  0.66773252  0.94192522  0.57832066  1  0  -0.057698  0  3.723227  0  0  -0.047524  0  3.963456  0  0  -0.051686  0  3.982555  0  0  -0.003182  -0.044211  0  3.948775  0
C  C56  1  0.33228598  0.05806702  0.42167206  1  0  -0.057743  0  3.723332  0  0  -0.047579  0  3.963622  0  0  -0.051744  0  3.982743  0  0  -0.003232  -0.044266  0  3.948932  0
C  C57  1  0.85605106  0.87221991  0.65468089  1  0  0.68152  0  3.801836  0  0  0.629809  0  4.10143  0  0  0.663845  0  4.089608  0  0  0.243164  0.606316  0  4.109503  0
C  C58  1  0.14395714  0.12777944  0.34531066  1  0  0.681344  0  3.802094  0  0  0.629693  0  4.10169  0  0  0.663715  0  4.089906  0  0  0.243049  0.60621  0  4.109738  0
N  N59  1  0.36165414  0.27450477  0.97543906  1  0  -0.334482  0  3.25326  0  0  -0.253483  0  3.520853  0  0  -0.274675  0  3.53948  0  0  -0.329374  -0.239459  0  3.507899  0
N  N60  1  0.63835817  0.72550399  0.02455309  1  0  -0.33456  0  3.253156  0  0  -0.253524  0  3.520726  0  0  -0.274709  0  3.53933  0  0  -0.329396  -0.239497  0  3.507763  0
N  N61  1  0.13062227  0.54687995  0.25162697  1  0  -0.437315  0  3.337187  0  0  -0.374626  0  3.587039  0  0  -0.398404  0  3.598513  0  0  -0.422006  -0.358427  0  3.578704  0
N  N62  1  0.86939119  0.45311830  0.74836967  1  0  -0.437207  0  3.337194  0  0  -0.374458  0  3.587002  0  0  -0.39822  0  3.598458  0  0  -0.421944  -0.358262  0  3.578663  0
O  O63  1  0.45738396  0.01503885  0.19561456  1  0  -0.617748  0  1.989259  0  0  -0.55725  0  2.234182  0  0  -0.584419  0  2.222813  0  0  -0.310561  -0.538715  0  2.241706  0
O  O64  1  0.54262277  0.98497581  0.80437652  1  0  -0.617644  0  1.989155  0  0  -0.557213  0  2.23407  0  0  -0.584375  0  2.222684  0  0  -0.310534  -0.538678  0  2.241593  0
O  O65  1  0.67429210  0.13316612  0.25076416  1  0  -0.642437  0  2.012995  0  0  -0.582122  0  2.239034  0  0  -0.607486  0  2.226454  0  0  -0.315287  -0.56453  0  2.24701  0
O  O66  1  0.32571623  0.86683812  0.74923557  1  0  -0.642363  0  2.013122  0  0  -0.582104  0  2.239161  0  0  -0.607456  0  2.226554  0  0  -0.315301  -0.564517  0  2.247135  0
O  O67  1  0.89829756  0.75211320  0.71431996  1  0  -0.559917  0  1.959054  0  0  -0.518931  0  2.179058  0  0  -0.539172  0  2.169774  0  0  -0.286671  -0.505339  0  2.185389  0
O  O68  1  0.10172321  0.24788964  0.28567413  1  0  -0.559703  0  1.959086  0  0  -0.518765  0  2.179123  0  0  -0.538995  0  2.16985  0  0  -0.286447  -0.505176  0  2.185441  0
O  O69  1  0.97704487  0.94999975  0.64465310  1  0  -0.546555  0  2.141459  0  0  -0.491014  0  2.366603  0  0  -0.51404  0  2.350543  0  0  -0.319124  -0.474975  0  2.376301  0
O  O70  1  0.02296433  0.04999265  0.35534367  1  0  -0.546589  0  2.141525  0  0  -0.491111  0  2.366738  0  0  -0.514119  0  2.350678  0  0  -0.319203  -0.475077  0  2.376429  0
O  O71  1  0.09270346  0.76901311  0.15165761  1  0  -0.566724  0  1.965186  0  0  -0.517829  0  2.189293  0  0  -0.539445  0  2.181879  0  0  -0.298537  -0.50334  0  2.194035  0
O  O72  1  0.90728588  0.23098651  0.84833956  1  0  -0.566781  0  1.964744  0  0  -0.517868  0  2.18896  0  0  -0.539486  0  2.181547  0  0  -0.298593  -0.503378  0  2.193701  0
O  O73  1  0.80509816  0.02858236  0.05363043  1  0  -0.824751  0  1.873125  0  0  -0.762729  0  2.059138  0  0  -0.78587  0  2.02586  0  0  -0.587175  -0.745738  0  2.081505  0
O  O74  1  0.19490769  0.97142425  0.94636920  1  0  -0.824843  0  1.872981  0  0  -0.762778  0  2.059054  0  0  -0.785918  0  2.025773  0  0  -0.587164  -0.745785  0  2.081425  0
