# generated using pymatgen
data_CdH8C11N3O4
_symmetry_space_group_name_H-M   'P 1'
_cell_length_a   7.58968228
_cell_length_b   8.55017335
_cell_length_c   9.91368922
_cell_angle_alpha   82.95565982
_cell_angle_beta   67.06664881
_cell_angle_gamma   82.83654127
_symmetry_Int_Tables_number   1
_chemical_formula_structural   CdH8C11N3O4
_chemical_formula_sum   'Cd2 H16 C22 N6 O8'
_cell_volume   585.92249234
_cell_formula_units_Z   2
loop_
 _symmetry_equiv_pos_site_id
 _symmetry_equiv_pos_as_xyz
  1  'x, y, z'
loop_
 _atom_site_type_symbol
 _atom_site_label
 _atom_site_symmetry_multiplicity
 _atom_site_fract_x
 _atom_site_fract_y
 _atom_site_fract_z
 _atom_site_occupancy
 _atom_site_hle17_bader_spin_density
 _atom_site_hle17_ddec_charge
 _atom_site_hle17_ddec_spin_density
 _atom_site_hle17_ddec_sum_bond_order
 _atom_site_hle17_magmom
 _atom_site_hse06_10hf_bader_spin_density
 _atom_site_hse06_10hf_ddec_charge
 _atom_site_hse06_10hf_ddec_spin_density
 _atom_site_hse06_10hf_ddec_sum_bond_order
 _atom_site_hse06_10hf_magmom
 _atom_site_hse06_bader_spin_density
 _atom_site_hse06_ddec_charge
 _atom_site_hse06_ddec_spin_density
 _atom_site_hse06_ddec_sum_bond_order
 _atom_site_hse06_magmom
 _atom_site_pbe_bader_spin_density
 _atom_site_pbe_cm5_charge
 _atom_site_pbe_ddec_charge
 _atom_site_pbe_ddec_spin_density
 _atom_site_pbe_ddec_sum_bond_order
 _atom_site_pbe_magmom
Cd  Cd0  1  0.24041531  0.58543172  0.03486544  1  0  1.185796  0  1.647435  0  0  1.00637  0  2.0887  0  0  1.062797  0  2.033646  0  0  0.791894  0.966397  0  2.125483  0
Cd  Cd1  1  0.75958536  0.41456887  0.96513532  1  0  1.185808  0  1.647446  0  0  1.006383  0  2.088711  0  0  1.062809  0  2.033655  0  0  0.791886  0.966409  0  2.125492  0
H  H2  1  0.75562731  0.94308783  0.67125341  1  0  0.069501  0  0.921734  0  0  0.085831  0  0.984955  0  0  0.085471  0  0.985636  0  0  0.10475  0.085686  0  0.985342  0
H  H3  1  0.24437356  0.05691039  0.32874654  1  0  0.06953  0  0.921748  0  0  0.085857  0  0.984963  0  0  0.085494  0  0.985643  0  0  0.104766  0.085711  0  0.985351  0
H  H4  1  0.91662290  0.77860288  0.68819206  1  0  0.084963  0  0.948315  0  0  0.103531  0  1.007524  0  0  0.103451  0  1.008016  0  0  0.113304  0.103461  0  1.007611  0
H  H5  1  0.08338073  0.22139650  0.31180796  1  0  0.084909  0  0.948374  0  0  0.103476  0  1.007587  0  0  0.103395  0  1.008082  0  0  0.113257  0.103401  0  1.007684  0
H  H6  1  0.15023965  0.21530915  0.54087372  1  0  0.089607  0  0.955159  0  0  0.100499  0  1.02323  0  0  0.10112  0  1.022921  0  0  0.114034  0.10016  0  1.023258  0
H  H7  1  0.84976439  0.78468549  0.45912467  1  0  0.089637  0  0.955081  0  0  0.10052  0  1.023165  0  0  0.101144  0  1.022851  0  0  0.114023  0.100185  0  1.02319  0
H  H8  1  0.90155069  0.21221108  0.57531377  1  0  0.075087  0  0.946772  0  0  0.085972  0  1.018455  0  0  0.086064  0  1.01859  0  0  0.102582  0.086199  0  1.018206  0
H  H9  1  0.09845427  0.78778945  0.42468472  1  0  0.075073  0  0.946787  0  0  0.085961  0  1.018466  0  0  0.086052  0  1.018602  0  0  0.102584  0.086193  0  1.018214  0
H  H10  1  0.44615940  0.15135684  0.79048806  1  0  0.088861  0  0.975322  0  0  0.092582  0  1.044392  0  0  0.095668  0  1.041648  0  0  0.110053  0.090151  0  1.046648  0
H  H11  1  0.55383813  0.84864729  0.20950719  1  0  0.088866  0  0.975251  0  0  0.09259  0  1.044321  0  0  0.095676  0  1.041575  0  0  0.11007  0.090162  0  1.046574  0
H  H12  1  0.42646488  0.90212209  0.96232828  1  0  0.091459  0  0.94982  0  0  0.101435  0  1.012017  0  0  0.104251  0  1.0107  0  0  0.11562  0.0989  0  1.01435  0
H  H13  1  0.57353816  0.09788435  0.03766710  1  0  0.09146  0  0.94985  0  0  0.101456  0  1.012021  0  0  0.104272  0  1.010704  0  0  0.115611  0.098922  0  1.014352  0
H  H14  1  0.99774711  0.76247199  0.85405666  1  0  0.09869  0  0.97014  0  0  0.104467  0  1.038643  0  0  0.107756  0  1.036468  0  0  0.117084  0.101716  0  1.041121  0
H  H15  1  0.00224934  0.23752749  0.14594950  1  0  0.098702  0  0.970169  0  0  0.104483  0  1.038669  0  0  0.107776  0  1.036484  0  0  0.117086  0.101733  0  1.041146  0
H  H16  1  0.16980619  0.52010400  0.50558321  1  0  0.112931  0  0.941642  0  0  0.123444  0  1.001413  0  0  0.127475  0  0.998511  0  0  0.111321  0.120158  0  1.004423  0
H  H17  1  0.83019162  0.47989661  0.49441738  1  0  0.112968  0  0.941736  0  0  0.123472  0  1.001502  0  0  0.1275  0  0.998602  0  0  0.111338  0.120187  0  1.004504  0
C  C18  1  0.90518453  0.89077741  0.62455141  1  0  -0.012693  0  3.64428  0  0  -0.07638  0  3.904579  0  0  -0.072022  0  3.917562  0  0  -0.054809  -0.079518  0  3.89638  0
C  C19  1  0.09481912  0.10922194  0.37544457  1  0  -0.012668  0  3.644249  0  0  -0.076346  0  3.90453  0  0  -0.071985  0  3.917511  0  0  -0.054793  -0.079481  0  3.896329  0
C  C20  1  0.04327413  0.14508911  0.53429362  1  0  -0.020481  0  3.633995  0  0  -0.083024  0  3.898417  0  0  -0.078284  0  3.909659  0  0  -0.060893  -0.086088  0  3.890197  0
C  C21  1  0.95672806  0.85491028  0.46570682  1  0  -0.020493  0  3.634081  0  0  -0.083035  0  3.898492  0  0  -0.078295  0  3.909729  0  0  -0.060901  -0.086106  0  3.890274  0
C  C22  1  0.12720229  0.97913194  0.72511297  1  0  0.318791  0  3.812922  0  0  0.294774  0  4.073701  0  0  0.311157  0  4.088371  0  0  0.23421  0.283474  0  4.063639  0
C  C23  1  0.87279563  0.02086749  0.27488671  1  0  0.318751  0  3.812801  0  0  0.29473  0  4.073582  0  0  0.311112  0  4.088253  0  0  0.234174  0.283439  0  4.063514  0
C  C24  1  0.35030095  0.06187698  0.79986289  1  0  0.101152  0  3.756319  0  0  0.078374  0  4.019613  0  0  0.084275  0  4.034841  0  0  0.045278  0.074404  0  4.009402  0
C  C25  1  0.64969811  0.93812596  0.20013305  1  0  0.101233  0  3.756245  0  0  0.078449  0  4.019541  0  0  0.08435  0  4.034772  0  0  0.045312  0.074476  0  4.009333  0
C  C26  1  0.33853689  0.92779101  0.89668358  1  0  0.002645  0  3.743487  0  0  -0.035323  0  4.008764  0  0  -0.03581  0  4.028625  0  0  0.011536  -0.03503  0  3.996065  0
C  C27  1  0.66146359  0.07221193  0.10331395  1  0  0.002587  0  3.743548  0  0  -0.03539  0  4.008807  0  0  -0.035879  0  4.028674  0  0  0.011527  -0.035091  0  3.996104  0
C  C28  1  0.10288307  0.84748443  0.83232681  1  0  -0.020394  0  3.652991  0  0  -0.05748  0  3.913116  0  0  -0.05832  0  3.931279  0  0  0.037598  -0.05716  0  3.901302  0
C  C29  1  0.89711320  0.15251738  0.16767410  1  0  -0.020359  0  3.653111  0  0  -0.057454  0  3.913223  0  0  -0.058293  0  3.93139  0  0  0.037644  -0.05714  0  3.90141  0
C  C30  1  0.46964080  0.53023339  0.36718771  1  0  -0.034554  0  3.696421  0  0  -0.022026  0  3.934039  0  0  -0.024661  0  3.951623  0  0  -0.001355  -0.019107  0  3.921041  0
C  C31  1  0.53035884  0.46976248  0.63281286  1  0  -0.034541  0  3.696452  0  0  -0.021988  0  3.934067  0  0  -0.02462  0  3.951645  0  0  -0.001313  -0.019069  0  3.921059  0
C  C32  1  0.65700206  0.51808417  0.36542439  1  0  -0.063762  0  3.725132  0  0  -0.053614  0  3.968661  0  0  -0.059032  0  3.988627  0  0  -0.008833  -0.048853  0  3.954364  0
C  C33  1  0.34299880  0.48191407  0.63457859  1  0  -0.063795  0  3.725098  0  0  -0.053629  0  3.968622  0  0  -0.059049  0  3.988588  0  0  -0.008799  -0.048865  0  3.95432  0
C  C34  1  0.31596777  0.51225286  0.50174737  1  0  -0.075586  0  3.687458  0  0  -0.109646  0  3.939582  0  0  -0.108641  0  3.955681  0  0  -0.075601  -0.111868  0  3.929856  0
C  C35  1  0.68403320  0.48774417  0.49825268  1  0  -0.075667  0  3.68766  0  0  -0.109726  0  3.939782  0  0  -0.108718  0  3.955874  0  0  -0.075628  -0.111942  0  3.930048  0
C  C36  1  0.41942069  0.55854033  0.23326443  1  0  0.660227  0  3.906725  0  0  0.605905  0  4.204664  0  0  0.640867  0  4.196455  0  0  0.202709  0.582129  0  4.208959  0
C  C37  1  0.58057742  0.44145673  0.76673545  1  0  0.660312  0  3.906546  0  0  0.605921  0  4.204599  0  0  0.640882  0  4.196389  0  0  0.202708  0.582156  0  4.208885  0
C  C38  1  0.82945055  0.54089398  0.22650762  1  0  0.650811  0  3.923523  0  0  0.593808  0  4.229621  0  0  0.629175  0  4.221707  0  0  0.2072  0.56972  0  4.233777  0
C  C39  1  0.17054899  0.45910308  0.77349386  1  0  0.651026  0  3.923437  0  0  0.59399  0  4.229569  0  0  0.62936  0  4.221648  0  0  0.207273  0.569909  0  4.233718  0
N  N40  1  0.03450964  0.00004752  0.63043902  1  0  -0.18473  0  3.401528  0  0  -0.09663  0  3.635105  0  0  -0.117764  0  3.659126  0  0  -0.27412  -0.082135  0  3.618559  0
N  N41  1  0.96549115  0.99995186  0.36955881  1  0  -0.184798  0  3.401646  0  0  -0.096677  0  3.635185  0  0  -0.11781  0  3.659204  0  0  -0.274131  -0.082184  0  3.61864  0
N  N42  1  0.24766614  0.08808488  0.71525112  1  0  -0.349584  0  3.029723  0  0  -0.316868  0  3.29441  0  0  -0.329235  0  3.306637  0  0  -0.313588  -0.308338  0  3.285888  0
N  N43  1  0.75232747  0.91191459  0.28474983  1  0  -0.349582  0  3.02954  0  0  -0.316867  0  3.294237  0  0  -0.329234  0  3.306464  0  0  -0.313601  -0.308338  0  3.285715  0
N  N44  1  0.21113500  0.82339966  0.91239623  1  0  -0.286838  0  3.377526  0  0  -0.207721  0  3.650132  0  0  -0.222574  0  3.671037  0  0  -0.329187  -0.197116  0  3.634871  0
N  N45  1  0.78886709  0.17660092  0.08760512  1  0  -0.28688  0  3.377729  0  0  -0.207765  0  3.650343  0  0  -0.22262  0  3.671252  0  0  -0.329229  -0.19716  0  3.635083  0
O  O46  1  0.34347569  0.69287421  0.20694939  1  0  -0.607125  0  1.944809  0  0  -0.547584  0  2.175875  0  0  -0.574378  0  2.165588  0  0  -0.306715  -0.5281  0  2.182129  0
O  O47  1  0.65652374  0.30712405  0.79305401  1  0  -0.607146  0  1.944698  0  0  -0.547591  0  2.175809  0  0  -0.574385  0  2.165527  0  0  -0.306728  -0.528112  0  2.182064  0
O  O48  1  0.43806436  0.43984866  0.15872845  1  0  -0.677764  0  1.99255  0  0  -0.605028  0  2.239172  0  0  -0.636694  0  2.228025  0  0  -0.33892  -0.583587  0  2.245691  0
O  O49  1  0.56193518  0.56014839  0.84127203  1  0  -0.677819  0  1.992532  0  0  -0.60503  0  2.23914  0  0  -0.636719  0  2.22804  0  0  -0.338923  -0.583596  0  2.245659  0
O  O50  1  0.99273555  0.51207073  0.23749623  1  0  -0.626262  0  2.018515  0  0  -0.560593  0  2.274962  0  0  -0.589386  0  2.263619  0  0  -0.320843  -0.54006  0  2.281964  0
O  O51  1  0.00726369  0.48792987  0.76250495  1  0  -0.626399  0  2.018578  0  0  -0.560728  0  2.275057  0  0  -0.589513  0  2.263695  0  0  -0.320891  -0.540196  0  2.282058  0
O  O52  1  0.80674471  0.58813379  0.10674295  1  0  -0.670711  0  2.031841  0  0  -0.605046  0  2.291778  0  0  -0.632693  0  2.278524  0  0  -0.334308  -0.585573  0  2.300389  0
O  O53  1  0.19325595  0.41186680  0.89325882  1  0  -0.670753  0  2.031783  0  0  -0.605091  0  2.291755  0  0  -0.632737  0  2.278499  0  0  -0.334327  -0.585623  0  2.300368  0
