# generated using pymatgen
data_ZnH11C18(NO2)2
_symmetry_space_group_name_H-M   'P 1'
_cell_length_a   10.38489154
_cell_length_b   11.89426562
_cell_length_c   32.23606749
_cell_angle_alpha   89.99990848
_cell_angle_beta   89.99998257
_cell_angle_gamma   89.99991338
_symmetry_Int_Tables_number   1
_chemical_formula_structural   ZnH11C18(NO2)2
_chemical_formula_sum   'Zn8 H88 C144 N16 O32'
_cell_volume   3981.82027842
_cell_formula_units_Z   8
loop_
 _symmetry_equiv_pos_site_id
 _symmetry_equiv_pos_as_xyz
  1  'x, y, z'
loop_
 _atom_site_type_symbol
 _atom_site_label
 _atom_site_symmetry_multiplicity
 _atom_site_fract_x
 _atom_site_fract_y
 _atom_site_fract_z
 _atom_site_occupancy
 _atom_site_pbe_bader_charge
 _atom_site_pbe_bader_spin_density
 _atom_site_pbe_cm5_charge
 _atom_site_pbe_ddec_charge
 _atom_site_pbe_ddec_spin_density
 _atom_site_pbe_ddec_sum_bond_order
 _atom_site_pbe_magmom
Zn  Zn0  1  0.38680364  0.16452906  0.95596890  1  1.29731  0  0.709078  0.871628  0  2.31451  0
Zn  Zn1  1  0.11319620  0.83546876  0.45596976  1  1.2973  0  0.709083  0.871643  0  2.314586  0
Zn  Zn2  1  0.61319479  0.66452957  0.54403046  1  1.297324  0  0.709091  0.871669  0  2.314437  0
Zn  Zn3  1  0.88680433  0.33547106  0.04403004  1  1.297318  0  0.709105  0.871671  0  2.314418  0
Zn  Zn4  1  0.12308166  0.94920530  0.35315911  1  1.296084  0  0.700522  0.861336  0  2.37582  0
Zn  Zn5  1  0.37691731  0.05079465  0.85315893  1  1.296082  0  0.700519  0.861349  0  2.375798  0
Zn  Zn6  1  0.87691674  0.44920716  0.14684063  1  1.296088  0  0.700516  0.861348  0  2.375821  0
Zn  Zn7  1  0.62308420  0.55079470  0.64684111  1  1.29607  0  0.700515  0.861299  0  2.375851  0
H  H8  1  0.75592649  0.07336639  0.95999793  1  0.107228  0  0.108173  0.114183  0  1.006482  0
H  H9  1  0.74407127  0.92663412  0.45999811  1  0.107224  0  0.108167  0.114144  0  1.006509  0
H  H10  1  0.24407305  0.57336656  0.54000272  1  0.107251  0  0.108137  0.114123  0  1.006598  0
H  H11  1  0.25592718  0.42663390  0.04000257  1  0.107244  0  0.108169  0.114192  0  1.00652  0
H  H12  1  0.99545619  0.08058735  0.96521412  1  0.12823  0  0.108022  0.119798  0  1.015385  0
H  H13  1  0.50454157  0.91941145  0.46521464  1  0.128326  0  0.10804  0.119847  0  1.015316  0
H  H14  1  0.00454527  0.58058870  0.53478528  1  0.128217  0  0.108055  0.119868  0  1.015289  0
H  H15  1  0.49545593  0.41941179  0.03478542  1  0.12822  0  0.108054  0.119854  0  1.015291  0
H  H16  1  0.13591034  0.19620274  0.82947208  1  0.147035  0  0.097269  0.106471  0  1.090604  0
H  H17  1  0.36408865  0.80379731  0.32947201  1  0.147036  0  0.097261  0.106482  0  1.090597  0
H  H18  1  0.86408803  0.69620321  0.67052788  1  0.147026  0  0.097262  0.106464  0  1.090593  0
H  H19  1  0.63591193  0.30379771  0.17052812  1  0.147027  0  0.097264  0.106423  0  1.090597  0
H  H20  1  0.02813740  0.26224318  0.76604901  1  0.039051  0  0.095466  0.091317  0  1.000321  0
H  H21  1  0.47186261  0.73775714  0.26604896  1  0.039058  0  0.095471  0.091321  0  1.000301  0
H  H22  1  0.97185989  0.76224407  0.73395123  1  0.039194  0  0.095494  0.091347  0  1.000228  0
H  H23  1  0.52813808  0.23775573  0.23395121  1  0.039041  0  0.095484  0.091325  0  1.000294  0
H  H24  1  0.78664314  0.27868002  0.76444610  1  0.058119  0  0.095258  0.088332  0  1.014328  0
H  H25  1  0.71335769  0.72132218  0.26444640  1  0.058135  0  0.095272  0.088333  0  1.014286  0
H  H26  1  0.21335508  0.77867854  0.73555381  1  0.058139  0  0.095263  0.08835  0  1.014322  0
H  H27  1  0.28664304  0.22132024  0.23555378  1  0.058123  0  0.095257  0.088326  0  1.014337  0
H  H28  1  0.66036452  0.21998362  0.82530808  1  0.083229  0  0.098632  0.104653  0  1.070331  0
H  H29  1  0.83963529  0.78001832  0.32530833  1  0.08323  0  0.098621  0.104628  0  1.070362  0
H  H30  1  0.33963477  0.71998139  0.67469218  1  0.083251  0  0.098622  0.104643  0  1.070345  0
H  H31  1  0.16036534  0.28001680  0.17469181  1  0.083241  0  0.098619  0.104629  0  1.070363  0
H  H32  1  0.48036885  0.77929250  0.93866325  1  0.076832  0  0.109961  0.118179  0  0.977134  0
H  H33  1  0.01963004  0.22070707  0.43866293  1  0.076821  0  0.10997  0.118199  0  0.977132  0
H  H34  1  0.51962938  0.27929437  0.56133697  1  0.086511  0  0.109948  0.11814  0  0.977154  0
H  H35  1  0.98036876  0.72070702  0.06133725  1  0.07682  0  0.109968  0.118208  0  0.977126  0
H  H36  1  0.50810545  0.58841977  0.96996179  1  0.087209  0  0.108542  0.113095  0  0.987064  0
H  H37  1  0.99189327  0.41157901  0.46996162  1  0.087212  0  0.108583  0.113141  0  0.986927  0
H  H38  1  0.49189407  0.08842181  0.53003793  1  0.087199  0  0.108544  0.113086  0  0.986992  0
H  H39  1  0.00810617  0.91157954  0.03003844  1  0.087217  0  0.108544  0.113096  0  0.987005  0
H  H40  1  0.33422619  0.33205287  0.86843708  1  0.13158  0  0.100094  0.116873  0  1.053292  0
H  H41  1  0.16577469  0.66794785  0.36843711  1  0.131571  0  0.100076  0.116834  0  1.05333  0
H  H42  1  0.66577387  0.83205208  0.63156249  1  0.131563  0  0.100099  0.116876  0  1.053244  0
H  H43  1  0.83422420  0.16794816  0.13156279  1  0.13156  0  0.100073  0.116815  0  1.053344  0
H  H44  1  0.25332984  0.35349450  0.79709246  1  0.067851  0  0.096021  0.092416  0  1.025377  0
H  H45  1  0.24667015  0.64650653  0.29709280  1  0.067915  0  0.095996  0.092368  0  1.0254  0
H  H46  1  0.74666826  0.85349330  0.70290710  1  0.067562  0  0.095998  0.09235  0  1.025415  0
H  H47  1  0.75333071  0.14650748  0.20290742  1  0.06791  0  0.095989  0.092357  0  1.025405  0
H  H48  1  0.23315711  0.54445131  0.76504755  1  0.075773  0  0.098294  0.098298  0  1.004387  0
H  H49  1  0.26684194  0.45554986  0.26504769  1  0.075774  0  0.098299  0.098301  0  1.004425  0
H  H50  1  0.76684055  0.04444957  0.73495250  1  0.075779  0  0.098302  0.098308  0  1.004417  0
H  H51  1  0.73316031  0.95555107  0.23495235  1  0.075791  0  0.098304  0.098285  0  1.004401  0
H  H52  1  0.30081004  0.71239849  0.80465251  1  0.089648  0  0.097773  0.099735  0  1.034216  0
H  H53  1  0.19918898  0.28760250  0.30465245  1  0.089698  0  0.097764  0.099742  0  1.034193  0
H  H54  1  0.69918926  0.21239786  0.69534775  1  0.089665  0  0.097766  0.099763  0  1.034158  0
H  H55  1  0.80081356  0.78760379  0.19534769  1  0.089699  0  0.097783  0.0998  0  1.034169  0
H  H56  1  0.46386720  0.93056867  0.21129440  1  0.070641  0  0.107259  0.110564  0  1.013203  0
H  H57  1  0.03613383  0.06943021  0.71129424  1  0.070663  0  0.10728  0.110594  0  1.013173  0
H  H58  1  0.53613316  0.43057037  0.28870535  1  0.070646  0  0.107282  0.11061  0  1.013167  0
H  H59  1  0.96386765  0.56943172  0.78870517  1  0.070616  0  0.107288  0.110659  0  1.013133  0
H  H60  1  0.55737888  0.00279142  0.14627371  1  0.096216  0  0.106821  0.113139  0  1.037084  0
H  H61  1  0.94262399  0.99720793  0.64627328  1  0.096253  0  0.10681  0.113135  0  1.037061  0
H  H62  1  0.44262222  0.50279249  0.35372629  1  0.096225  0  0.106801  0.113125  0  1.037096  0
H  H63  1  0.05737771  0.49720830  0.85372619  1  0.096214  0  0.10681  0.113166  0  1.037068  0
H  H64  1  0.17362618  0.04962107  0.09642954  1  0.127708  0  0.108537  0.114546  0  1.058356  0
H  H65  1  0.32637496  0.95037831  0.59642946  1  0.12767  0  0.10853  0.114556  0  1.058334  0
H  H66  1  0.82637195  0.54962394  0.40357012  1  0.127724  0  0.108541  0.114551  0  1.058337  0
H  H67  1  0.67362971  0.45037597  0.90356973  1  0.127757  0  0.108555  0.114548  0  1.058314  0
H  H68  1  0.08205290  0.97623978  0.16163791  1  0.124775  0  0.107891  0.114408  0  1.035957  0
H  H69  1  0.41794818  0.02376016  0.66163837  1  0.124758  0  0.107898  0.114442  0  1.035929  0
H  H70  1  0.91794546  0.47624076  0.33836212  1  0.124804  0  0.107912  0.11447  0  1.035894  0
H  H71  1  0.58205530  0.52376027  0.83836169  1  0.124804  0  0.107903  0.114471  0  1.035909  0
H  H72  1  0.29707758  0.02379640  0.27207039  1  0.120743  0  0.144401  0.109808  0  0.980233  0
H  H73  1  0.20292339  0.97620306  0.77206999  1  0.120756  0  0.144403  0.109804  0  0.980225  0
H  H74  1  0.70292060  0.52379851  0.22792991  1  0.120712  0  0.144381  0.109777  0  0.980227  0
H  H75  1  0.79707931  0.47620300  0.72793011  1  0.120716  0  0.144384  0.109787  0  0.980241  0
H  H76  1  0.00767861  0.77864265  0.28785250  1  0.123762  0  0.126553  0.12334  0  1.001824  0
H  H77  1  0.49231560  0.22135758  0.78785221  1  0.123817  0  0.126512  0.12327  0  1.001791  0
H  H78  1  0.99231816  0.27864240  0.21214764  1  0.123798  0  0.126535  0.123317  0  1.001822  0
H  H79  1  0.50768080  0.72135666  0.71214804  1  0.1238  0  0.126548  0.12333  0  1.001822  0
H  H80  1  0.08008480  0.78066897  0.20507162  1  0.219593  0  0.12542  0.145199  0  1.034719  0
H  H81  1  0.41991335  0.21933246  0.70507165  1  0.219582  0  0.125457  0.145259  0  1.034706  0
H  H82  1  0.91991486  0.28067014  0.29492853  1  0.21961  0  0.125421  0.145175  0  1.03476  0
H  H83  1  0.58008594  0.71933024  0.79492861  1  0.219602  0  0.125422  0.145178  0  1.034743  0
H  H84  1  0.25049169  0.08559814  0.04105987  1  0.206694  0  0.140373  0.125379  0  1.038427  0
H  H85  1  0.24950758  0.91439980  0.54105982  1  0.206702  0  0.140379  0.125375  0  1.038432  0
H  H86  1  0.74950446  0.58559919  0.45894039  1  0.206749  0  0.140393  0.125372  0  1.038447  0
H  H87  1  0.75049619  0.41440132  0.95894032  1  0.206762  0  0.140404  0.125391  0  1.038421  0
H  H88  1  0.63763579  0.16201376  0.01258831  1  0.16662  0  0.125569  0.1243  0  1.008343  0
H  H89  1  0.86236143  0.83798616  0.51258922  1  0.16661  0  0.125573  0.12432  0  1.008287  0
H  H90  1  0.36235637  0.66201352  0.48741098  1  0.166557  0  0.12557  0.124301  0  1.008302  0
H  H91  1  0.13764151  0.33798669  0.98741066  1  0.166573  0  0.125585  0.124309  0  1.008298  0
H  H92  1  0.62806133  0.08862108  0.09344248  1  0.144601  0  0.123049  0.126596  0  1.043828  0
H  H93  1  0.87193967  0.91137933  0.59344366  1  0.144643  0  0.123019  0.12658  0  1.04383  0
H  H94  1  0.37193674  0.58861949  0.40655653  1  0.14474  0  0.123034  0.126594  0  1.043869  0
H  H95  1  0.12806507  0.41137938  0.90655679  1  0.144658  0  0.123033  0.126611  0  1.043849  0
C  C96  1  0.74948442  0.13193929  0.89747106  1  -0.082802  0  -0.007898  -0.07354  0  3.90237  0
C  C97  1  0.75051629  0.86806148  0.39747158  1  -0.082621  0  -0.007945  -0.073527  0  3.902458  0
C  C98  1  0.25051599  0.63193582  0.60252894  1  -0.082621  0  -0.007875  -0.07339  0  3.902369  0
C  C99  1  0.24948418  0.36806185  0.10252882  1  -0.082827  0  -0.007918  -0.073473  0  3.902414  0
C  C100  1  0.81303059  0.10081997  0.93354773  1  0.054798  0  -0.07932  -0.083487  0  3.974406  0
C  C101  1  0.68696912  0.89918065  0.43354793  1  0.05477  0  -0.079257  -0.083319  0  3.974431  0
C  C102  1  0.18696794  0.60081758  0.56645259  1  0.054793  0  -0.079307  -0.083463  0  3.974592  0
C  C103  1  0.31303226  0.39918108  0.06645245  1  0.054819  0  -0.079321  -0.083514  0  3.974524  0
C  C104  1  0.94763286  0.10232060  0.93620624  1  -0.070641  0  -0.077708  -0.079305  0  3.970707  0
C  C105  1  0.55236685  0.89768001  0.43620645  1  -0.070758  0  -0.077805  -0.079518  0  3.970633  0
C  C106  1  0.05236663  0.60232008  0.56379347  1  -0.070668  0  -0.077771  -0.079426  0  3.970596  0
C  C107  1  0.44763357  0.39768028  0.06379362  1  -0.070643  0  -0.077773  -0.079423  0  3.970565  0
C  C108  1  0.02313595  0.13161944  0.90237678  1  -0.024031  0  -0.008593  -0.080513  0  3.904119  0
C  C109  1  0.47686297  0.86837945  0.40237728  1  -0.024013  0  -0.008559  -0.080472  0  3.904098  0
C  C110  1  0.97686349  0.63161923  0.59762291  1  -0.024019  0  -0.008584  -0.080531  0  3.904176  0
C  C111  1  0.52313654  0.36838032  0.09762344  1  -0.024038  0  -0.008576  -0.080486  0  3.904055  0
C  C112  1  0.96212505  0.16606239  0.86425234  1  -0.015864  0  -0.000857  0.063415  0  3.908285  0
C  C113  1  0.53787569  0.83393769  0.36425291  1  -0.015725  0  -0.000832  0.06356  0  3.908267  0
C  C114  1  0.03787434  0.66605990  0.63574763  1  -0.015869  0  -0.00084  0.063487  0  3.908353  0
C  C115  1  0.46212580  0.33393847  0.13574752  1  -0.015816  0  -0.00085  0.063502  0  3.908228  0
C  C116  1  0.03181777  0.19954728  0.82823062  1  -0.060763  0  -0.106066  -0.155211  0  4.000117  0
C  C117  1  0.46818315  0.80045193  0.32823084  1  -0.060874  0  -0.106052  -0.155274  0  4.00013  0
C  C118  1  0.96818251  0.69954677  0.67176934  1  -0.060503  0  -0.106084  -0.155273  0  4.000198  0
C  C119  1  0.53181744  0.30045246  0.17176960  1  -0.060755  0  -0.106089  -0.155211  0  4.000098  0
C  C120  1  0.97075583  0.23702615  0.79287172  1  -0.090885  0  -0.102596  -0.092316  0  4.077579  0
C  C121  1  0.52924402  0.76297508  0.29287201  1  -0.090898  0  -0.102589  -0.09229  0  4.077564  0
C  C122  1  0.02924247  0.73702840  0.70712760  1  -0.091314  0  -0.1026  -0.092275  0  4.077469  0
C  C123  1  0.47075664  0.26297386  0.20712814  1  -0.090912  0  -0.102571  -0.092272  0  4.077553  0
C  C124  1  0.83562297  0.24585738  0.79185206  1  -0.007647  0  -0.099846  -0.089589  0  4.069359  0
C  C125  1  0.66437784  0.75414469  0.29185203  1  -0.007622  0  -0.099817  -0.089509  0  4.069279  0
C  C126  1  0.16437628  0.74585525  0.70814818  1  -0.007617  0  -0.099856  -0.089646  0  4.069311  0
C  C127  1  0.33562283  0.25414364  0.20814813  1  -0.007615  0  -0.099831  -0.08957  0  4.069367  0
C  C128  1  0.76434443  0.21328620  0.82581713  1  -0.06668  0  -0.096162  -0.131492  0  3.98585  0
C  C129  1  0.73565538  0.78671405  0.32581739  1  -0.066932  0  -0.096197  -0.131501  0  3.985906  0
C  C130  1  0.23565391  0.71328328  0.67418313  1  -0.066911  0  -0.096167  -0.131455  0  3.985809  0
C  C131  1  0.26434523  0.28671408  0.17418275  1  -0.06692  0  -0.096175  -0.131465  0  3.985893  0
C  C132  1  0.82298445  0.16969281  0.86233897  1  -0.006918  0  -0.000218  0.060318  0  3.917429  0
C  C133  1  0.67701629  0.83031064  0.36233920  1  -0.006665  0  -0.0002  0.06018  0  3.9176  0
C  C134  1  0.17701589  0.66968844  0.63766101  1  -0.006666  0  -0.000209  0.060216  0  3.917531  0
C  C135  1  0.32298424  0.33030992  0.13766091  1  -0.006701  0  -0.000183  0.060222  0  3.917507  0
C  C136  1  0.60561774  0.11928119  0.89738824  1  1.567646  0  0.229226  0.609524  0  4.137885  0
C  C137  1  0.89438297  0.88071959  0.39738843  1  1.567386  0  0.2292  0.609419  0  4.137985  0
C  C138  1  0.39438365  0.61927837  0.60261238  1  1.567412  0  0.229138  0.609367  0  4.138162  0
C  C139  1  0.10561652  0.38072099  0.10261196  1  1.567599  0  0.229129  0.609362  0  4.13815  0
C  C140  1  0.16630452  0.12792091  0.90881956  1  1.534949  0  0.225619  0.603608  0  4.129141  0
C  C141  1  0.33369440  0.87207796  0.40882006  1  1.534324  0  0.225646  0.603679  0  4.129023  0
C  C142  1  0.83369493  0.62792176  0.59117951  1  1.534534  0  0.225602  0.603579  0  4.129046  0
C  C143  1  0.66630510  0.37207866  0.09118002  1  1.534322  0  0.225577  0.603521  0  4.12903  0
C  C144  1  0.40135510  0.71625558  0.88187347  1  -0.097046  0  -0.009548  -0.055035  0  3.937904  0
C  C145  1  0.09864480  0.28374508  0.38187341  1  -0.097043  0  -0.009511  -0.054992  0  3.937843  0
C  C146  1  0.59864516  0.21625542  0.61812648  1  -0.097051  0  -0.009552  -0.055095  0  3.937865  0
C  C147  1  0.90135581  0.78374405  0.11812766  1  -0.09732  0  -0.009528  -0.055052  0  3.937986  0
C  C148  1  0.44965603  0.70471545  0.92165810  1  0.031049  0  -0.084209  -0.098019  0  3.991228  0
C  C149  1  0.05034384  0.29528336  0.42165804  1  0.031042  0  -0.084197  -0.098021  0  3.991187  0
C  C150  1  0.55034328  0.20471636  0.57834217  1  0.021368  0  -0.08412  -0.09785  0  3.991113  0
C  C151  1  0.94965676  0.79528412  0.07834240  1  0.031081  0  -0.084208  -0.098073  0  3.991263  0
C  C152  1  0.46362641  0.59749735  0.93948319  1  -0.097943  0  -0.085068  -0.100025  0  4.011249  0
C  C153  1  0.03637248  0.40250223  0.43948308  1  -0.09794  0  -0.085083  -0.100041  0  4.011066  0
C  C154  1  0.53637213  0.09749752  0.56051652  1  -0.097953  0  -0.085051  -0.099987  0  4.011131  0
C  C155  1  0.96362793  0.90250136  0.06051699  1  -0.097957  0  -0.085029  -0.099922  0  4.011165  0
C  C156  1  0.42344409  0.50157809  0.91883740  1  0.013274  0  -0.015658  -0.078261  0  3.943547  0
C  C157  1  0.07655578  0.49842158  0.41883754  1  0.013284  0  -0.015669  -0.078277  0  3.943528  0
C  C158  1  0.57655558  0.00157895  0.58116236  1  0.01327  0  -0.015634  -0.078296  0  3.943579  0
C  C159  1  0.92344639  0.99842151  0.08116248  1  0.013479  0  -0.015708  -0.078346  0  3.943498  0
C  C160  1  0.36752537  0.51043794  0.87829617  1  -0.060386  0  -0.006558  0.047755  0  3.95632  0
C  C161  1  0.13247454  0.48956274  0.37829599  1  -0.060379  0  -0.006609  0.047642  0  3.956405  0
C  C162  1  0.63247525  0.01043772  0.62170390  1  -0.060367  0  -0.006582  0.047737  0  3.956348  0
C  C163  1  0.86752765  0.98956341  0.12170372  1  -0.060571  0  -0.006615  0.047617  0  3.95634  0
C  C164  1  0.32821258  0.41533337  0.85457774  1  -0.0595  0  -0.09951  -0.148373  0  3.970197  0
C  C165  1  0.17178639  0.58466741  0.35457750  1  -0.059521  0  -0.099513  -0.14836  0  3.970276  0
C  C166  1  0.67178830  0.91533168  0.64542210  1  -0.059536  0  -0.099535  -0.148401  0  3.970167  0
C  C167  1  0.82821554  0.08466851  0.14542276  1  -0.059508  0  -0.099496  -0.148275  0  3.970178  0
C  C168  1  0.28146391  0.42769490  0.81473540  1  -0.070104  0  -0.097626  -0.085359  0  4.035804  0
C  C169  1  0.21853510  0.57230689  0.31473517  1  -0.070185  0  -0.097581  -0.085251  0  4.035753  0
C  C170  1  0.71853310  0.92769298  0.68526473  1  -0.069814  0  -0.09762  -0.085276  0  4.035786  0
C  C171  1  0.78146685  0.07230704  0.18526478  1  -0.070197  0  -0.097595  -0.085308  0  4.035779  0
C  C172  1  0.26987583  0.53540063  0.79659203  1  -0.056362  0  -0.098671  -0.091378  0  4.04329  0
C  C173  1  0.23012512  0.46460040  0.29659186  1  -0.056365  0  -0.098684  -0.091434  0  4.043335  0
C  C174  1  0.73012474  0.03539993  0.70340802  1  -0.056348  0  -0.098692  -0.091431  0  4.043263  0
C  C175  1  0.76987808  0.96460085  0.20340817  1  -0.056382  0  -0.098659  -0.091343  0  4.043322  0
C  C176  1  0.30712409  0.62917684  0.81861764  1  -0.070907  0  -0.094862  -0.137394  0  4.006926  0
C  C177  1  0.19287492  0.37082409  0.31861753  1  -0.070926  0  -0.094841  -0.137355  0  4.006921  0
C  C178  1  0.69287440  0.12917628  0.68138236  1  -0.070889  0  -0.094854  -0.137406  0  4.006785  0
C  C179  1  0.80712844  0.87082543  0.18138256  1  -0.070967  0  -0.094898  -0.137485  0  4.0069  0
C  C180  1  0.35826953  0.61990503  0.85940550  1  -0.009793  0  -0.006627  0.040352  0  3.97526  0
C  C181  1  0.14173136  0.38009573  0.35940538  1  -0.009797  0  -0.006635  0.040351  0  3.975302  0
C  C182  1  0.64172897  0.11990387  0.64059451  1  -0.009801  0  -0.006619  0.040364  0  3.975275  0
C  C183  1  0.85827101  0.88009634  0.14059470  1  -0.009456  0  -0.006627  0.040395  0  3.975182  0
C  C184  1  0.40375369  0.83002473  0.86186417  1  1.577408  0  0.197946  0.574072  0  4.230681  0
C  C185  1  0.09624623  0.16997602  0.36186418  1  1.577538  0  0.197908  0.574017  0  4.230624  0
C  C186  1  0.59624637  0.33002364  0.63813633  1  1.577553  0  0.197925  0.574085  0  4.230644  0
C  C187  1  0.90375458  0.66997573  0.13813634  1  1.577537  0  0.197955  0.574135  0  4.23072  0
C  C188  1  0.44685222  0.39031937  0.93972708  1  1.563286  0  0.204246  0.57235  0  4.224509  0
C  C189  1  0.05314955  0.60968020  0.43972746  1  1.563285  0  0.204283  0.572499  0  4.224408  0
C  C190  1  0.55314677  0.89031989  0.56027308  1  1.563299  0  0.204278  0.572395  0  4.224449  0
C  C191  1  0.94685136  0.10968067  0.06027247  1  1.563302  0  0.204304  0.572421  0  4.224336  0
C  C192  1  0.26723635  0.94907608  0.19017303  1  0.345968  0  0.088581  0.147073  0  4.035475  0
C  C193  1  0.23276374  0.05092373  0.69017318  1  0.345955  0  0.088618  0.147165  0  4.035466  0
C  C194  1  0.73276302  0.44907659  0.30982733  1  0.345933  0  0.088576  0.147015  0  4.035504  0
C  C195  1  0.76723874  0.55092456  0.80982718  1  0.345955  0  0.088608  0.147214  0  4.035324  0
C  C196  1  0.40062724  0.95695627  0.18609312  1  -0.076428  0  -0.086061  -0.151842  0  4.001696  0
C  C197  1  0.09937381  0.04304272  0.68609297  1  -0.076506  0  -0.086143  -0.151984  0  4.001851  0
C  C198  1  0.59937211  0.45695778  0.31390692  1  -0.076435  0  -0.086109  -0.151972  0  4.001766  0
C  C199  1  0.90062771  0.54304420  0.81390646  1  -0.076451  0  -0.086121  -0.152069  0  4.00174  0
C  C200  1  0.45318531  0.99752713  0.14922136  1  0.056554  0  -0.084521  -0.140616  0  3.957312  0
C  C201  1  0.04681674  0.00247202  0.64922125  1  0.056613  0  -0.084512  -0.140549  0  3.957322  0
C  C202  1  0.54681494  0.49752939  0.35077835  1  0.056628  0  -0.084463  -0.140452  0  3.957264  0
C  C203  1  0.95318678  0.50247327  0.85077852  1  0.056525  0  -0.084506  -0.140571  0  3.957305  0
C  C204  1  0.37180062  0.03041248  0.11684146  1  0.252979  0  0.10431  0.176152  0  3.985604  0
C  C205  1  0.12819953  0.96958597  0.61684108  1  0.252951  0  0.104321  0.176107  0  3.985735  0
C  C206  1  0.62819658  0.53041486  0.38315883  1  0.25283  0  0.104304  0.176062  0  3.985682  0
C  C207  1  0.87180414  0.46958514  0.88315810  1  0.252906  0  0.104332  0.176179  0  3.985646  0
C  C208  1  0.23790900  0.02235153  0.12117822  1  0.068931  0  -0.083459  -0.145052  0  3.955505  0
C  C209  1  0.26209211  0.97764774  0.62117814  1  0.068326  0  -0.083445  -0.14504  0  3.955566  0
C  C210  1  0.76208918  0.52235375  0.37882207  1  0.068916  0  -0.083483  -0.145064  0  3.955663  0
C  C211  1  0.73791347  0.47764627  0.87882197  1  0.06894  0  -0.083455  -0.144985  0  3.955607  0
C  C212  1  0.18600680  0.98121186  0.15779190  1  -0.073967  0  -0.08163  -0.133152  0  3.970941  0
C  C213  1  0.31399525  0.01878725  0.65779206  1  -0.073314  0  -0.081639  -0.133207  0  3.970918  0
C  C214  1  0.81399252  0.48121633  0.34220812  1  -0.073914  0  -0.081671  -0.133183  0  3.970996  0
C  C215  1  0.68600632  0.51878385  0.84220769  1  -0.073926  0  -0.081679  -0.133306  0  3.970954  0
C  C216  1  0.22894799  0.95682674  0.26605604  1  0.99664  0  0.151632  0.100158  0  3.907643  0
C  C217  1  0.27105202  0.04317275  0.76605619  1  0.996612  0  0.151605  0.100163  0  3.907756  0
C  C218  1  0.77105040  0.45682752  0.23394369  1  0.996624  0  0.151684  0.10023  0  3.907765  0
C  C219  1  0.72895046  0.54317312  0.73394386  1  0.996628  0  0.15165  0.100168  0  3.907726  0
C  C220  1  0.07875298  0.82988918  0.27223302  1  0.354678  0  0.00793  -0.017766  0  3.966462  0
C  C221  1  0.42124606  0.17010943  0.77223215  1  0.354672  0  0.007959  -0.017654  0  3.9665  0
C  C222  1  0.92124563  0.32988896  0.22776771  1  0.354687  0  0.00793  -0.017722  0  3.966517  0
C  C223  1  0.57875331  0.67011087  0.72776814  1  0.354678  0  0.007936  -0.017736  0  3.966491  0
C  C224  1  0.11402636  0.83029280  0.23126493  1  0.30801  0  0.011736  -0.08713  0  3.86302  0
C  C225  1  0.38597176  0.16970767  0.73126500  1  0.307988  0  0.011718  -0.087196  0  3.863165  0
C  C226  1  0.88597225  0.33029413  0.26873518  1  0.308  0  0.011762  -0.087081  0  3.863105  0
C  C227  1  0.61402858  0.66970720  0.76873529  1  0.307983  0  0.011728  -0.087125  0  3.863112  0
C  C228  1  0.35444077  0.09410132  0.04397089  1  0.953134  0  0.15548  0.112546  0  3.84069  0
C  C229  1  0.14555946  0.90589745  0.54397147  1  0.952989  0  0.155484  0.112568  0  3.840595  0
C  C230  1  0.64555440  0.59410168  0.45602843  1  0.953063  0  0.155474  0.112517  0  3.840648  0
C  C231  1  0.85444529  0.40589800  0.95602836  1  0.953048  0  0.155456  0.112582  0  3.840606  0
C  C232  1  0.55643900  0.13229609  0.03048163  1  0.345606  0  0.009058  -0.007188  0  3.969054  0
C  C233  1  0.94356109  0.86770123  0.53048159  1  0.345613  0  0.00906  -0.007204  0  3.968969  0
C  C234  1  0.44355706  0.63229750  0.46951798  1  0.345673  0  0.009044  -0.007229  0  3.969016  0
C  C235  1  0.05644083  0.36770194  0.96951889  1  0.345686  0  0.009065  -0.007128  0  3.968961  0
C  C236  1  0.55222520  0.09608108  0.07066272  1  0.330194  0  0.004925  -0.095899  0  3.891837  0
C  C237  1  0.94777485  0.90391355  0.57066235  1  0.330155  0  0.004991  -0.095884  0  3.892028  0
C  C238  1  0.44777285  0.59608350  0.42933722  1  0.33065  0  0.004934  -0.095931  0  3.892044  0
C  C239  1  0.05222893  0.40391696  0.92933749  1  0.330736  0  0.004963  -0.095927  0  3.89203  0
N  N240  1  0.20988863  0.91104006  0.22787584  1  -1.26586  0  -0.2216  0.012041  0  3.804349  0
N  N241  1  0.29011046  0.08895875  0.72787596  1  -1.26587  0  -0.221595  0.012023  0  3.804459  0
N  N242  1  0.79010984  0.41104234  0.27212422  1  -1.265853  0  -0.221585  0.012062  0  3.804399  0
N  N243  1  0.70989002  0.58895898  0.77212437  1  -1.265872  0  -0.221593  0.012032  0  3.804352  0
N  N244  1  0.15047441  0.90913400  0.29348776  1  -1.229985  0  -0.353958  -0.283202  0  3.616547  0
N  N245  1  0.34952462  0.09086621  0.79348787  1  -1.229994  0  -0.353952  -0.283248  0  3.616627  0
N  N246  1  0.84952503  0.40913480  0.20651231  1  -1.229955  0  -0.35398  -0.28328  0  3.616667  0
N  N247  1  0.65047586  0.59086680  0.70651246  1  -1.229933  0  -0.35395  -0.283196  0  3.616599  0
N  N248  1  0.42367597  0.07198550  0.07908312  1  -1.24806  0  -0.217088  0.014197  0  3.772259  0
N  N249  1  0.07632230  0.92801395  0.57908338  1  -1.247919  0  -0.217172  0.014136  0  3.772346  0
N  N250  1  0.57631924  0.57198526  0.42091653  1  -1.248609  0  -0.217087  0.01426  0  3.772426  0
N  N251  1  0.92368241  0.42801457  0.92091613  1  -1.24856  0  -0.217156  0.014036  0  3.772453  0
N  N252  1  0.43294711  0.13012710  0.01431558  1  -1.227696  0  -0.355971  -0.286526  0  3.613686  0
N  N253  1  0.06705411  0.86987096  0.51431558  1  -1.227697  0  -0.355929  -0.286442  0  3.613361  0
N  N254  1  0.56704800  0.63012827  0.48568403  1  -1.227766  0  -0.35596  -0.286449  0  3.613556  0
N  N255  1  0.93294974  0.36987128  0.98568428  1  -1.227823  0  -0.356005  -0.286569  0  3.613652  0
O  O256  1  0.54673124  0.12036754  0.86255087  1  -1.173974  0  -0.312379  -0.538161  0  2.391262  0
O  O257  1  0.95326757  0.87963339  0.36255105  1  -1.173959  0  -0.31235  -0.53806  0  2.391337  0
O  O258  1  0.45326918  0.62036617  0.63744945  1  -1.17394  0  -0.312346  -0.538071  0  2.391357  0
O  O259  1  0.04672999  0.37963303  0.13744903  1  -1.173929  0  -0.312337  -0.538072  0  2.391359  0
O  O260  1  0.55042698  0.10427223  0.93220608  1  -1.180387  0  -0.316269  -0.560287  0  2.391779  0
O  O261  1  0.94957273  0.89572839  0.43220688  1  -1.180328  0  -0.316304  -0.560343  0  2.391837  0
O  O262  1  0.44957347  0.60426697  0.56779424  1  -1.180391  0  -0.316202  -0.560244  0  2.391952  0
O  O263  1  0.05042577  0.39573169  0.06779413  1  -1.180402  0  -0.316225  -0.560256  0  2.391883  0
O  O264  1  0.24104290  0.14834253  0.87824355  1  -1.20658  0  -0.321756  -0.568491  0  2.452685  0
O  O265  1  0.25895797  0.85165731  0.37824345  1  -1.206582  0  -0.321718  -0.568472  0  2.452616  0
O  O266  1  0.75895941  0.64834167  0.62175613  1  -1.206749  0  -0.321699  -0.568386  0  2.452687  0
O  O267  1  0.74104156  0.35165862  0.12175634  1  -1.206565  0  -0.321746  -0.568457  0  2.452701  0
O  O268  1  0.20835888  0.10680643  0.94522878  1  -1.144511  0  -0.307049  -0.519239  0  2.288019  0
O  O269  1  0.29164000  0.89318808  0.44522928  1  -1.143887  0  -0.30714  -0.519362  0  2.288033  0
O  O270  1  0.79164157  0.60681001  0.55477031  1  -1.143916  0  -0.307101  -0.519309  0  2.287908  0
O  O271  1  0.70835850  0.39318973  0.05477049  1  -1.143893  0  -0.307048  -0.519213  0  2.287891  0
O  O272  1  0.34558738  0.90944871  0.88214578  1  -1.152423  0  -0.338508  -0.556886  0  2.274021  0
O  O273  1  0.15441252  0.09055111  0.38214583  1  -1.152416  0  -0.33852  -0.556904  0  2.274  0
O  O274  1  0.65441158  0.40944932  0.61785468  1  -1.152405  0  -0.3385  -0.556894  0  2.274021  0
O  O275  1  0.84558843  0.59055183  0.11785442  1  -1.152418  0  -0.338497  -0.556896  0  2.274002  0
O  O276  1  0.46182845  0.84474362  0.82820125  1  -1.17692  0  -0.327073  -0.56049  0  2.10293  0
O  O277  1  0.03817247  0.15525643  0.32820128  1  -1.177046  0  -0.327043  -0.560443  0  2.102925  0
O  O278  1  0.53817255  0.34474247  0.67179894  1  -1.17706  0  -0.327093  -0.560524  0  2.102997  0
O  O279  1  0.96182837  0.65525761  0.17179894  1  -1.17709  0  -0.327096  -0.560533  0  2.102995  0
O  O280  1  0.55289763  0.37201128  0.95689977  1  -1.174451  0  -0.317726  -0.547477  0  2.141953  0
O  O281  1  0.94710302  0.62798924  0.45689948  1  -1.174427  0  -0.317747  -0.547561  0  2.141953  0
O  O282  1  0.44710236  0.87201117  0.54309978  1  -1.174473  0  -0.317735  -0.547502  0  2.141961  0
O  O283  1  0.05289787  0.12798928  0.04310044  1  -1.174458  0  -0.317714  -0.547478  0  2.141899  0
O  O284  1  0.35179785  0.31965429  0.93838141  1  -1.16212  0  -0.326998  -0.558449  0  2.36468  0
O  O285  1  0.14820489  0.68034444  0.43838236  1  -1.162159  0  -0.327003  -0.558477  0  2.364672  0
O  O286  1  0.64820223  0.81965468  0.56161848  1  -1.162097  0  -0.327023  -0.558458  0  2.364573  0
O  O287  1  0.85179590  0.18034419  0.06161753  1  -1.162125  0  -0.32702  -0.558438  0  2.364508  0
