# generated using pymatgen
data_KLiH6C4O7
_symmetry_space_group_name_H-M   'P 1'
_cell_length_a   9.58052746
_cell_length_b   9.69630014
_cell_length_c   10.32816218
_cell_angle_alpha   117.98980034
_cell_angle_beta   113.26733971
_cell_angle_gamma   89.99823441
_symmetry_Int_Tables_number   1
_chemical_formula_structural   KLiH6C4O7
_chemical_formula_sum   'K4 Li4 H24 C16 O28'
_cell_volume   757.72386652
_cell_formula_units_Z   4
loop_
 _symmetry_equiv_pos_site_id
 _symmetry_equiv_pos_as_xyz
  1  'x, y, z'
loop_
 _atom_site_type_symbol
 _atom_site_label
 _atom_site_symmetry_multiplicity
 _atom_site_fract_x
 _atom_site_fract_y
 _atom_site_fract_z
 _atom_site_occupancy
 _atom_site_hle17_bader_spin_density
 _atom_site_hle17_ddec_charge
 _atom_site_hle17_ddec_spin_density
 _atom_site_hle17_ddec_sum_bond_order
 _atom_site_hle17_magmom
 _atom_site_hse06_10hf_bader_spin_density
 _atom_site_hse06_10hf_ddec_charge
 _atom_site_hse06_10hf_ddec_spin_density
 _atom_site_hse06_10hf_ddec_sum_bond_order
 _atom_site_hse06_10hf_magmom
 _atom_site_hse06_bader_spin_density
 _atom_site_hse06_ddec_charge
 _atom_site_hse06_ddec_spin_density
 _atom_site_hse06_ddec_sum_bond_order
 _atom_site_hse06_magmom
 _atom_site_pbe_bader_spin_density
 _atom_site_pbe_cm5_charge
 _atom_site_pbe_ddec_charge
 _atom_site_pbe_ddec_spin_density
 _atom_site_pbe_ddec_sum_bond_order
 _atom_site_pbe_magmom
K  K0  1  0.74983993  0.95879027  0.00003855  1  0  0.938706  0  0.378314  0  0  0.884859  0  0.546663  0  0  0.899568  0  0.525461  0  0  0.728586  0.873788  0  0.562023  0
K  K1  1  0.25015830  0.04121625  0.99996272  1  0  0.938704  0  0.37833  0  0  0.884853  0  0.54668  0  0  0.89957  0  0.525474  0  0  0.728587  0.873784  0  0.562039  0
K  K2  1  0.74985444  0.48170643  0.99983559  1  0  0.938564  0  0.421489  0  0  0.884758  0  0.605347  0  0  0.901062  0  0.580872  0  0  0.77983  0.872362  0  0.623377  0
K  K3  1  0.25013866  0.51828209  0.00014715  1  0  0.938561  0  0.4215  0  0  0.884768  0  0.605331  0  0  0.901074  0  0.580856  0  0  0.779835  0.872375  0  0.623358  0
Li  Li4  1  0.92377011  0.42386771  0.32842247  1  0  0.853246  0  0.421193  0  0  0.818609  0  0.520297  0  0  0.827221  0  0.504342  0  0  0.511362  0.812507  0  0.531252  0
Li  Li5  1  0.57624805  0.09546257  0.67163738  1  0  0.853421  0  0.420914  0  0  0.818691  0  0.520138  0  0  0.827336  0  0.504163  0  0  0.511302  0.812559  0  0.531131  0
Li  Li6  1  0.07622959  0.57613521  0.67157969  1  0  0.853237  0  0.4212  0  0  0.818609  0  0.520287  0  0  0.827222  0  0.504331  0  0  0.51136  0.812509  0  0.53124  0
Li  Li7  1  0.42375172  0.90453555  0.32836172  1  0  0.853432  0  0.420888  0  0  0.818704  0  0.520109  0  0  0.827349  0  0.504133  0  0  0.511317  0.812572  0  0.531101  0
H  H8  1  0.91999201  0.75059301  0.75897850  1  0  0.366085  0  0.923086  0  0  0.343993  0  0.994001  0  0  0.354718  0  0.981251  0  0  0.304697  0.336179  0  1.00323  0
H  H9  1  0.58000975  0.99158794  0.24099258  1  0  0.365917  0  0.924501  0  0  0.343676  0  0.995363  0  0  0.354407  0  0.982588  0  0  0.304409  0.335869  0  1.004569  0
H  H10  1  0.08000830  0.24940751  0.24102186  1  0  0.366078  0  0.92305  0  0  0.343984  0  0.993972  0  0  0.35471  0  0.981222  0  0  0.304682  0.33617  0  1.003203  0
H  H11  1  0.41999029  0.00841139  0.75900811  1  0  0.365913  0  0.92451  0  0  0.343672  0  0.995374  0  0  0.354403  0  0.982598  0  0  0.304409  0.335865  0  1.00458  0
H  H12  1  0.11776515  0.12297893  0.67917495  1  0  0.372023  0  0.913802  0  0  0.349516  0  0.986351  0  0  0.359126  0  0.975254  0  0  0.302824  0.342842  0  0.993968  0
H  H13  1  0.38226349  0.44372907  0.32080235  1  0  0.372129  0  0.913286  0  0  0.34975  0  0.985774  0  0  0.359367  0  0.974667  0  0  0.302813  0.343036  0  0.993507  0
H  H14  1  0.88223576  0.87701919  0.32082553  1  0  0.372025  0  0.913749  0  0  0.349495  0  0.986337  0  0  0.359106  0  0.975238  0  0  0.302811  0.342822  0  0.993953  0
H  H15  1  0.61773682  0.55627145  0.67919801  1  0  0.372134  0  0.91327  0  0  0.34976  0  0.985749  0  0  0.359378  0  0.97464  0  0  0.302821  0.343046  0  0.993482  0
H  H16  1  0.73451247  0.85629474  0.59912774  1  0  0.069635  0  0.931287  0  0  0.075089  0  0.998897  0  0  0.077858  0  0.996575  0  0  0.12514  0.073039  0  1.000628  0
H  H17  1  0.76555502  0.25711254  0.40094172  1  0  0.069653  0  0.932344  0  0  0.074658  0  1.000166  0  0  0.077431  0  0.997832  0  0  0.125003  0.072618  0  1.001899  0
H  H18  1  0.26548784  0.14370578  0.40087455  1  0  0.069637  0  0.931311  0  0  0.075076  0  0.99891  0  0  0.077844  0  0.996586  0  0  0.125132  0.073026  0  1.00064  0
H  H19  1  0.23444475  0.74288559  0.59905738  1  0  0.069591  0  0.932347  0  0  0.07463  0  1.000141  0  0  0.077403  0  0.997806  0  0  0.124978  0.07259  0  1.001874  0
H  H20  1  0.85661157  0.04645290  0.56858984  1  0  0.067306  0  0.919096  0  0  0.075857  0  0.980789  0  0  0.077619  0  0.979522  0  0  0.121564  0.074211  0  0.982311  0
H  H21  1  0.64341692  0.47781722  0.43143970  1  0  0.066487  0  0.919321  0  0  0.075725  0  0.98069  0  0  0.077497  0  0.979402  0  0  0.121393  0.073997  0  0.98232  0
H  H22  1  0.14338960  0.95354642  0.43141031  1  0  0.067305  0  0.919077  0  0  0.075841  0  0.980774  0  0  0.077605  0  0.979507  0  0  0.121564  0.074196  0  0.982296  0
H  H23  1  0.35658339  0.52218330  0.56856162  1  0  0.0665  0  0.919339  0  0  0.075726  0  0.980709  0  0  0.077497  0  0.979423  0  0  0.121399  0.073994  0  0.982345  0
H  H24  1  0.14788472  0.50617922  0.28848102  1  0  0.424195  0  0.883468  0  0  0.394398  0  0.945855  0  0  0.404786  0  0.930732  0  0  0.299995  0.387041  0  0.956539  0
H  H25  1  0.35205487  0.21764131  0.71149998  1  0  0.424593  0  0.882998  0  0  0.394638  0  0.945663  0  0  0.405037  0  0.930519  0  0  0.299987  0.38726  0  0.956388  0
H  H26  1  0.85211645  0.49382010  0.71152009  1  0  0.424186  0  0.883485  0  0  0.394384  0  0.945881  0  0  0.404773  0  0.930759  0  0  0.299986  0.387029  0  0.956563  0
H  H27  1  0.64794824  0.78236161  0.28850246  1  0  0.424564  0  0.883036  0  0  0.394611  0  0.9457  0  0  0.405011  0  0.930553  0  0  0.299988  0.387233  0  0.956424  0
H  H28  1  0.03807075  0.36421392  0.10718231  1  0  0.41843  0  0.899378  0  0  0.386778  0  0.963968  0  0  0.39858  0  0.947018  0  0  0.294092  0.378993  0  0.975117  0
H  H29  1  0.46188910  0.25697784  0.89283442  1  0  0.418793  0  0.898999  0  0  0.387281  0  0.963396  0  0  0.39904  0  0.946509  0  0  0.294164  0.379512  0  0.97453  0
H  H30  1  0.96192929  0.63578541  0.89281936  1  0  0.418407  0  0.899408  0  0  0.386759  0  0.963997  0  0  0.398562  0  0.947047  0  0  0.294076  0.378973  0  0.975147  0
H  H31  1  0.53811234  0.74302268  0.10716635  1  0  0.418788  0  0.899004  0  0  0.387276  0  0.963397  0  0  0.399034  0  0.94651  0  0  0.294173  0.379507  0  0.97453  0
C  C32  1  0.88171119  0.73763987  0.49199810  1  0  0.692886  0  3.830535  0  0  0.64145  0  4.13719  0  0  0.673395  0  4.128142  0  0  0.236916  0.619971  0  4.142413  0
C  C33  1  0.61830146  0.24552318  0.50805174  1  0  0.692743  0  3.829899  0  0  0.639766  0  4.138671  0  0  0.671692  0  4.12969  0  0  0.236104  0.618315  0  4.143854  0
C  C34  1  0.11828651  0.26236426  0.50800192  1  0  0.692868  0  3.830517  0  0  0.641452  0  4.137114  0  0  0.673398  0  4.128068  0  0  0.236948  0.619976  0  4.142335  0
C  C35  1  0.38169885  0.75447734  0.49194862  1  0  0.692794  0  3.829866  0  0  0.639803  0  4.138657  0  0  0.671727  0  4.129681  0  0  0.236132  0.618351  0  4.143842  0
C  C36  1  0.86133517  0.86921197  0.63771265  1  0  0.060827  0  3.655763  0  0  0.036939  0  3.907277  0  0  0.037953  0  3.914338  0  0  0.002238  0.036081  0  3.902387  0
C  C37  1  0.63874353  0.23144378  0.36237236  1  0  0.060064  0  3.65753  0  0  0.037731  0  3.908136  0  0  0.03877  0  3.915199  0  0  0.002184  0.036816  0  3.903302  0
C  C38  1  0.13866400  0.13078855  0.36228825  1  0  0.060832  0  3.655849  0  0  0.037014  0  3.907202  0  0  0.03803  0  3.914264  0  0  0.00225  0.036157  0  3.90231  0
C  C39  1  0.36125651  0.76855554  0.63762737  1  0  0.060129  0  3.657543  0  0  0.037773  0  3.908143  0  0  0.038813  0  3.915208  0  0  0.002256  0.036859  0  3.903308  0
C  C40  1  0.92970930  0.03295777  0.67374651  1  0  0.058877  0  3.65937  0  0  0.036492  0  3.911406  0  0  0.037921  0  3.91853  0  0  -0.00331  0.035305  0  3.907007  0
C  C41  1  0.57035144  0.35916194  0.32633349  1  0  0.060503  0  3.658588  0  0  0.036339  0  3.911412  0  0  0.037745  0  3.918633  0  0  -0.00314  0.035229  0  3.907019  0
C  C42  1  0.07028987  0.96704275  0.32625440  1  0  0.058832  0  3.659456  0  0  0.036482  0  3.911383  0  0  0.037905  0  3.918511  0  0  -0.003325  0.035288  0  3.906997  0
C  C43  1  0.42964886  0.64083858  0.67366687  1  0  0.060424  0  3.658708  0  0  0.036298  0  3.91148  0  0  0.037702  0  3.918704  0  0  -0.003175  0.035186  0  3.907093  0
C  C44  1  0.91921454  0.16757305  0.82549095  1  0  0.674521  0  3.864243  0  0  0.624886  0  4.169692  0  0  0.657085  0  4.161364  0  0  0.215395  0.602874  0  4.175395  0
C  C45  1  0.58084823  0.34196623  0.17455887  1  0  0.673842  0  3.866289  0  0  0.626085  0  4.169162  0  0  0.658253  0  4.160874  0  0  0.216361  0.604058  0  4.174874  0
C  C46  1  0.08078664  0.83242628  0.17451017  1  0  0.674443  0  3.864461  0  0  0.624823  0  4.169856  0  0  0.657023  0  4.16153  0  0  0.215386  0.602812  0  4.175558  0
C  C47  1  0.41915208  0.65803430  0.82544246  1  0  0.673824  0  3.866363  0  0  0.626041  0  4.169265  0  0  0.658209  0  4.160978  0  0  0.216332  0.604015  0  4.174976  0
O  O48  1  0.81613909  0.73306147  0.35551001  1  0  -0.677329  0  2.006507  0  0  -0.620902  0  2.23436  0  0  -0.645229  0  2.223326  0  0  -0.325205  -0.604151  0  2.241803  0
O  O49  1  0.68390315  0.37735050  0.64457948  1  0  -0.677326  0  2.0059  0  0  -0.620499  0  2.234455  0  0  -0.644865  0  2.223467  0  0  -0.325396  -0.603726  0  2.24187  0
O  O50  1  0.18386289  0.26694145  0.64449201  1  0  -0.677368  0  2.006462  0  0  -0.620969  0  2.234319  0  0  -0.645297  0  2.223287  0  0  -0.325271  -0.604218  0  2.241764  0
O  O51  1  0.31609890  0.62264762  0.35542045  1  0  -0.677333  0  2.005841  0  0  -0.62051  0  2.234416  0  0  -0.644874  0  2.223429  0  0  -0.325394  -0.603737  0  2.241831  0
O  O52  1  0.95905633  0.63787280  0.51280487  1  0  -0.755931  0  2.021191  0  0  -0.712198  0  2.275062  0  0  -0.73238  0  2.260025  0  0  -0.43545  -0.697829  0  2.283625  0
O  O53  1  0.54082830  0.12497327  0.48715642  1  0  -0.755985  0  2.020758  0  0  -0.71168  0  2.275351  0  0  -0.7319  0  2.260398  0  0  -0.435111  -0.69726  0  2.28379  0
O  O54  1  0.04094311  0.36212892  0.48719667  1  0  -0.755903  0  2.021227  0  0  -0.712185  0  2.275094  0  0  -0.732366  0  2.260058  0  0  -0.435434  -0.697816  0  2.283656  0
O  O55  1  0.45917174  0.87502606  0.51284331  1  0  -0.756014  0  2.0208  0  0  -0.711709  0  2.275402  0  0  -0.731928  0  2.260453  0  0  -0.435141  -0.697283  0  2.283831  0
O  O56  1  0.93635936  0.86346447  0.78422410  1  0  -0.601981  0  2.096599  0  0  -0.558949  0  2.319403  0  0  -0.573525  0  2.307597  0  0  -0.452868  -0.548118  0  2.327413  0
O  O57  1  0.56369843  0.07927031  0.21580766  1  0  -0.601563  0  2.097779  0  0  -0.558631  0  2.320726  0  0  -0.573211  0  2.308912  0  0  -0.452858  -0.547793  0  2.328747  0
O  O58  1  0.06363954  0.13653485  0.21577715  1  0  -0.601964  0  2.096532  0  0  -0.558964  0  2.319318  0  0  -0.573537  0  2.307509  0  0  -0.452859  -0.548133  0  2.327334  0
O  O59  1  0.43630161  0.92072901  0.78419207  1  0  -0.601553  0  2.097776  0  0  -0.558627  0  2.320738  0  0  -0.573206  0  2.308924  0  0  -0.452876  -0.547789  0  2.32876  0
O  O60  1  0.08514336  0.03554326  0.69251209  1  0  -0.57375  0  2.080563  0  0  -0.535672  0  2.309151  0  0  -0.549858  0  2.298053  0  0  -0.437966  -0.525698  0  2.316691  0
O  O61  1  0.41490836  0.34300004  0.30757079  1  0  -0.573616  0  2.078294  0  0  -0.536005  0  2.308175  0  0  -0.550053  0  2.296797  0  0  -0.437798  -0.526037  0  2.315733  0
O  O62  1  0.91485694  0.96445727  0.30748923  1  0  -0.57371  0  2.08054  0  0  -0.535633  0  2.309139  0  0  -0.549817  0  2.298043  0  0  -0.437951  -0.525657  0  2.316681  0
O  O63  1  0.58509168  0.65699928  0.69242990  1  0  -0.573592  0  2.078299  0  0  -0.535995  0  2.308171  0  0  -0.550035  0  2.296784  0  0  -0.437796  -0.526025  0  2.31573  0
O  O64  1  0.04367099  0.27371426  0.93888837  1  0  -0.692884  0  2.001711  0  0  -0.636436  0  2.231011  0  0  -0.660931  0  2.219443  0  0  -0.397223  -0.620045  0  2.239022  0
O  O65  1  0.45640018  0.33477748  0.06117425  1  0  -0.693166  0  2.002148  0  0  -0.637305  0  2.23057  0  0  -0.661779  0  2.219024  0  0  -0.398109  -0.6209  0  2.238585  0
O  O66  1  0.95632818  0.72628627  0.06111254  1  0  -0.692843  0  2.001708  0  0  -0.636414  0  2.231005  0  0  -0.660909  0  2.219439  0  0  -0.39721  -0.620021  0  2.239015  0
O  O67  1  0.54359986  0.66522184  0.93882548  1  0  -0.693158  0  2.002134  0  0  -0.637288  0  2.230567  0  0  -0.661761  0  2.219021  0  0  -0.398112  -0.620883  0  2.238581  0
O  O68  1  0.78812150  0.16492719  0.82799696  1  0  -0.758038  0  1.955572  0  0  -0.717793  0  2.20382  0  0  -0.739656  0  2.191264  0  0  -0.450087  -0.702839  0  2.212598  0
O  O69  1  0.71191727  0.33670326  0.17200865  1  0  -0.757627  0  1.956434  0  0  -0.717841  0  2.20345  0  0  -0.739695  0  2.190911  0  0  -0.450139  -0.702887  0  2.212227  0
O  O70  1  0.21187827  0.83507094  0.17200505  1  0  -0.757996  0  1.955733  0  0  -0.717763  0  2.203972  0  0  -0.739631  0  2.191421  0  0  -0.450069  -0.702811  0  2.21275  0
O  O71  1  0.28808304  0.66329726  0.82799170  1  0  -0.757572  0  1.956498  0  0  -0.717786  0  2.203525  0  0  -0.73964  0  2.190986  0  0  -0.450102  -0.702833  0  2.212301  0
O  O72  1  0.04876983  0.42201723  0.22347398  1  0  -0.936728  0  1.844243  0  0  -0.886651  0  2.022755  0  0  -0.904821  0  1.988488  0  0  -0.665896  -0.873209  0  2.045418  0
O  O73  1  0.45113977  0.19842484  0.77652739  1  0  -0.937508  0  1.844367  0  0  -0.887377  0  2.022686  0  0  -0.905548  0  1.988508  0  0  -0.66581  -0.873946  0  2.045353  0
O  O74  1  0.95123134  0.57798210  0.77652810  1  0  -0.936715  0  1.84427  0  0  -0.886648  0  2.02277  0  0  -0.90482  0  1.988502  0  0  -0.665887  -0.873209  0  2.045432  0
O  O75  1  0.54886308  0.80157688  0.22347346  1  0  -0.937498  0  1.84445  0  0  -0.88737  0  2.022772  0  0  -0.905543  0  1.988597  0  0  -0.665813  -0.873942  0  2.045437  0
