# generated using pymatgen
data_GdCu2H16C17I2(NO4)2
_symmetry_space_group_name_H-M   'P 1'
_cell_length_a   8.00008116
_cell_length_b   8.06181162
_cell_length_c   18.82312854
_cell_angle_alpha   86.86093314
_cell_angle_beta   85.69286121
_cell_angle_gamma   79.54736615
_symmetry_Int_Tables_number   1
_chemical_formula_structural   GdCu2H16C17I2(NO4)2
_chemical_formula_sum   'Gd2 Cu4 H32 C34 I4 N4 O16'
_cell_volume   1189.43486671
_cell_formula_units_Z   2
loop_
 _symmetry_equiv_pos_site_id
 _symmetry_equiv_pos_as_xyz
  1  'x, y, z'
loop_
 _atom_site_type_symbol
 _atom_site_label
 _atom_site_symmetry_multiplicity
 _atom_site_fract_x
 _atom_site_fract_y
 _atom_site_fract_z
 _atom_site_occupancy
 _atom_site_hle17_bader_spin_density
 _atom_site_hle17_ddec_charge
 _atom_site_hle17_ddec_spin_density
 _atom_site_hle17_ddec_sum_bond_order
 _atom_site_hle17_magmom
 _atom_site_hse06_10hf_bader_spin_density
 _atom_site_hse06_10hf_ddec_charge
 _atom_site_hse06_10hf_ddec_spin_density
 _atom_site_hse06_10hf_ddec_sum_bond_order
 _atom_site_hse06_10hf_magmom
 _atom_site_hse06_bader_spin_density
 _atom_site_hse06_ddec_charge
 _atom_site_hse06_ddec_spin_density
 _atom_site_hse06_ddec_sum_bond_order
 _atom_site_hse06_magmom
 _atom_site_pbe_bader_spin_density
 _atom_site_pbe_cm5_charge
 _atom_site_pbe_ddec_charge
 _atom_site_pbe_ddec_spin_density
 _atom_site_pbe_ddec_sum_bond_order
 _atom_site_pbe_magmom
Gd  Gd0  1  0.79244755  0.19989101  0.49387024  1  0  2.175046  0  1.732139  0  0  2.081098  0  2.082302  0  0  2.135638  0  2.028398  0  0  1.439955  2.03952  0  2.124352  0
Gd  Gd1  1  0.20752119  0.80009030  0.50612969  1  0  2.175219  0  1.731903  0  0  2.08116  0  2.082257  0  0  2.135737  0  2.028289  0  0  1.43997  2.039784  0  2.123985  0
Cu  Cu2  1  0.62098759  0.09164817  0.98337670  1  0  0.223215  0  2.269847  0  0  0.148016  0  2.757693  0  0  0.161418  0  2.699058  0  0  0.237158  0.141321  0  2.795645  0
Cu  Cu3  1  0.37902803  0.90835332  0.01663049  1  0  0.223094  0  2.269995  0  0  0.1479  0  2.757835  0  0  0.16133  0  2.699211  0  0  0.237174  0.141191  0  2.795834  0
Cu  Cu4  1  0.90066751  0.89501855  0.02201498  1  0  0.222959  0  2.246089  0  0  0.147825  0  2.729967  0  0  0.161513  0  2.671907  0  0  0.237153  0.140924  0  2.767366  0
Cu  Cu5  1  0.09935974  0.10497911  0.97798282  1  0  0.222923  0  2.246241  0  0  0.147802  0  2.73007  0  0  0.161517  0  2.672045  0  0  0.237156  0.140907  0  2.767454  0
H  H6  1  0.60514018  0.93308449  0.43322673  1  0  0.444422  0  0.855686  0  0  0.416125  0  0.914423  0  0  0.427067  0  0.898608  0  0  0.302058  0.40839  0  0.925581  0
H  H7  1  0.39482347  0.06690441  0.56677373  1  0  0.443961  0  0.856323  0  0  0.415649  0  0.915063  0  0  0.426591  0  0.89925  0  0  0.301907  0.407911  0  0.926228  0
H  H8  1  0.79885054  0.85368795  0.45197494  1  0  0.43968  0  0.865052  0  0  0.408001  0  0.929713  0  0  0.419552  0  0.913005  0  0  0.300243  0.399798  0  0.941554  0
H  H9  1  0.20111768  0.14630977  0.54802194  1  0  0.439665  0  0.865066  0  0  0.407986  0  0.929731  0  0  0.41954  0  0.913017  0  0  0.300239  0.399779  0  0.941581  0
H  H10  1  0.43641274  0.21844870  0.45250809  1  0  0.44445  0  0.810638  0  0  0.425054  0  0.867229  0  0  0.434283  0  0.853705  0  0  0.32796  0.418348  0  0.875305  0
H  H11  1  0.56355055  0.78155661  0.54749410  1  0  0.444568  0  0.810758  0  0  0.425182  0  0.867092  0  0  0.434406  0  0.853573  0  0  0.327969  0.41848  0  0.875367  0
H  H12  1  0.46239293  0.40699059  0.43187216  1  0  0.451017  0  0.843457  0  0  0.419669  0  0.90635  0  0  0.431336  0  0.889464  0  0  0.301441  0.411394  0  0.918314  0
H  H13  1  0.53759703  0.59300458  0.56812342  1  0  0.450968  0  0.843524  0  0  0.419577  0  0.906468  0  0  0.431239  0  0.889593  0  0  0.301455  0.411303  0  0.91843  0
H  H14  1  0.91105796  0.89164382  0.74395795  1  0  0.121037  0  0.945205  0  0  0.133786  0  0.999978  0  0  0.137675  0  0.998737  0  0  0.107906  0.130885  0  1.001211  0
H  H15  1  0.08893694  0.10836778  0.25604658  1  0  0.12096  0  0.94532  0  0  0.133805  0  0.999986  0  0  0.137693  0  0.998745  0  0  0.107907  0.130907  0  1.001217  0
H  H16  1  0.85742801  0.23119760  0.65755006  1  0  0.089876  0  0.961584  0  0  0.095474  0  1.033878  0  0  0.098457  0  1.031316  0  0  0.110882  0.093352  0  1.035668  0
H  H17  1  0.14255456  0.76880389  0.34244564  1  0  0.089869  0  0.961712  0  0  0.095456  0  1.033996  0  0  0.098447  0  1.031414  0  0  0.110915  0.093326  0  1.035809  0
H  H18  1  0.79486253  0.01706832  0.84345414  1  0  0.070621  0  0.972468  0  0  0.074498  0  1.050032  0  0  0.078063  0  1.045878  0  0  0.099116  0.071604  0  1.053403  0
H  H19  1  0.20514285  0.98293316  0.15654759  1  0  0.070628  0  0.972526  0  0  0.074505  0  1.050081  0  0  0.078069  0  1.045929  0  0  0.099116  0.071609  0  1.053457  0
H  H20  1  0.48154685  0.43673393  0.92647887  1  0  0.078574  0  0.958511  0  0  0.081868  0  1.033649  0  0  0.085423  0  1.030019  0  0  0.096496  0.078921  0  1.036696  0
H  H21  1  0.51848026  0.56327387  0.07352984  1  0  0.078505  0  0.9584  0  0  0.081824  0  1.033544  0  0  0.085381  0  1.029904  0  0  0.096437  0.078891  0  1.036562  0
H  H22  1  0.51604771  0.61035796  0.81417952  1  0  0.107114  0  0.942271  0  0  0.117805  0  0.998287  0  0  0.121559  0  0.996924  0  0  0.1016  0.115005  0  0.99952  0
H  H23  1  0.48396660  0.38964353  0.18582612  1  0  0.106986  0  0.942375  0  0  0.117729  0  0.998339  0  0  0.121485  0  0.996974  0  0  0.10155  0.114932  0  0.999567  0
H  H24  1  0.69622147  0.47319450  0.70985652  1  0  0.103814  0  0.930533  0  0  0.117413  0  0.983015  0  0  0.120648  0  0.980403  0  0  0.109944  0.114926  0  0.985157  0
H  H25  1  0.30376956  0.52680321  0.29014639  1  0  0.103704  0  0.930419  0  0  0.117336  0  0.982903  0  0  0.120568  0  0.980298  0  0  0.109945  0.114922  0  0.984952  0
H  H26  1  0.36055140  0.48665706  0.66366698  1  0  0.133526  0  0.932825  0  0  0.14527  0  0.986322  0  0  0.149002  0  0.984905  0  0  0.118644  0.142584  0  0.987567  0
H  H27  1  0.63943113  0.51335201  0.33633012  1  0  0.133587  0  0.932882  0  0  0.14529  0  0.986399  0  0  0.149019  0  0.984981  0  0  0.118675  0.142607  0  0.987652  0
H  H28  1  0.37265302  0.11022461  0.70721368  1  0  0.101467  0  0.918242  0  0  0.116057  0  0.970621  0  0  0.119175  0  0.968205  0  0  0.113578  0.113647  0  0.972639  0
H  H29  1  0.62736119  0.88977558  0.29278296  1  0  0.101523  0  0.918265  0  0  0.116126  0  0.97061  0  0  0.119243  0  0.968191  0  0  0.113596  0.113717  0  0.972628  0
H  H30  1  0.11572314  0.55833729  0.72095650  1  0  0.11519  0  0.952688  0  0  0.124445  0  1.014127  0  0  0.128388  0  1.010208  0  0  0.108159  0.121549  0  1.017111  0
H  H31  1  0.88430486  0.44167176  0.27904842  1  0  0.115107  0  0.952862  0  0  0.124461  0  1.014177  0  0  0.128404  0  1.010259  0  0  0.108149  0.121559  0  1.017174  0
H  H32  1  0.92763621  0.64686116  0.83040935  1  0  0.094071  0  0.976288  0  0  0.102507  0  1.040451  0  0  0.105623  0  1.039371  0  0  0.089759  0.100182  0  1.041421  0
H  H33  1  0.07241427  0.35314914  0.16959840  1  0  0.094013  0  0.976132  0  0  0.102458  0  1.040339  0  0  0.105577  0  1.039246  0  0  0.08975  0.100138  0  1.04131  0
H  H34  1  0.92109931  0.44558854  0.93478192  1  0  0.076289  0  0.963677  0  0  0.081053  0  1.037997  0  0  0.084127  0  1.034979  0  0  0.094889  0.078388  0  1.040729  0
H  H35  1  0.07893356  0.55441418  0.06522244  1  0  0.076172  0  0.963792  0  0  0.080953  0  1.03809  0  0  0.084024  0  1.035077  0  0  0.094852  0.07833  0  1.040788  0
H  H36  1  0.26033536  0.07189642  0.83090814  1  0  0.075715  0  0.954937  0  0  0.080129  0  1.029135  0  0  0.083764  0  1.025464  0  0  0.101814  0.077317  0  1.031951  0
H  H37  1  0.73966621  0.92809748  0.16908968  1  0  0.075703  0  0.954885  0  0  0.080104  0  1.029094  0  0  0.08374  0  1.025425  0  0  0.101807  0.077297  0  1.031913  0
C  C38  1  0.98695851  0.91369076  0.63057064  1  0  0.722575  0  3.887344  0  0  0.684142  0  4.172494  0  0  0.72066  0  4.162054  0  0  0.209018  0.659272  0  4.17882  0
C  C39  1  0.01301838  0.08630192  0.36943294  1  0  0.722629  0  3.887009  0  0  0.684067  0  4.172381  0  0  0.720587  0  4.161951  0  0  0.208955  0.659187  0  4.17871  0
C  C40  1  0.90907439  0.98233643  0.69865275  1  0  -0.233804  0  3.638038  0  0  -0.243471  0  3.881936  0  0  -0.257144  0  3.898707  0  0  -0.09351  -0.234849  0  3.871241  0
C  C41  1  0.09091462  0.01766506  0.30134749  1  0  -0.233806  0  3.638151  0  0  -0.243516  0  3.882042  0  0  -0.257194  0  3.898819  0  0  -0.093514  -0.234893  0  3.87135  0
C  C42  1  0.84601416  0.14825399  0.70488900  1  0  -0.010852  0  3.719332  0  0  -0.041567  0  3.975954  0  0  -0.035883  0  3.995866  0  0  -0.062965  -0.045194  0  3.962597  0
C  C43  1  0.15397567  0.85175003  0.29511167  1  0  -0.010828  0  3.71946  0  0  -0.04151  0  3.976039  0  0  -0.035827  0  3.995957  0  0  -0.062985  -0.045138  0  3.962685  0
C  C44  1  0.75720087  0.23226145  0.76703765  1  0  0.015927  0  3.812491  0  0  0.042454  0  4.042022  0  0  0.035212  0  4.068839  0  0  -0.010866  0.047034  0  4.023953  0
C  C45  1  0.24279886  0.76774383  0.23296527  1  0  0.015897  0  3.812576  0  0  0.042415  0  4.042103  0  0  0.035171  0  4.068918  0  0  -0.01091  0.046993  0  4.024045  0
C  C46  1  0.73472509  0.14824980  0.83337601  1  0  0.098565  0  3.628839  0  0  0.063157  0  3.869875  0  0  0.070272  0  3.886584  0  0  0.047676  0.058365  0  3.859298  0
C  C47  1  0.26528403  0.85175168  0.16662504  1  0  0.098417  0  3.628949  0  0  0.063017  0  3.86997  0  0  0.070133  0  3.886677  0  0  0.047628  0.058233  0  3.859391  0
C  C48  1  0.56089065  0.38385816  0.88054260  1  0  0.133357  0  3.654684  0  0  0.101874  0  3.905746  0  0  0.109823  0  3.922071  0  0  0.039774  0.09632  0  3.895861  0
C  C49  1  0.43912695  0.61614584  0.11946231  1  0  0.133391  0  3.654519  0  0  0.10187  0  3.905612  0  0  0.109815  0  3.921939  0  0  0.039829  0.096311  0  3.895748  0
C  C50  1  0.57981797  0.47897821  0.81746946  1  0  -0.116812  0  3.756701  0  0  -0.128015  0  4.007743  0  0  -0.135846  0  4.029437  0  0  -0.089214  -0.123232  0  3.99372  0
C  C51  1  0.42019533  0.52102832  0.18253290  1  0  -0.116596  0  3.756659  0  0  -0.127852  0  4.007715  0  0  -0.135683  0  4.029412  0  0  -0.089109  -0.123077  0  3.993718  0
C  C52  1  0.67974259  0.40318200  0.76036212  1  0  -0.050163  0  3.699236  0  0  -0.075966  0  3.945262  0  0  -0.072136  0  3.964256  0  0  -0.066774  -0.078158  0  3.932308  0
C  C53  1  0.32025962  0.59682328  0.23964017  1  0  -0.050111  0  3.698943  0  0  -0.075954  0  3.945055  0  0  -0.072128  0  3.964052  0  0  -0.066779  -0.078197  0  3.932087  0
C  C54  1  0.53249813  0.28954186  0.60775336  1  0  0.686492  0  3.909398  0  0  0.638445  0  4.209651  0  0  0.674103  0  4.200396  0  0  0.200209  0.614297  0  4.215041  0
C  C55  1  0.46748628  0.71045583  0.39224024  1  0  0.686547  0  3.909343  0  0  0.63842  0  4.209685  0  0  0.674078  0  4.200439  0  0  0.200278  0.614266  0  4.21508  0
C  C56  1  0.39535474  0.34998276  0.66091299  1  0  -0.229788  0  3.676082  0  0  -0.244231  0  3.937296  0  0  -0.256607  0  3.953628  0  0  -0.094631  -0.236348  0  3.926687  0
C  C57  1  0.60463536  0.65001744  0.33907661  1  0  -0.229812  0  3.676315  0  0  -0.244185  0  3.937555  0  0  -0.256554  0  3.953882  0  0  -0.094648  -0.236306  0  3.92694  0
C  C58  1  0.32740197  0.24646049  0.70894280  1  0  -0.012008  0  3.697074  0  0  -0.041372  0  3.946831  0  0  -0.035849  0  3.964947  0  0  -0.062474  -0.045057  0  3.93487  0
C  C59  1  0.67259966  0.75354729  0.29105572  1  0  -0.012045  0  3.697341  0  0  -0.041448  0  3.947044  0  0  -0.035924  0  3.965159  0  0  -0.062516  -0.045143  0  3.935079  0
C  C60  1  0.20669408  0.30716474  0.76749016  1  0  0.02543  0  3.821248  0  0  0.051356  0  4.053713  0  0  0.044868  0  4.080531  0  0  -0.009598  0.055561  0  4.035635  0
C  C61  1  0.79332592  0.69283926  0.23251148  1  0  0.02529  0  3.82163  0  0  0.051313  0  4.054003  0  0  0.044829  0  4.080817  0  0  -0.009537  0.055524  0  4.035915  0
C  C62  1  0.11019745  0.47181023  0.76744858  1  0  -0.054645  0  3.657332  0  0  -0.080655  0  3.899848  0  0  -0.076741  0  3.916268  0  0  -0.068841  -0.083232  0  3.888959  0
C  C63  1  0.88983474  0.52820387  0.23255818  1  0  -0.05449  0  3.657227  0  0  -0.08064  0  3.899741  0  0  -0.076727  0  3.916164  0  0  -0.06877  -0.083205  0  3.888842  0
C  C64  1  0.00617930  0.52175188  0.82761095  1  0  -0.112526  0  3.78126  0  0  -0.12061  0  4.027954  0  0  -0.127972  0  4.050121  0  0  -0.09311  -0.116212  0  4.013838  0
C  C65  1  0.99386379  0.47826345  0.17239110  1  0  -0.112356  0  3.780564  0  0  -0.120454  0  4.027263  0  0  -0.127816  0  4.04944  0  0  -0.093096  -0.116068  0  4.013167  0
C  C66  1  0.00072300  0.40962435  0.88646966  1  0  0.135317  0  3.652255  0  0  0.102503  0  3.901341  0  0  0.110298  0  3.918082  0  0  0.038762  0.096918  0  3.89137  0
C  C67  1  0.99930515  0.59038342  0.11353316  1  0  0.135358  0  3.65234  0  0  0.102573  0  3.901373  0  0  0.110363  0  3.918117  0  0  0.038718  0.096959  0  3.891387  0
C  C68  1  0.18991003  0.20139653  0.82827840  1  0  0.081172  0  3.639948  0  0  0.044157  0  3.884959  0  0  0.049635  0  3.903149  0  0  0.04363  0.04034  0  3.873521  0
C  C69  1  0.81010775  0.79860493  0.17171914  1  0  0.08136  0  3.639908  0  0  0.044341  0  3.884872  0  0  0.049796  0  3.903101  0  0  0.043694  0.040516  0  3.87345  0
C  C70  1  0.93293413  0.55687395  0.47796506  1  0  0.569125  0  3.901206  0  0  0.526087  0  4.198779  0  0  0.556152  0  4.189593  0  0  0.227151  0.505585  0  4.204246  0
C  C71  1  0.06704095  0.44310982  0.52201438  1  0  0.569856  0  3.900918  0  0  0.526827  0  4.198457  0  0  0.556898  0  4.189262  0  0  0.227293  0.506318  0  4.203941  0
I  I72  1  0.82768502  0.20519018  0.06551962  1  0  -0.345263  0  1.743355  0  0  -0.293816  0  2.190098  0  0  -0.311408  0  2.149399  0  0  -0.175576  -0.280149  0  2.216131  0
I  I73  1  0.17234830  0.79481002  0.93448479  1  0  -0.3452  0  1.74345  0  0  -0.29375  0  2.190197  0  0  -0.311367  0  2.149531  0  0  -0.175564  -0.28007  0  2.216218  0
I  I74  1  0.32812335  0.22630217  0.04774822  1  0  -0.350928  0  1.813409  0  0  -0.30212  0  2.280838  0  0  -0.318898  0  2.237449  0  0  -0.167718  -0.289275  0  2.308952  0
I  I75  1  0.67189025  0.77370310  0.95225628  1  0  -0.350871  0  1.813369  0  0  -0.302091  0  2.280867  0  0  -0.318855  0  2.237463  0  0  -0.167686  -0.289243  0  2.308969  0
N  N76  1  0.63879164  0.22127045  0.88865204  1  0  -0.255522  0  3.362146  0  0  -0.18076  0  3.643282  0  0  -0.195187  0  3.654093  0  0  -0.356242  -0.172302  0  3.636939  0
N  N77  1  0.36122436  0.77872851  0.11135307  1  0  -0.255339  0  3.362  0  0  -0.180572  0  3.643115  0  0  -0.194998  0  3.65393  0  0  -0.356213  -0.172117  0  3.636795  0
N  N78  1  0.09080736  0.25133603  0.88693595  1  0  -0.253391  0  3.367878  0  0  -0.176142  0  3.64651  0  0  -0.190811  0  3.659093  0  0  -0.357006  -0.16739  0  3.638843  0
N  N79  1  0.90920770  0.74866040  0.11306554  1  0  -0.253564  0  3.367895  0  0  -0.176378  0  3.646646  0  0  -0.191033  0  3.659202  0  0  -0.357062  -0.167627  0  3.63901  0
O  O80  1  0.80753865  0.49758244  0.46130289  1  0  -0.605565  0  2.056692  0  0  -0.566829  0  2.296671  0  0  -0.590754  0  2.290392  0  0  -0.335663  -0.54984  0  2.300646  0
O  O81  1  0.19243375  0.50240260  0.53867821  1  0  -0.605916  0  2.056724  0  0  -0.56724  0  2.29681  0  0  -0.591169  0  2.290522  0  0  -0.335816  -0.550279  0  2.300796  0
O  O82  1  0.94540836  0.98889538  0.57027543  1  0  -0.801833  0  2.115737  0  0  -0.754987  0  2.368791  0  0  -0.783216  0  2.358494  0  0  -0.426798  -0.734537  0  2.375124  0
O  O83  1  0.05456906  0.01108720  0.42972785  1  0  -0.801836  0  2.115504  0  0  -0.754982  0  2.368711  0  0  -0.783183  0  2.358352  0  0  -0.42683  -0.734534  0  2.375035  0
O  O84  1  0.56517575  0.13693120  0.58783055  1  0  -0.700787  0  2.018525  0  0  -0.647858  0  2.244585  0  0  -0.674183  0  2.235087  0  0  -0.353265  -0.629347  0  2.250634  0
O  O85  1  0.43479525  0.86307156  0.41216397  1  0  -0.700904  0  2.018498  0  0  -0.647988  0  2.244689  0  0  -0.674317  0  2.235188  0  0  -0.353325  -0.629499  0  2.250726  0
O  O86  1  0.70556315  0.95434099  0.45771265  1  0  -0.932624  0  1.864252  0  0  -0.887902  0  2.056917  0  0  -0.9095  0  2.024314  0  0  -0.657628  -0.872215  0  2.079868  0
O  O87  1  0.29440698  0.04564664  0.54228760  1  0  -0.93217  0  1.864593  0  0  -0.887387  0  2.057278  0  0  -0.908998  0  2.024699  0  0  -0.657442  -0.87172  0  2.080197  0
O  O88  1  0.52331771  0.28707855  0.43890605  1  0  -0.886693  0  1.806387  0  0  -0.844231  0  1.987562  0  0  -0.863287  0  1.955263  0  0  -0.62951  -0.830409  0  2.008759  0
O  O89  1  0.47665813  0.71291286  0.56109707  1  0  -0.886768  0  1.80656  0  0  -0.84426  0  1.987616  0  0  -0.863316  0  1.955327  0  0  -0.629516  -0.830475  0  2.008986  0
O  O90  1  0.09897035  0.77928301  0.63063923  1  0  -0.683563  0  1.926399  0  0  -0.643561  0  2.150655  0  0  -0.668974  0  2.139919  0  0  -0.3699  -0.625618  0  2.157643  0
O  O91  1  0.90099980  0.22070590  0.36936737  1  0  -0.68343  0  1.926175  0  0  -0.6434  0  2.150474  0  0  -0.668813  0  2.139748  0  0  -0.369817  -0.625423  0  2.15747  0
O  O92  1  0.62799628  0.39370370  0.58084587  1  0  -0.725391  0  2.030457  0  0  -0.67278  0  2.26483  0  0  -0.700076  0  2.254134  0  0  -0.368971  -0.65343  0  2.271637  0
O  O93  1  0.37199957  0.60628769  0.41915489  1  0  -0.725462  0  2.030441  0  0  -0.672808  0  2.264847  0  0  -0.700113  0  2.254151  0  0  -0.368973  -0.653495  0  2.27167  0
O  O94  1  0.96315365  0.70549158  0.46258290  1  0  -0.674103  0  2.13122  0  0  -0.623514  0  2.367458  0  0  -0.649418  0  2.35815  0  0  -0.354855  -0.605143  0  2.37345  0
O  O95  1  0.03682535  0.29449220  0.53740063  1  0  -0.67418  0  2.131276  0  0  -0.623608  0  2.367499  0  0  -0.649509  0  2.358189  0  0  -0.354718  -0.605199  0  2.373495  0
