# generated using pymatgen
data_InH15C16(NO2)4
_symmetry_space_group_name_H-M   'P 1'
_cell_length_a   14.30047126
_cell_length_b   18.68392743
_cell_length_c   18.68404969
_cell_angle_alpha   113.71862230
_cell_angle_beta   104.78559628
_cell_angle_gamma   104.78591814
_symmetry_Int_Tables_number   1
_chemical_formula_structural   InH15C16(NO2)4
_chemical_formula_sum   'In6 H90 C96 N24 O48'
_cell_volume   4041.94165168
_cell_formula_units_Z   6
loop_
 _symmetry_equiv_pos_site_id
 _symmetry_equiv_pos_as_xyz
  1  'x, y, z'
loop_
 _atom_site_type_symbol
 _atom_site_label
 _atom_site_symmetry_multiplicity
 _atom_site_fract_x
 _atom_site_fract_y
 _atom_site_fract_z
 _atom_site_occupancy
 _atom_site_pbe_bader_charge
 _atom_site_pbe_bader_spin_density
 _atom_site_pbe_cm5_charge
 _atom_site_pbe_ddec_charge
 _atom_site_pbe_ddec_spin_density
 _atom_site_pbe_ddec_sum_bond_order
 _atom_site_pbe_magmom
In  In0  1  0.39741410  0.57335250  0.07366629  1  1.887876  0  0.767734  1.309865  0  2.744062  0
In  In1  1  0.32369668  0.92636206  0.49981559  1  1.888993  0  0.768018  1.310349  0  2.743691  0
In  In2  1  0.82406027  0.50016881  0.42663763  1  1.886531  0  0.768101  1.310868  0  2.743814  0
In  In3  1  0.82368828  0.49981066  0.92635689  1  1.889045  0  0.767974  1.310286  0  2.743736  0
In  In4  1  0.32405883  0.42663900  0.50016583  1  1.886533  0  0.768112  1.31087  0  2.74386  0
In  In5  1  0.89742771  0.07366195  0.57335177  1  1.888227  0  0.767762  1.309917  0  2.744145  0
H  H6  1  0.34864278  0.67662334  0.23610923  1  0.156632  0  0.129163  0.105289  0  1.015931  0
H  H7  1  0.11265540  0.76381754  0.44065196  1  0.152784  0  0.129352  0.105699  0  1.015793  0
H  H8  1  0.67206234  0.55926366  0.32325658  1  0.170227  0  0.129283  0.105416  0  1.014709  0
H  H9  1  0.61265256  0.44064876  0.76381671  1  0.152463  0  0.129339  0.105683  0  1.015762  0
H  H10  1  0.17206500  0.32325901  0.55925990  1  0.170415  0  0.129318  0.105434  0  1.014784  0
H  H11  1  0.84864792  0.23610811  0.67662288  1  0.156553  0  0.129235  0.105451  0  1.01582  0
H  H12  1  0.52562190  0.94695831  0.34747314  1  0.126062  0  0.117157  0.12163  0  0.997762  0
H  H13  1  0.17811562  0.65267530  0.59985700  1  0.116881  0  0.116918  0.121519  0  0.997588  0
H  H14  1  0.57847271  0.40028620  0.05293470  1  0.120911  0  0.116704  0.12108  0  0.997463  0
H  H15  1  0.67811024  0.59985561  0.65267867  1  0.116909  0  0.116932  0.121563  0  0.997601  0
H  H16  1  0.07847220  0.05293265  0.40028328  1  0.120911  0  0.116715  0.121116  0  0.997471  0
H  H17  1  0.02561763  0.34747079  0.94695939  1  0.125682  0  0.117172  0.121605  0  0.997788  0
H  H18  1  0.61235277  0.91252510  0.24688375  1  0.098371  0  0.115791  0.122096  0  0.997851  0
H  H19  1  0.36550126  0.75337829  0.66608718  1  0.098311  0  0.116127  0.122327  0  0.99844  0
H  H20  1  0.69967693  0.33412191  0.08735761  1  0.095052  0  0.116275  0.122289  0  0.99823  0
H  H21  1  0.86550097  0.66608877  0.75337861  1  0.09828  0  0.116159  0.122417  0  0.998384  0
H  H22  1  0.19967716  0.08735451  0.33411839  1  0.094954  0  0.116256  0.122269  0  0.998179  0
H  H23  1  0.11235161  0.24688354  0.91252911  1  0.098319  0  0.115764  0.122053  0  0.99791  0
H  H24  1  0.69433744  0.87415404  0.17235360  1  0.112337  0  0.118162  0.125424  0  0.985469  0
H  H25  1  0.52206113  0.82758235  0.70183720  1  0.070807  0  0.117799  0.125103  0  0.984619  0
H  H26  1  0.82033848  0.29831527  0.12574033  1  0.087453  0  0.118046  0.125123  0  0.985002  0
H  H27  1  0.02205269  0.70183549  0.82758318  1  0.070649  0  0.117777  0.125106  0  0.984706  0
H  H28  1  0.32033679  0.12573849  0.29831083  1  0.087427  0  0.118003  0.125112  0  0.98499  0
H  H29  1  0.19433038  0.17234432  0.87415400  1  0.11232  0  0.118086  0.125411  0  0.985476  0
H  H30  1  0.79937732  0.81645492  0.09257108  1  0.129935  0  0.122271  0.125762  0  0.965835  0
H  H31  1  0.70689980  0.90724374  0.72374523  1  0.13059  0  0.122255  0.125891  0  0.965395  0
H  H32  1  0.98308970  0.27621952  0.18344820  1  0.120586  0  0.121756  0.125181  0  0.96704  0
H  H33  1  0.20689123  0.72374952  0.90724430  1  0.130575  0  0.122294  0.125921  0  0.965368  0
H  H34  1  0.48309020  0.18344613  0.27621774  1  0.120507  0  0.121747  0.125157  0  0.96708  0
H  H35  1  0.29938158  0.09257191  0.81646848  1  0.130019  0  0.122277  0.125766  0  0.965914  0
H  H36  1  0.57869989  0.56343096  0.00319011  1  0.124406  0  0.129066  0.104044  0  0.999124  0
H  H37  1  0.57552343  0.99675340  0.56024974  1  0.125927  0  0.129043  0.103431  0  0.999422  0
H  H38  1  0.01526599  0.43951050  0.43647765  1  0.172888  0  0.128962  0.103758  0  0.998925  0
H  H39  1  0.07551795  0.56024761  0.99674944  1  0.125927  0  0.129054  0.103459  0  0.999452  0
H  H40  1  0.51526683  0.43647508  0.43950517  1  0.172946  0  0.128956  0.10371  0  0.998974  0
H  H41  1  0.07871761  0.00319699  0.56344089  1  0.124099  0  0.129099  0.10405  0  0.998905  0
H  H42  1  0.41167860  0.47374718  0.74255611  1  0.101968  0  0.103558  0.120443  0  1.029298  0
H  H43  1  0.66883610  0.25746968  0.73119100  1  0.055859  0  0.103984  0.120907  0  1.029838  0
H  H44  1  0.93812802  0.26889294  0.52628084  1  0.067504  0  0.103858  0.120929  0  1.026511  0
H  H45  1  0.16883559  0.73119488  0.25747177  1  0.055846  0  0.103991  0.120944  0  1.029795  0
H  H46  1  0.43812925  0.52628160  0.26889221  1  0.067475  0  0.103874  0.120961  0  1.026408  0
H  H47  1  0.91167671  0.74255592  0.47374669  1  0.101992  0  0.103574  0.120492  0  1.029249  0
H  H48  1  0.44398528  0.54711497  0.85273885  1  0.084165  0  0.106142  0.121878  0  0.998292  0
H  H49  1  0.59097602  0.14725020  0.69431843  1  0.08617  0  0.106065  0.121754  0  0.997717  0
H  H50  1  0.89708242  0.30579372  0.45297404  1  0.084763  0  0.106247  0.122099  0  0.999026  0
H  H51  1  0.09097262  0.69432229  0.14725247  1  0.086102  0  0.106057  0.121761  0  0.997731  0
H  H52  1  0.39708385  0.45297444  0.30579227  1  0.084779  0  0.10624  0.12207  0  0.999072  0
H  H53  1  0.94398325  0.85273937  0.54711465  1  0.084151  0  0.106145  0.121906  0  0.998282  0
H  H54  1  0.31100009  0.49424554  0.77611635  1  0.076092  0  0.104121  0.124793  0  0.993753  0
H  H55  1  0.53451458  0.22378751  0.71790849  1  0.081148  0  0.104456  0.125437  0  0.993426  0
H  H56  1  0.81705427  0.28211647  0.50589918  1  0.090534  0  0.10429  0.125256  0  0.993796  0
H  H57  1  0.03451188  0.71791195  0.22379013  1  0.081173  0  0.104464  0.125484  0  0.993405  0
H  H58  1  0.31705362  0.50589822  0.28211569  1  0.090244  0  0.104288  0.125236  0  0.993804  0
H  H59  1  0.81099631  0.77611621  0.49424378  1  0.076025  0  0.104161  0.124844  0  0.993665  0
H  H60  1  0.39953630  0.34452751  0.70616225  1  0.095433  0  0.109048  0.139238  0  1.00821  0
H  H61  1  0.69341154  0.29376829  0.63831180  1  0.101331  0  0.108941  0.139066  0  1.008686  0
H  H62  1  0.05534051  0.36174652  0.65563612  1  0.099936  0  0.108958  0.139094  0  1.006888  0
H  H63  1  0.19341189  0.63831555  0.29376670  1  0.101264  0  0.108926  0.13906  0  1.008683  0
H  H64  1  0.55534072  0.65563915  0.36174701  1  0.099937  0  0.108969  0.139126  0  1.006914  0
H  H65  1  0.89953278  0.70616386  0.34452663  1  0.095519  0  0.109079  0.139281  0  1.00814  0
H  H66  1  0.27043219  0.29710405  0.70029009  1  0.092915  0  0.098928  0.121435  0  1.007293  0
H  H67  1  0.57028361  0.29970919  0.59667308  1  0.077134  0  0.098771  0.12063  0  1.006204  0
H  H68  1  0.97358880  0.40326478  0.70295077  1  0.082272  0  0.099066  0.121615  0  1.005506  0
H  H69  1  0.07028654  0.59667612  0.29970896  1  0.077011  0  0.098808  0.120682  0  1.006167  0
H  H70  1  0.47358756  0.70295276  0.40326420  1  0.082205  0  0.099057  0.1216  0  1.005484  0
H  H71  1  0.77043153  0.70029249  0.29710593  1  0.093052  0  0.098927  0.121409  0  1.00736  0
H  H72  1  0.38312811  0.29626631  0.76949367  1  0.064039  0  0.105414  0.120508  0  1.02314  0
H  H73  1  0.61375195  0.23042315  0.52671655  1  0.079305  0  0.10495  0.119879  0  1.023464  0
H  H74  1  0.08720529  0.47333060  0.70391722  1  0.088827  0  0.105719  0.120633  0  1.023731  0
H  H75  1  0.11375081  0.52671637  0.23042105  1  0.07924  0  0.104958  0.119909  0  1.023423  0
H  H76  1  0.58720296  0.70391808  0.47332932  1  0.088863  0  0.105731  0.120626  0  1.023755  0
H  H77  1  0.88312614  0.76949509  0.29626774  1  0.064063  0  0.105414  0.120503  0  1.023086  0
H  H78  1  0.27361599  0.29893324  0.84979050  1  0.054343  0  0.095523  0.142533  0  1.023045  0
H  H79  1  0.42374688  0.15020496  0.44904158  1  0.041025  0  0.095672  0.142753  0  1.0226  0
H  H80  1  0.97478895  0.55093526  0.70118813  1  0.036197  0  0.095832  0.142874  0  1.023475  0
H  H81  1  0.92374231  0.44904304  0.15020350  1  0.041034  0  0.095696  0.142784  0  1.022536  0
H  H82  1  0.47478446  0.70118604  0.55093317  1  0.036193  0  0.095822  0.142829  0  1.023545  0
H  H83  1  0.77362084  0.84979470  0.29893925  1  0.054505  0  0.09549  0.142457  0  1.023065  0
H  H84  1  0.33972658  0.37193501  0.96252436  1  0.10511  0  0.102069  0.166984  0  1.032712  0
H  H85  1  0.37708718  0.03745289  0.40930048  1  0.122044  0  0.101993  0.167256  0  1.030823  0
H  H86  1  0.96800257  0.59070687  0.62822716  1  0.112399  0  0.101831  0.166192  0  1.032172  0
H  H87  1  0.87708962  0.40930100  0.03745362  1  0.122162  0  0.101988  0.167258  0  1.030848  0
H  H88  1  0.46800111  0.62822426  0.59070406  1  0.112473  0  0.101869  0.166218  0  1.032176  0
H  H89  1  0.83973405  0.96252942  0.37193814  1  0.105022  0  0.102074  0.166938  0  1.032739  0
H  H90  1  0.41159486  0.33213134  0.90191013  1  0.121066  0  0.101894  0.160788  0  1.022252  0
H  H91  1  0.50961326  0.09810105  0.43015180  1  0.093743  0  0.101884  0.160414  0  1.02452  0
H  H92  1  0.07973345  0.56996737  0.66816360  1  0.076642  0  0.101909  0.160599  0  1.023248  0
H  H93  1  0.00961168  0.43015590  0.09810536  1  0.093704  0  0.101866  0.160412  0  1.02456  0
H  H94  1  0.57973067  0.66816432  0.56996586  1  0.076697  0  0.101921  0.160605  0  1.023188  0
H  H95  1  0.91159665  0.90191103  0.33213126  1  0.121033  0  0.101878  0.160738  0  1.022275  0
C  C96  1  0.40652654  0.73033009  0.23994926  1  0.466587  0  0.074786  0.102355  0  3.887461  0
C  C97  1  0.16673271  0.76002794  0.49053970  1  0.504685  0  0.074092  0.100202  0  3.890592  0
C  C98  1  0.67627241  0.50942918  0.26956749  1  0.489295  0  0.073955  0.100988  0  3.889574  0
C  C99  1  0.66672780  0.49053997  0.76002983  1  0.504423  0  0.07411  0.10025  0  3.890619  0
C  C100  1  0.17626904  0.26956635  0.50942333  1  0.489202  0  0.073938  0.100911  0  3.88963  0
C  C101  1  0.90652927  0.23994877  0.73033340  1  0.466652  0  0.074664  0.102062  0  3.887344  0
C  C102  1  0.43216124  0.81421901  0.30124417  1  0.009532  0  -0.002913  -0.063424  0  3.934748  0
C  C103  1  0.13106016  0.69877840  0.51318329  1  -0.042126  0  -0.002877  -0.062087  0  3.936195  0
C  C104  1  0.61794175  0.48682989  0.18568394  1  -0.013926  0  -0.003604  -0.064139  0  3.936892  0
C  C105  1  0.63105896  0.51318530  0.69878251  1  -0.042162  0  -0.002781  -0.061977  0  3.936014  0
C  C106  1  0.11794113  0.18568368  0.48682762  1  -0.013932  0  -0.0036  -0.0641  0  3.937046  0
C  C107  1  0.93215754  0.30124089  0.81422020  1  0.009785  0  -0.002875  -0.06321  0  3.934562  0
C  C108  1  0.50470153  0.88064807  0.30152468  1  0.011717  0  -0.048249  -0.014381  0  3.889174  0
C  C109  1  0.20322499  0.69859322  0.57946491  1  0.033357  0  -0.047794  -0.014495  0  3.889741  0
C  C110  1  0.62387179  0.42060136  0.11923489  1  0.011623  0  -0.047544  -0.013304  0  3.888211  0
C  C111  1  0.70322311  0.57946608  0.69859523  1  0.033349  0  -0.047805  -0.014551  0  3.889688  0
C  C112  1  0.12387005  0.11923399  0.42059948  1  0.011263  0  -0.047568  -0.01343  0  3.888269  0
C  C113  1  0.00469812  0.30152336  0.88064960  1  0.012338  0  -0.048309  -0.014416  0  3.889167  0
C  C114  1  0.55277852  0.86094334  0.24439773  1  0.004534  0  -0.066977  -0.13831  0  3.913326  0
C  C115  1  0.30842342  0.75577364  0.61691343  1  0.045793  0  -0.066949  -0.138532  0  3.913872  0
C  C116  1  0.69170015  0.38321165  0.13893406  1  -0.011274  0  -0.067067  -0.138415  0  3.912722  0
C  C117  1  0.80842116  0.61691777  0.75577650  1  0.045405  0  -0.06704  -0.138724  0  3.913898  0
C  C118  1  0.19169916  0.13893327  0.38320683  1  -0.011155  0  -0.067075  -0.138389  0  3.912549  0
C  C119  1  0.05277956  0.24439765  0.86094536  1  0.004223  0  -0.066911  -0.13827  0  3.913453  0
C  C120  1  0.52610738  0.77532073  0.18686897  1  0.489505  0  0.136285  0.178405  0  3.975897  0
C  C121  1  0.33933284  0.81318316  0.58867492  1  0.44307  0  0.13657  0.179604  0  3.975096  0
C  C122  1  0.75082669  0.41139582  0.22455841  1  0.508853  0  0.136914  0.179772  0  3.976318  0
C  C123  1  0.83932629  0.58867720  0.81318472  1  0.44347  0  0.136528  0.179559  0  3.975136  0
C  C124  1  0.25082308  0.22455798  0.41138879  1  0.509068  0  0.136896  0.179739  0  3.976166  0
C  C125  1  0.02611221  0.18686953  0.77532629  1  0.489366  0  0.136258  0.178428  0  3.975998  0
C  C126  1  0.58226477  0.74826233  0.13138742  1  0.514118  0  0.140452  0.189083  0  3.969685  0
C  C127  1  0.45094288  0.86860370  0.61698290  1  0.477895  0  0.140671  0.185811  0  3.973193  0
C  C128  1  0.83406462  0.38303668  0.25163866  1  0.497445  0  0.140117  0.186082  0  3.972279  0
C  C129  1  0.95093841  0.61698185  0.86860273  1  0.477878  0  0.140712  0.185888  0  3.973203  0
C  C130  1  0.33406323  0.25163806  0.38303259  1  0.498039  0  0.140128  0.186091  0  3.972183  0
C  C131  1  0.08227105  0.13138937  0.74826634  1  0.51492  0  0.140471  0.188975  0  3.969823  0
C  C132  1  0.67014228  0.80553448  0.13409631  1  -0.020747  0  -0.0691  -0.150498  0  3.927706  0
C  C133  1  0.53611331  0.86582133  0.67145511  1  0.057495  0  -0.068406  -0.147305  0  3.92823  0
C  C134  1  0.86473478  0.32858952  0.19435235  1  -0.006071  0  -0.068741  -0.147719  0  3.927398  0
C  C135  1  0.03610621  0.67145187  0.86581898  1  0.057489  0  -0.068454  -0.147482  0  3.928494  0
C  C136  1  0.36473366  0.19435033  0.32858401  1  -0.006066  0  -0.068686  -0.14765  0  3.927328  0
C  C137  1  0.17014523  0.13409415  0.80553842  1  -0.020825  0  -0.06909  -0.150501  0  3.927704  0
C  C138  1  0.72876441  0.77395607  0.09013187  1  -0.098305  0  -0.047136  -0.025536  0  3.909761  0
C  C139  1  0.63868682  0.90971446  0.68375535  1  -0.053421  0  -0.047876  -0.027937  0  3.911231  0
C  C140  1  0.95493707  0.31621136  0.22593818  1  -0.043369  0  -0.046745  -0.02656  0  3.911697  0
C  C141  1  0.13867953  0.68375410  0.90970957  1  -0.053195  0  -0.047882  -0.027877  0  3.91117  0
C  C142  1  0.45493358  0.22593466  0.31620567  1  -0.043693  0  -0.04675  -0.026562  0  3.911885  0
C  C143  1  0.22877056  0.09013072  0.77396445  1  -0.09854  0  -0.047115  -0.025561  0  3.910208  0
C  C144  1  0.69904816  0.68575034  0.04440422  1  0.018367  0  -0.000784  -0.056506  0  3.919381  0
C  C145  1  0.65468412  0.95549826  0.64131640  1  0.027338  0  0.000101  -0.054523  0  3.916964  0
C  C146  1  0.01333777  0.35856643  0.31414590  1  -0.006843  0  -0.000653  -0.05468  0  3.91943  0
C  C147  1  0.15467522  0.64131505  0.95549334  1  0.027597  0  0.00012  -0.05442  0  3.916942  0
C  C148  1  0.51334038  0.31414255  0.35856307  1  -0.006993  0  -0.000637  -0.0546  0  3.919325  0
C  C149  1  0.19906439  0.04440839  0.68576083  1  0.01716  0  -0.000774  -0.056404  0  3.919337  0
C  C150  1  0.60657460  0.63257816  0.04013242  1  0.553582  0  0.074238  0.102756  0  3.895271  0
C  C151  1  0.56648317  0.95982236  0.59247381  1  0.493113  0  0.073628  0.102535  0  3.895496  0
C  C152  1  0.97397996  0.40734673  0.36732490  1  0.486908  0  0.074227  0.103247  0  3.894436  0
C  C153  1  0.06647690  0.59247353  0.95982006  1  0.492707  0  0.073577  0.102418  0  3.895662  0
C  C154  1  0.47398046  0.36732412  0.40734205  1  0.487004  0  0.074313  0.103415  0  3.894278  0
C  C155  1  0.10659181  0.04013711  0.63258692  1  0.556078  0  0.074167  0.10265  0  3.894874  0
C  C156  1  0.38362557  0.82934054  0.36530297  1  1.582781  0  0.21262  0.562327  0  4.254537  0
C  C157  1  0.01845143  0.63475349  0.46424501  1  1.598775  0  0.211757  0.560048  0  4.257651  0
C  C158  1  0.55448959  0.53590847  0.17062142  1  1.585392  0  0.21152  0.559114  0  4.259344  0
C  C159  1  0.51844700  0.46423961  0.63475605  1  1.59823  0  0.211768  0.560111  0  4.257407  0
C  C160  1  0.05449062  0.17062233  0.53590698  1  1.585713  0  0.211538  0.559194  0  4.259272  0
C  C161  1  0.88362102  0.36529785  0.82934017  1  1.582591  0  0.212655  0.562336  0  4.254613  0
C  C162  1  0.76593196  0.64793222  0.00380408  1  1.607846  0  0.208497  0.569959  0  4.24752  0
C  C163  1  0.76220150  0.99607766  0.64408291  1  1.613161  0  0.2106  0.574287  0  4.244371  0
C  C164  1  0.11802857  0.35577683  0.35193537  1  1.613889  0  0.20983  0.571939  0  4.244663  0
C  C165  1  0.26219298  0.64408611  0.99607451  1  1.613276  0  0.210581  0.574294  0  4.244398  0
C  C166  1  0.61803129  0.35193283  0.35577195  1  1.61344  0  0.209841  0.571805  0  4.244757  0
C  C167  1  0.26594760  0.00381106  0.64794437  1  1.60678  0  0.208345  0.569629  0  4.247461  0
C  C168  1  0.36555773  0.42729935  0.88552267  1  1.339075  0  0.255531  0.527619  0  3.997625  0
C  C169  1  0.47991713  0.11446728  0.54166487  1  1.372602  0  0.256637  0.530654  0  3.99488  0
C  C170  1  0.93860128  0.45838027  0.57287091  1  1.349136  0  0.255812  0.528672  0  3.996424  0
C  C171  1  0.97991508  0.54166897  0.11446771  1  1.372665  0  0.256677  0.530665  0  3.994826  0
C  C172  1  0.43860144  0.57287197  0.45837836  1  1.349026  0  0.255762  0.528566  0  3.996551  0
C  C173  1  0.86556642  0.88553008  0.42730565  1  1.339463  0  0.255657  0.527783  0  3.997613  0
C  C174  1  0.38600444  0.48725520  0.79509255  1  0.216252  0  -0.137394  -0.266434  0  3.888634  0
C  C175  1  0.59065462  0.20488289  0.69206338  1  0.25618  0  -0.13792  -0.267271  0  3.889044  0
C  C176  1  0.89904817  0.30800866  0.51284880  1  0.250985  0  -0.137695  -0.2672  0  3.888258  0
C  C177  1  0.09065341  0.69206760  0.20488460  1  0.256105  0  -0.137947  -0.267387  0  3.888972  0
C  C178  1  0.39904684  0.51284853  0.30800621  1  0.251243  0  -0.137693  -0.267147  0  3.888081  0
C  C179  1  0.88600257  0.79509377  0.48725604  1  0.216304  0  -0.137443  -0.266615  0  3.888583  0
C  C180  1  0.35503027  0.33340027  0.74325309  1  0.222243  0  -0.136204  -0.274582  0  3.868631  0
C  C181  1  0.61183039  0.25669539  0.59005761  1  0.229934  0  -0.135227  -0.272725  0  3.86871  0
C  C182  1  0.02197203  0.40996267  0.66672302  1  0.217213  0  -0.135869  -0.274267  0  3.869049  0
C  C183  1  0.11183028  0.59005932  0.25669354  1  0.230145  0  -0.135186  -0.272719  0  3.868621  0
C  C184  1  0.52197054  0.66672451  0.40996158  1  0.217202  0  -0.135866  -0.274263  0  3.869083  0
C  C185  1  0.85502820  0.74325678  0.33340289  1  0.222031  0  -0.136224  -0.274633  0  3.868541  0
C  C186  1  0.34652432  0.35328616  0.90139937  1  -0.121876  0  -0.243231  -0.522283  0  3.909118  0
C  C187  1  0.44502129  0.09858939  0.45178848  1  -0.108791  0  -0.243263  -0.523105  0  3.907506  0
C  C188  1  0.99347687  0.54824905  0.64690335  1  -0.072707  0  -0.243262  -0.521741  0  3.908351  0
C  C189  1  0.94502091  0.45179093  0.09859086  1  -0.108805  0  -0.243295  -0.523126  0  3.907492  0
C  C190  1  0.49347377  0.64690216  0.54824655  1  -0.072627  0  -0.243302  -0.521692  0  3.908353  0
C  C191  1  0.84652994  0.90140357  0.35329060  1  -0.122284  0  -0.243219  -0.522146  0  3.909021  0
N  N192  1  0.45144901  0.71184968  0.18423972  1  -1.229823  0  -0.292903  -0.278295  0  3.524768  0
N  N193  1  0.26734329  0.81576613  0.52777386  1  -1.227005  0  -0.292721  -0.276611  0  3.52328  0
N  N194  1  0.73967460  0.47221629  0.28804855  1  -1.2122  0  -0.292502  -0.276709  0  3.524894  0
N  N195  1  0.76733940  0.52777604  0.81576784  1  -1.226531  0  -0.292709  -0.276582  0  3.523245  0
N  N196  1  0.23966809  0.28804773  0.47220807  1  -1.212217  0  -0.292445  -0.276515  0  3.524619  0
N  N197  1  0.95145391  0.18424105  0.71185406  1  -1.229709  0  -0.292854  -0.278262  0  3.524557  0
N  N198  1  0.55007919  0.66314187  0.08176790  1  -1.240647  0  -0.292328  -0.278533  0  3.527861  0
N  N199  1  0.46834610  0.91823169  0.58147099  1  -1.243864  0  -0.292946  -0.279281  0  3.529385  0
N  N200  1  0.88691313  0.41845249  0.33676968  1  -1.234541  0  -0.292619  -0.280088  0  3.527631  0
N  N201  1  0.96833880  0.58146661  0.91822960  1  -1.243707  0  -0.292954  -0.279239  0  3.529332  0
N  N202  1  0.38691214  0.33677039  0.41844534  1  -1.23452  0  -0.292693  -0.280308  0  3.527666  0
N  N203  1  0.05008944  0.08176783  0.66314764  1  -1.242264  0  -0.292311  -0.278388  0  3.527859  0
N  N204  1  0.23928434  0.46318453  0.09744661  1  0.816804  0  0.111231  0.720279  0  4.397494  0
N  N205  1  0.14189847  0.90261211  0.36583135  1  0.83305  0  0.110399  0.719049  0  4.397657  0
N  N206  1  0.77622221  0.63413643  0.53680378  1  0.83338  0  0.110626  0.717972  0  4.397189  0
N  N207  1  0.64189653  0.36582721  0.90260999  1  0.833128  0  0.110427  0.719111  0  4.397802  0
N  N208  1  0.27622622  0.53680431  0.63413763  1  0.833406  0  0.110677  0.718159  0  4.397051  0
N  N209  1  0.73929247  0.09744862  0.46318975  1  0.815734  0  0.111205  0.720278  0  4.397857  0
N  N210  1  0.37311661  0.41625022  0.81212995  1  -1.166267  0  -0.270067  -0.009082  0  3.625767  0
N  N211  1  0.56088447  0.18785411  0.60402781  1  -1.20551  0  -0.270813  -0.010967  0  3.625941  0
N  N212  1  0.95728933  0.39603324  0.58386842  1  -1.204346  0  -0.270409  -0.010603  0  3.628917  0
N  N213  1  0.06088288  0.60403139  0.18785460  1  -1.205545  0  -0.270882  -0.011024  0  3.626004  0
N  N214  1  0.45728793  0.58386864  0.39603240  1  -1.204417  0  -0.270399  -0.0106  0  3.628945  0
N  N215  1  0.87311785  0.81213395  0.41625348  1  -1.16614  0  -0.270151  -0.009052  0  3.625563  0
O  O216  1  0.34279217  0.77025802  0.37771081  1  -1.167933  0  -0.305452  -0.553083  0  2.145922  0
O  O217  1  0.96507876  0.62248529  0.39285375  1  -1.169464  0  -0.304406  -0.551545  0  2.148078  0
O  O218  1  0.57310927  0.60754255  0.22963458  1  -1.173789  0  -0.3044  -0.550908  0  2.148159  0
O  O219  1  0.46507840  0.39285020  0.62248551  1  -1.169101  0  -0.304422  -0.55159  0  2.148125  0
O  O220  1  0.07311203  0.22963487  0.60754184  1  -1.173783  0  -0.30442  -0.550946  0  2.148044  0
O  O221  1  0.84278393  0.37770664  0.77025784  1  -1.16785  0  -0.305401  -0.553043  0  2.145938  0
O  O222  1  0.38942996  0.90666214  0.40485952  1  -1.147598  0  -0.299668  -0.568121  0  2.30528  0
O  O223  1  0.98475623  0.59504289  0.50191723  1  -1.15068  0  -0.299501  -0.567551  0  2.305127  0
O  O224  1  0.48276058  0.49808256  0.09335654  1  -1.146502  0  -0.299419  -0.566738  0  2.305461  0
O  O225  1  0.48475030  0.50191411  0.59504513  1  -1.150551  0  -0.299533  -0.567579  0  2.304958  0
O  O226  1  0.98276680  0.09335709  0.49808380  1  -1.146804  0  -0.299422  -0.566797  0  2.305662  0
O  O227  1  0.88942463  0.40485587  0.90666018  1  -1.147627  0  -0.299746  -0.568233  0  2.305399  0
O  O228  1  0.73495794  0.56648253  0.97797369  1  -1.144501  0  -0.308981  -0.580522  0  2.314036  0
O  O229  1  0.75707323  0.02186078  0.58841797  1  -1.144947  0  -0.30993  -0.582497  0  2.312723  0
O  O230  1  0.16858361  0.41139831  0.43338685  1  -1.14996  0  -0.309789  -0.582268  0  2.314095  0
O  O231  1  0.25705740  0.58841678  0.02185353  1  -1.144824  0  -0.309899  -0.582512  0  2.312637  0
O  O232  1  0.66858111  0.43338734  0.41138563  1  -1.149892  0  -0.309772  -0.582292  0  2.31404  0
O  O233  1  0.23497243  0.97797963  0.56649426  1  -1.144056  0  -0.308833  -0.580299  0  2.313995  0
O  O234  1  0.84164201  0.69297528  0.99884253  1  -1.151829  0  -0.320628  -0.53735  0  2.066742  0
O  O235  1  0.84286537  0.00108627  0.69413600  1  -1.155636  0  -0.321691  -0.539498  0  2.065732  0
O  O236  1  0.14861050  0.30574995  0.30684950  1  -1.156266  0  -0.321229  -0.538107  0  2.064865  0
O  O237  1  0.34285734  0.69413624  0.00108219  1  -1.155429  0  -0.321653  -0.539481  0  2.065864  0
O  O238  1  0.64860837  0.30684244  0.30574579  1  -1.156057  0  -0.321228  -0.537982  0  2.064899  0
O  O239  1  0.34165427  0.99884874  0.69299156  1  -1.151049  0  -0.320593  -0.53724  0  2.06661  0
O  O240  1  0.23866522  0.42745519  0.02363514  1  -0.537975  0  -0.161974  -0.441551  0  1.992962  0
O  O241  1  0.21503544  0.97647926  0.40407188  1  -0.543527  0  -0.161563  -0.441003  0  1.993108  0
O  O242  1  0.81113335  0.59584549  0.57236796  1  -0.54427  0  -0.161661  -0.440701  0  1.994116  0
O  O243  1  0.71503786  0.40406696  0.97647551  1  -0.543529  0  -0.161579  -0.441032  0  1.993089  0
O  O244  1  0.31113745  0.57237161  0.59584923  1  -0.544324  0  -0.161642  -0.44075  0  1.994049  0
O  O245  1  0.73866855  0.02363609  0.42745722  1  -0.537298  0  -0.162027  -0.441614  0  1.993114  0
O  O246  1  0.31155672  0.54018952  0.15183672  1  -0.592615  0  -0.179721  -0.475956  0  2.06162  0
O  O247  1  0.15972510  0.84817576  0.38839483  1  -0.59748  0  -0.179611  -0.475121  0  2.060158  0
O  O248  1  0.77128515  0.61152821  0.45975949  1  -0.591532  0  -0.180012  -0.475439  0  2.059652  0
O  O249  1  0.65972089  0.38838819  0.84817296  1  -0.597454  0  -0.179615  -0.475152  0  2.060275  0
O  O250  1  0.27128743  0.45975975  0.61152723  1  -0.591548  0  -0.180025  -0.475521  0  2.059757  0
O  O251  1  0.81156827  0.15183572  0.54019244  1  -0.59241  0  -0.179674  -0.475906  0  2.061826  0
O  O252  1  0.17512404  0.42832761  0.11965316  1  -0.484238  0  -0.169356  -0.41152  0  1.913006  0
O  O253  1  0.05563451  0.88039276  0.30864261  1  -0.491952  0  -0.169234  -0.411429  0  1.912819  0
O  O254  1  0.74732517  0.69139289  0.57190177  1  -0.494843  0  -0.169147  -0.410602  0  1.91132  0
O  O255  1  0.55563312  0.30864394  0.88039445  1  -0.491995  0  -0.169203  -0.41139  0  1.912933  0
O  O256  1  0.24733035  0.57190246  0.69139589  1  -0.494829  0  -0.169187  -0.410658  0  1.911213  0
O  O257  1  0.67513073  0.11965704  0.42833573  1  -0.483962  0  -0.169373  -0.411567  0  1.912972  0
O  O258  1  0.37400251  0.50035460  0.93823757  1  -1.178089  0  -0.287175  -0.540172  0  2.328279  0
O  O259  1  0.43559889  0.06177494  0.56202181  1  -1.176814  0  -0.287674  -0.541053  0  2.327742  0
O  O260  1  0.87385090  0.43800669  0.49984517  1  -1.173375  0  -0.287248  -0.540087  0  2.327245  0
O  O261  1  0.93559469  0.56202245  0.06177344  1  -1.176702  0  -0.287693  -0.541072  0  2.327625  0
O  O262  1  0.37385012  0.49984413  0.43800518  1  -1.173322  0  -0.287219  -0.540047  0  2.327322  0
O  O263  1  0.87401379  0.93824425  0.50035921  1  -1.178263  0  -0.287189  -0.540218  0  2.328671  0
