# generated using pymatgen
data_Cd3H34C44(NO3)4
_symmetry_space_group_name_H-M   'P 1'
_cell_length_a   9.52866566
_cell_length_b   9.80688533
_cell_length_c   12.96033845
_cell_angle_alpha   71.76677691
_cell_angle_beta   68.84462672
_cell_angle_gamma   78.04242446
_symmetry_Int_Tables_number   1
_chemical_formula_structural   Cd3H34C44(NO3)4
_chemical_formula_sum   'Cd3 H34 C44 N4 O12'
_cell_volume   1066.67443671
_cell_formula_units_Z   1
loop_
 _symmetry_equiv_pos_site_id
 _symmetry_equiv_pos_as_xyz
  1  'x, y, z'
loop_
 _atom_site_type_symbol
 _atom_site_label
 _atom_site_symmetry_multiplicity
 _atom_site_fract_x
 _atom_site_fract_y
 _atom_site_fract_z
 _atom_site_occupancy
 _atom_site_hle17_bader_spin_density
 _atom_site_hle17_ddec_charge
 _atom_site_hle17_ddec_spin_density
 _atom_site_hle17_ddec_sum_bond_order
 _atom_site_hle17_magmom
 _atom_site_hse06_10hf_bader_spin_density
 _atom_site_hse06_10hf_ddec_charge
 _atom_site_hse06_10hf_ddec_spin_density
 _atom_site_hse06_10hf_ddec_sum_bond_order
 _atom_site_hse06_10hf_magmom
 _atom_site_hse06_bader_spin_density
 _atom_site_hse06_ddec_charge
 _atom_site_hse06_ddec_spin_density
 _atom_site_hse06_ddec_sum_bond_order
 _atom_site_hse06_magmom
 _atom_site_pbe_bader_spin_density
 _atom_site_pbe_cm5_charge
 _atom_site_pbe_ddec_charge
 _atom_site_pbe_ddec_spin_density
 _atom_site_pbe_ddec_sum_bond_order
 _atom_site_pbe_magmom
Cd  Cd0  1  0.00000095  0.00000009  0.99999953  1  0  1.163665  0  1.766933  0  0  0.969447  0  2.243215  0  0  1.024003  0  2.189014  0  0  0.789579  0.930051  0  2.28101  0
Cd  Cd1  1  0.31374394  0.18459320  0.73720490  1  0  1.120934  0  1.658927  0  0  0.932226  0  2.108721  0  0  0.993881  0  2.051714  0  0  0.753326  0.888903  0  2.147217  0
Cd  Cd2  1  0.68625640  0.81540650  0.26279505  1  0  1.120941  0  1.658953  0  0  0.932233  0  2.108757  0  0  0.99389  0  2.051745  0  0  0.753329  0.888913  0  2.147254  0
H  H3  1  0.87797198  0.42820835  0.71296545  1  0  0.084689  0  0.985092  0  0  0.093336  0  1.055155  0  0  0.096442  0  1.053741  0  0  0.088568  0.091486  0  1.055624  0
H  H4  1  0.12202712  0.57179243  0.28703380  1  0  0.084676  0  0.985128  0  0  0.093322  0  1.05519  0  0  0.096428  0  1.053777  0  0  0.088558  0.09148  0  1.055652  0
H  H5  1  0.67723962  0.66121536  0.97221209  1  0  0.106827  0  0.938159  0  0  0.12044  0  0.994547  0  0  0.123875  0  0.992915  0  0  0.102104  0.118086  0  0.995622  0
H  H6  1  0.32275847  0.33878433  0.02778768  1  0  0.106831  0  0.938184  0  0  0.120442  0  0.994577  0  0  0.123878  0  0.992945  0  0  0.102088  0.118087  0  0.995653  0
H  H7  1  0.42531015  0.64072609  0.76191335  1  0  0.093781  0  0.932197  0  0  0.110662  0  0.984825  0  0  0.113448  0  0.983561  0  0  0.098369  0.107919  0  0.987384  0
H  H8  1  0.57468894  0.35927469  0.23808591  1  0  0.093786  0  0.932189  0  0  0.110671  0  0.984817  0  0  0.113457  0  0.983553  0  0  0.098374  0.107931  0  0.987372  0
H  H9  1  0.75079213  0.43233254  0.58451766  1  0  0.099805  0  0.923898  0  0  0.115858  0  0.981955  0  0  0.118262  0  0.980612  0  0  0.097454  0.114129  0  0.982958  0
H  H10  1  0.24920696  0.56766824  0.41548236  1  0  0.099847  0  0.923869  0  0  0.1159  0  0.98191  0  0  0.118303  0  0.980567  0  0  0.097481  0.114169  0  0.982913  0
H  H11  1  0.59925772  0.56535139  0.56934040  1  0  0.127298  0  0.921738  0  0  0.141931  0  0.980494  0  0  0.144684  0  0.979089  0  0  0.105534  0.140156  0  0.981439  0
H  H12  1  0.40074150  0.43464831  0.43065830  1  0  0.127338  0  0.92172  0  0  0.141966  0  0.980472  0  0  0.144717  0  0.979067  0  0  0.10554  0.14019  0  0.981414  0
H  H13  1  0.01620302  0.58320218  0.82783280  1  0  0.10161  0  0.942914  0  0  0.116966  0  1.003739  0  0  0.11889  0  1.002848  0  0  0.095897  0.115029  0  1.005955  0
H  H14  1  0.98379619  0.41679752  0.17216667  1  0  0.101614  0  0.942902  0  0  0.116974  0  1.003722  0  0  0.118898  0  1.002832  0  0  0.095902  0.115036  0  1.005937  0
H  H15  1  0.90370429  0.50701439  0.97002084  1  0  0.110767  0  0.93371  0  0  0.127626  0  0.988932  0  0  0.129587  0  0.987963  0  0  0.103135  0.126079  0  0.990197  0
H  H16  1  0.09629493  0.49298531  0.02997864  1  0  0.110737  0  0.933739  0  0  0.127611  0  0.988947  0  0  0.129571  0  0.987978  0  0  0.103134  0.126063  0  0.99021  0
H  H17  1  0.42873113  0.76891497  0.00749307  1  0  0.123551  0  0.914617  0  0  0.140299  0  0.970021  0  0  0.143284  0  0.968066  0  0  0.109956  0.138019  0  0.97166  0
H  H18  1  0.57126808  0.23108473  0.99250718  1  0  0.123555  0  0.914608  0  0  0.14031  0  0.970006  0  0  0.143298  0  0.968046  0  0  0.109954  0.138028  0  0.971649  0
H  H19  1  0.30185496  0.70458283  0.96829720  1  0  0.122177  0  0.945324  0  0  0.135224  0  1.009155  0  0  0.137425  0  1.008952  0  0  0.10414  0.133463  0  1.009604  0
H  H20  1  0.69814425  0.29541687  0.03170305  1  0  0.12219  0  0.945295  0  0  0.135233  0  1.009132  0  0  0.137434  0  1.008929  0  0  0.10414  0.13347  0  1.009582  0
H  H21  1  0.24337122  0.86110134  0.13519257  1  0  0.085092  0  0.939521  0  0  0.092686  0  1.005018  0  0  0.094734  0  1.003524  0  0  0.119682  0.09133  0  1.005743  0
H  H22  1  0.75663036  0.13889728  0.86480731  1  0  0.085118  0  0.939486  0  0  0.092675  0  1.00502  0  0  0.094722  0  1.003528  0  0  0.119674  0.091321  0  1.005739  0
H  H23  1  0.32593721  0.90223364  0.28268888  1  0  0.115364  0  0.97741  0  0  0.123076  0  1.041326  0  0  0.125958  0  1.040702  0  0  0.110752  0.121127  0  1.041586  0
H  H24  1  0.67405987  0.09776498  0.71731296  1  0  0.115367  0  0.977342  0  0  0.123079  0  1.041246  0  0  0.125961  0  1.040622  0  0  0.110734  0.121128  0  1.041506  0
H  H25  1  0.93489578  0.21925765  0.34121673  1  0  0.105027  0  0.946796  0  0  0.119117  0  0.999449  0  0  0.122053  0  0.998476  0  0  0.112292  0.11701  0  1.000266  0
H  H26  1  0.06510443  0.78074313  0.65878377  1  0  0.104995  0  0.946866  0  0  0.119103  0  0.9995  0  0  0.122042  0  0.998524  0  0  0.112288  0.116997  0  1.000318  0
H  H27  1  0.87783671  0.17375318  0.18415213  1  0  0.08157  0  0.9311  0  0  0.092528  0  0.991508  0  0  0.094502  0  0.989619  0  0  0.119941  0.091021  0  0.993115  0
H  H28  1  0.12216463  0.82624760  0.81584730  1  0  0.08159  0  0.93107  0  0  0.092545  0  0.991481  0  0  0.094521  0  0.989591  0  0  0.119941  0.091039  0  0.993089  0
H  H29  1  0.09400207  0.31990848  0.58885243  1  0  0.080602  0  0.940426  0  0  0.09045  0  1.002712  0  0  0.09297  0  1.000184  0  0  0.116916  0.088478  0  1.004834  0
H  H30  1  0.90599815  0.68009229  0.41114652  1  0  0.080604  0  0.940429  0  0  0.090451  0  1.002715  0  0  0.092971  0  1.000188  0  0  0.116915  0.08848  0  1.004836  0
H  H31  1  0.02887203  0.29009923  0.42867449  1  0  0.105487  0  0.952508  0  0  0.118258  0  1.007589  0  0  0.12127  0  1.006496  0  0  0.110871  0.116045  0  1.008466  0
H  H32  1  0.97112831  0.70990047  0.57132469  1  0  0.105485  0  0.952507  0  0  0.118241  0  1.007616  0  0  0.121253  0  1.006524  0  0  0.110863  0.116029  0  1.008497  0
H  H33  1  0.33456007  0.89408714  0.44211078  1  0  0.121875  0  0.970978  0  0  0.128576  0  1.035431  0  0  0.13235  0  1.033241  0  0  0.109807  0.125779  0  1.037213  0
H  H34  1  0.66543826  0.10591040  0.55789176  1  0  0.121867  0  0.970994  0  0  0.128565  0  1.035442  0  0  0.132341  0  1.033245  0  0  0.109809  0.125771  0  1.037226  0
H  H35  1  0.38780887  0.94491060  0.59929050  1  0  0.087317  0  0.949569  0  0  0.095779  0  1.011943  0  0  0.098137  0  1.010747  0  0  0.118048  0.094314  0  1.012262  0
H  H36  1  0.61219034  0.05508910  0.40071052  1  0  0.087325  0  0.949577  0  0  0.095787  0  1.011946  0  0  0.098144  0  1.010751  0  0  0.118055  0.094321  0  1.012265  0
C  C37  1  0.65065176  0.52968659  0.72637290  1  0  0.130442  0  3.796855  0  0  0.151908  0  4.036258  0  0  0.153928  0  4.060784  0  0  -0.015314  0.150837  0  4.019111  0
C  C38  1  0.34934734  0.47031419  0.27362558  1  0  0.13049  0  3.796842  0  0  0.151951  0  4.036255  0  0  0.15397  0  4.06078  0  0  -0.015277  0.150877  0  4.019111  0
C  C39  1  0.78258322  0.49457708  0.75736694  1  0  -0.205539  0  3.738092  0  0  -0.233843  0  3.986311  0  0  -0.239572  0  4.009093  0  0  -0.109075  -0.229975  0  3.96982  0
C  C40  1  0.21741575  0.50542478  0.24263209  1  0  -0.20551  0  3.738151  0  0  -0.233837  0  3.986356  0  0  -0.239568  0  4.009141  0  0  -0.109074  -0.229979  0  3.969869  0
C  C41  1  0.79396991  0.54145306  0.84532164  1  0  0.125739  0  3.776296  0  0  0.146833  0  4.019083  0  0  0.148189  0  4.044486  0  0  -0.016053  0.146287  0  4.000894  0
C  C42  1  0.20602930  0.45854664  0.15467707  1  0  0.125651  0  3.776461  0  0  0.146819  0  4.019155  0  0  0.148174  0  4.044558  0  0  -0.016066  0.146269  0  4.000967  0
C  C43  1  0.67084624  0.62569306  0.90223383  1  0  -0.182158  0  3.694622  0  0  -0.212561  0  3.941399  0  0  -0.217385  0  3.963168  0  0  -0.096314  -0.208598  0  3.925524  0
C  C44  1  0.32915285  0.37430771  0.09776542  1  0  -0.182125  0  3.694674  0  0  -0.212558  0  3.941428  0  0  -0.217383  0  3.963198  0  0  -0.096302  -0.208594  0  3.925551  0
C  C45  1  0.53837233  0.66311365  0.87212558  1  0  0.143386  0  3.776375  0  0  0.164152  0  4.017404  0  0  0.166389  0  4.041265  0  0  -0.008939  0.162715  0  4.000835  0
C  C46  1  0.46162788  0.33688713  0.12787337  1  0  0.143346  0  3.776413  0  0  0.164125  0  4.017436  0  0  0.166361  0  4.041298  0  0  -0.008943  0.162689  0  4.000865  0
C  C47  1  0.52932745  0.61403362  0.78464966  1  0  -0.15875  0  3.680326  0  0  -0.193128  0  3.930745  0  0  -0.196113  0  3.949424  0  0  -0.094511  -0.191347  0  3.919204  0
C  C48  1  0.47067165  0.38596716  0.21534959  1  0  -0.158757  0  3.680303  0  0  -0.193147  0  3.930726  0  0  -0.196132  0  3.949405  0  0  -0.094544  -0.191369  0  3.919184  0
C  C49  1  0.63916996  0.47690257  0.63281059  1  0  -0.303627  0  3.704457  0  0  -0.345557  0  3.944762  0  0  -0.351813  0  3.952483  0  0  -0.159918  -0.341066  0  3.93894  0
C  C50  1  0.36083038  0.52309713  0.36718859  1  0  -0.303723  0  3.704482  0  0  -0.345639  0  3.944775  0  0  -0.351887  0  3.952485  0  0  -0.159932  -0.34114  0  3.938943  0
C  C51  1  0.53155049  0.36151319  0.67266427  1  0  0.681456  0  3.871173  0  0  0.640721  0  4.163342  0  0  0.673723  0  4.159156  0  0  0.188776  0.61834  0  4.165297  0
C  C52  1  0.46844972  0.63848758  0.32733468  1  0  0.681474  0  3.871221  0  0  0.640735  0  4.163383  0  0  0.673734  0  4.159198  0  0  0.18876  0.618352  0  4.16534  0
C  C53  1  0.93534519  0.50337729  0.88068432  1  0  -0.310366  0  3.696002  0  0  -0.354891  0  3.938289  0  0  -0.360374  0  3.944848  0  0  -0.164178  -0.350866  0  3.933927  0
C  C54  1  0.06465390  0.49662349  0.11931493  1  0  -0.310308  0  3.696031  0  0  -0.354865  0  3.938297  0  0  -0.360345  0  3.944851  0  0  -0.164174  -0.350835  0  3.933929  0
C  C55  1  0.01447740  0.35443447  0.86951558  1  0  0.729691  0  3.846081  0  0  0.68443  0  4.141894  0  0  0.719585  0  4.132918  0  0  0.211757  0.660286  0  4.147251  0
C  C56  1  0.98552282  0.64556631  0.13048260  1  0  0.729738  0  3.845996  0  0  0.684471  0  4.141818  0  0  0.719626  0  4.132839  0  0  0.211794  0.660326  0  4.147175  0
C  C57  1  0.40805101  0.75534430  0.93315335  1  0  -0.314864  0  3.694943  0  0  -0.357424  0  3.934645  0  0  -0.364181  0  3.942117  0  0  -0.157349  -0.352599  0  3.929321  0
C  C58  1  0.59194821  0.24465540  0.06684690  1  0  -0.314871  0  3.694942  0  0  -0.357451  0  3.934657  0  0  -0.364208  0  3.94213  0  0  -0.157338  -0.352628  0  3.929334  0
C  C59  1  0.37724677  0.90488465  0.85887183  1  0  0.707602  0  3.826863  0  0  0.661109  0  4.120482  0  0  0.69521  0  4.11423  0  0  0.204651  0.638298  0  4.122899  0
C  C60  1  0.62275344  0.09511613  0.14112866  1  0  0.707648  0  3.826815  0  0  0.66116  0  4.12043  0  0  0.695262  0  4.114177  0  0  0.204665  0.63835  0  4.122846  0
C  C61  1  0.17893060  0.94025268  0.18265334  1  0  0.139418  0  3.692633  0  0  0.109776  0  3.941592  0  0  0.116723  0  3.960545  0  0  0.051928  0.105151  0  3.92853  0
C  C62  1  0.82107199  0.05974702  0.81734602  1  0  0.139485  0  3.692723  0  0  0.109871  0  3.941651  0  0  0.116819  0  3.960603  0  0  0.051964  0.105247  0  3.928586  0
C  C63  1  0.22308420  0.96230559  0.26672068  1  0  -0.140736  0  3.665908  0  0  -0.159115  0  3.909178  0  0  -0.166515  0  3.930746  0  0  -0.074107  -0.154479  0  3.894506  0
C  C64  1  0.77691613  0.03769411  0.73328081  1  0  -0.140806  0  3.66588  0  0  -0.159165  0  3.909112  0  0  -0.166566  0  3.930682  0  0  -0.074083  -0.154529  0  3.89444  0
C  C65  1  0.13647425  0.06403629  0.32730640  1  0  0.105677  0  3.734704  0  0  0.115575  0  3.968599  0  0  0.119452  0  3.990426  0  0  0.019905  0.113014  0  3.953414  0
C  C66  1  0.86352721  0.93596341  0.67269403  1  0  0.105686  0  3.734626  0  0  0.115594  0  3.968514  0  0  0.119474  0  3.990342  0  0  0.019881  0.113034  0  3.953329  0
C  C67  1  0.00918901  0.14032251  0.29716496  1  0  -0.156397  0  3.724091  0  0  -0.176457  0  3.976206  0  0  -0.184155  0  3.998585  0  0  -0.076956  -0.171082  0  3.960739  0
C  C68  1  0.99081245  0.85967719  0.70283546  1  0  -0.15639  0  3.724138  0  0  -0.176476  0  3.976257  0  0  -0.184177  0  3.998637  0  0  -0.076963  -0.171104  0  3.960794  0
C  C69  1  0.97432723  0.11381989  0.21067044  1  0  0.135714  0  3.729785  0  0  0.102537  0  3.987363  0  0  0.109759  0  4.006372  0  0  0.048501  0.097645  0  3.974612  0
C  C70  1  0.02567410  0.88618089  0.78933053  1  0  0.135711  0  3.729761  0  0  0.102535  0  3.987344  0  0  0.109756  0  4.006354  0  0  0.048473  0.097642  0  3.974596  0
C  C71  1  0.14451618  0.22771504  0.55270531  1  0  0.128721  0  3.72045  0  0  0.097943  0  3.974517  0  0  0.104277  0  3.99496  0  0  0.047562  0.093255  0  3.961437  0
C  C72  1  0.85548416  0.77228466  0.44729464  1  0  0.128698  0  3.720489  0  0  0.097924  0  3.974555  0  0  0.104256  0  3.994998  0  0  0.047557  0.093235  0  3.961476  0
C  C73  1  0.10788350  0.20889515  0.46404183  1  0  -0.146347  0  3.702608  0  0  -0.166152  0  3.952041  0  0  -0.173477  0  3.974269  0  0  -0.075126  -0.16127  0  3.937152  0
C  C74  1  0.89211672  0.79110563  0.53595712  1  0  -0.146339  0  3.702613  0  0  -0.166131  0  3.952078  0  0  -0.173456  0  3.974308  0  0  -0.075123  -0.161253  0  3.937194  0
C  C75  1  0.17529366  0.08853199  0.42013453  1  0  0.102761  0  3.719788  0  0  0.112591  0  3.952892  0  0  0.116673  0  3.973264  0  0  0.019675  0.110057  0  3.938671  0
C  C76  1  0.82470656  0.91146879  0.57986520  1  0  0.102823  0  3.719802  0  0  0.112612  0  3.95294  0  0  0.116693  0  3.973315  0  0  0.019713  0.110079  0  3.93872  0
C  C77  1  0.27833636  0.99140262  0.46981029  1  0  -0.129131  0  3.657574  0  0  -0.147184  0  3.905477  0  0  -0.152933  0  3.923593  0  0  -0.071427  -0.143506  0  3.892975  0
C  C78  1  0.72166196  0.00859493  0.53019379  1  0  -0.129165  0  3.657677  0  0  -0.147192  0  3.905568  0  0  -0.152943  0  3.923687  0  0  -0.071466  -0.143519  0  3.893066  0
C  C79  1  0.30924606  0.01838135  0.55804016  1  0  0.118857  0  3.715226  0  0  0.088812  0  3.967143  0  0  0.094844  0  3.986799  0  0  0.045982  0.084895  0  3.953013  0
C  C80  1  0.69075314  0.98161835  0.44196163  1  0  0.118843  0  3.7152  0  0  0.088802  0  3.967099  0  0  0.094835  0  3.986755  0  0  0.045996  0.084886  0  3.95297  0
N  N81  1  0.05660036  0.01470800  0.15463330  1  0  -0.33506  0  3.27335  0  0  -0.256709  0  3.540833  0  0  -0.276954  0  3.559501  0  0  -0.33104  -0.243095  0  3.528304  0
N  N82  1  0.94339973  0.98529386  0.84536620  1  0  -0.335113  0  3.273464  0  0  -0.25676  0  3.540927  0  0  -0.277005  0  3.559595  0  0  -0.331033  -0.243147  0  3.528398  0
N  N83  1  0.24408509  0.13443077  0.59915590  1  0  -0.335832  0  3.269869  0  0  -0.257241  0  3.536432  0  0  -0.278136  0  3.55706  0  0  -0.328737  -0.242907  0  3.522362  0
N  N84  1  0.75591412  0.86556893  0.40084435  1  0  -0.335814  0  3.269846  0  0  -0.257228  0  3.536408  0  0  -0.278122  0  3.557036  0  0  -0.328736  -0.242894  0  3.522339  0
O  O85  1  0.51966320  0.31261309  0.59578800  1  0  -0.664733  0  1.9069  0  0  -0.606551  0  2.139132  0  0  -0.634663  0  2.128563  0  0  -0.34991  -0.587243  0  2.14597  0
O  O86  1  0.48033590  0.68738769  0.40421125  1  0  -0.66472  0  1.906904  0  0  -0.606536  0  2.13914  0  0  -0.634647  0  2.128572  0  0  -0.349875  -0.587226  0  2.145977  0
O  O87  1  0.45687861  0.31842318  0.77851465  1  0  -0.641359  0  1.90273  0  0  -0.577595  0  2.126167  0  0  -0.606603  0  2.117569  0  0  -0.338309  -0.557684  0  2.131677  0
O  O88  1  0.54312173  0.68157652  0.22148530  1  0  -0.641364  0  1.902767  0  0  -0.577604  0  2.126211  0  0  -0.606612  0  2.117612  0  0  -0.338315  -0.557692  0  2.131723  0
O  O89  1  0.97771043  0.24942589  0.95746501  1  0  -0.672006  0  2.012852  0  0  -0.608497  0  2.272633  0  0  -0.637214  0  2.26085  0  0  -0.335651  -0.58757  0  2.279942  0
O  O90  1  0.02228867  0.75057489  0.04253270  1  0  -0.672057  0  2.012811  0  0  -0.608539  0  2.272582  0  0  -0.637255  0  2.260797  0  0  -0.33567  -0.587612  0  2.279892  0
O  O91  1  0.10942979  0.34767057  0.77166732  1  0  -0.673514  0  1.99722  0  0  -0.606772  0  2.25189  0  0  -0.635848  0  2.237086  0  0  -0.345764  -0.586239  0  2.261647  0
O  O92  1  0.89056918  0.65233129  0.22833247  1  0  -0.673539  0  1.997235  0  0  -0.606798  0  2.251909  0  0  -0.635878  0  2.237105  0  0  -0.345792  -0.586266  0  2.261668  0
O  O93  1  0.26438239  0.98988584  0.90457471  1  0  -0.709861  0  2.054448  0  0  -0.630345  0  2.328612  0  0  -0.66255  0  2.313608  0  0  -0.349272  -0.607847  0  2.337782  0
O  O94  1  0.73561795  0.01011386  0.09542601  1  0  -0.709879  0  2.054393  0  0  -0.630362  0  2.328546  0  0  -0.662568  0  2.313543  0  0  -0.34927  -0.607864  0  2.337715  0
O  O95  1  0.45987757  0.94606564  0.75640874  1  0  -0.624789  0  1.9789  0  0  -0.566124  0  2.220585  0  0  -0.594018  0  2.214467  0  0  -0.312371  -0.546801  0  2.223192  0
O  O96  1  0.54012164  0.05393406  0.24359228  1  0  -0.624813  0  1.978895  0  0  -0.566142  0  2.220568  0  0  -0.594038  0  2.214454  0  0  -0.31239  -0.54682  0  2.223175  0
