# generated using pymatgen
data_CdH18C28(NO)6
_symmetry_space_group_name_H-M   'P 1'
_cell_length_a   9.09730259
_cell_length_b   10.50488618
_cell_length_c   13.74792366
_cell_angle_alpha   76.34479473
_cell_angle_beta   82.59016905
_cell_angle_gamma   86.60247324
_symmetry_Int_Tables_number   1
_chemical_formula_structural   CdH18C28(NO)6
_chemical_formula_sum   'Cd2 H36 C56 N12 O12'
_cell_volume   1265.47103441
_cell_formula_units_Z   2
loop_
 _symmetry_equiv_pos_site_id
 _symmetry_equiv_pos_as_xyz
  1  'x, y, z'
loop_
 _atom_site_type_symbol
 _atom_site_label
 _atom_site_symmetry_multiplicity
 _atom_site_fract_x
 _atom_site_fract_y
 _atom_site_fract_z
 _atom_site_occupancy
 _atom_site_pbe_bader_spin_density
 _atom_site_pbe_cm5_charge
 _atom_site_pbe_ddec_charge
 _atom_site_pbe_ddec_spin_density
 _atom_site_pbe_ddec_sum_bond_order
 _atom_site_pbe_magmom
Cd  Cd0  1  0.68383993  0.01301689  0.84192082  1  0  0.780563  0.849081  0  2.201592  0
Cd  Cd1  1  0.31615821  0.98698147  0.15807473  1  0  0.780536  0.849035  0  2.201643  0
H  H2  1  0.67712812  0.09253698  0.06268851  1  0  0.137059  0.119843  0  1.040916  0
H  H3  1  0.32286550  0.90746536  0.93730815  1  0  0.137064  0.11984  0  1.040958  0
H  H4  1  0.92895684  0.78277216  0.96682276  1  0  0.124005  0.12326  0  1.002641  0
H  H5  1  0.07104450  0.21723205  0.03317364  1  0  0.124027  0.123231  0  1.002635  0
H  H6  1  0.99420253  0.79073435  0.15757130  1  0  0.126563  0.142096  0  1.023228  0
H  H7  1  0.00579651  0.20927380  0.84242457  1  0  0.126654  0.142231  0  1.023159  0
H  H8  1  0.99201106  0.13734958  0.18157470  1  0  0.113199  0.12543  0  1.023501  0
H  H9  1  0.00798585  0.86265371  0.81842369  1  0  0.113234  0.125499  0  1.023418  0
H  H10  1  0.98943146  0.18955899  0.34345428  1  0  0.112689  0.127136  0  0.992341  0
H  H11  1  0.01057645  0.81044908  0.65654231  1  0  0.112666  0.127146  0  0.992404  0
H  H12  1  0.43741272  0.75508074  0.61453019  1  0  0.108388  0.116021  0  0.998783  0
H  H13  1  0.56259638  0.24492244  0.38547083  1  0  0.108394  0.115997  0  0.998816  0
H  H14  1  0.24438807  0.59003706  0.69234811  1  0  0.104857  0.10436  0  1.04327  0
H  H15  1  0.75562105  0.40996417  0.30765691  1  0  0.104836  0.104301  0  1.043337  0
H  H16  1  0.27265316  0.46509524  0.41304975  1  0  0.109647  0.110921  0  0.984638  0
H  H17  1  0.72735065  0.53489621  0.58694805  1  0  0.109662  0.110936  0  0.984676  0
H  H18  1  0.46076688  0.62962537  0.33539036  1  0  0.105835  0.104912  0  1.034808  0
H  H19  1  0.53923562  0.37037494  0.66461247  1  0  0.10584  0.104911  0  1.034828  0
H  H20  1  0.11480642  0.35397086  0.55176596  1  0  0.093616  0.025915  0  1.002788  0
H  H21  1  0.88519932  0.64603431  0.44823571  1  0  0.093584  0.025907  0  1.00276  0
H  H22  1  0.97259468  0.24446003  0.47634143  1  0  0.122979  0.118727  0  1.024263  0
H  H23  1  0.02741565  0.75553725  0.52366057  1  0  0.122985  0.118691  0  1.024329  0
H  H24  1  0.91059361  0.24040898  0.67942102  1  0  0.117457  0.11521  0  1.044023  0
H  H25  1  0.08941457  0.75958441  0.32058333  1  0  0.11742  0.115201  0  1.04408  0
H  H26  1  0.68838748  0.93129532  0.61628611  1  0  0.138284  0.113798  0  1.027475  0
H  H27  1  0.31160716  0.06871094  0.38371265  1  0  0.138267  0.113807  0  1.027447  0
H  H28  1  0.71479276  0.51026643  0.83974994  1  0  0.104639  0.118594  0  1.008331  0
H  H29  1  0.28520425  0.48973196  0.16025006  1  0  0.104681  0.118683  0  1.008332  0
H  H30  1  0.30371328  0.73019116  0.87347522  1  0  0.10367  0.118591  0  1.027007  0
H  H31  1  0.69628049  0.26980239  0.12652885  1  0  0.103652  0.118546  0  1.027085  0
H  H32  1  0.29697016  0.31996464  0.87691080  1  0  0.096196  0.106018  0  1.072585  0
H  H33  1  0.70302578  0.68003181  0.12308965  1  0  0.096138  0.105921  0  1.072472  0
H  H34  1  0.58627379  0.80698427  0.26625806  1  0  0.307209  0.296068  0  0.991961  0
H  H35  1  0.41372750  0.19302192  0.73374016  1  0  0.307207  0.29607  0  0.991905  0
H  H36  1  0.08731847  0.45869416  0.88536785  1  0  0.334994  0.372652  0  0.87673  0
H  H37  1  0.91267749  0.54130227  0.11462824  1  0  0.334984  0.37255  0  0.876822  0
C  C38  1  0.75636082  0.01184685  0.05869478  1  0  0.149726  0.113893  0  3.884036  0
C  C39  1  0.24363937  0.98815934  0.94130280  1  0  0.149797  0.113898  0  3.884123  0
C  C40  1  0.88869314  0.84999814  0.01392611  1  0  -0.00022  -0.035552  0  4.003247  0
C  C41  1  0.11130374  0.15000710  0.98606974  1  0  -0.000191  -0.035334  0  4.002864  0
C  C42  1  0.91984248  0.85085365  0.10871418  1  0  0.004401  -0.095977  0  3.880056  0
C  C43  1  0.08015552  0.14915157  0.89128086  1  0  0.004261  -0.096259  0  3.880014  0
C  C44  1  0.82708710  0.98958652  0.23052882  1  0  0.091338  0.083297  0  4.022363  0
C  C45  1  0.17290986  0.01041481  0.76947065  1  0  0.091345  0.083238  0  4.022342  0
C  C46  1  0.91630838  0.08527892  0.24402515  1  0  -0.083089  -0.138627  0  3.999156  0
C  C47  1  0.08368745  0.91472341  0.75597351  1  0  -0.083145  -0.138698  0  3.99911  0
C  C48  1  0.91511523  0.11464862  0.33849157  1  0  -0.093658  -0.161142  0  3.995229  0
C  C49  1  0.08488827  0.88535851  0.66150484  1  0  -0.093719  -0.161288  0  3.995323  0
C  C50  1  0.82725250  0.04731553  0.42355561  1  0  0.101065  0.103362  0  4.003905  0
C  C51  1  0.17275215  0.95268963  0.57644106  1  0  0.101143  0.103584  0  4.003836  0
C  C52  1  0.73351122  0.95081110  0.41159689  1  0  0.088657  0.069472  0  4.068495  0
C  C53  1  0.26648891  0.04919804  0.58840089  1  0  0.088683  0.069455  0  4.068421  0
C  C54  1  0.73310817  0.92565761  0.31432817  1  0  0.106434  0.09808  0  4.012847  0
C  C55  1  0.26688650  0.07434670  0.68567240  1  0  0.106435  0.098096  0  4.012855  0
C  C56  1  0.57283024  0.80184467  0.42649201  1  0  0.221053  0.291813  0  4.024566  0
C  C57  1  0.42717447  0.19815659  0.57350828  1  0  0.220983  0.291634  0  4.02473  0
C  C58  1  0.46021931  0.70489358  0.46961463  1  0  0.005759  0.028108  0  3.992868  0
C  C59  1  0.53978093  0.29510967  0.53038422  1  0  0.005802  0.028206  0  3.992894  0
C  C60  1  0.39944480  0.69173235  0.57115360  1  0  -0.076652  -0.100558  0  3.937359  0
C  C61  1  0.60055872  0.30827285  0.42884752  1  0  -0.07677  -0.100679  0  3.937588  0
C  C62  1  0.29289872  0.60002233  0.61439689  1  0  -0.076011  -0.086722  0  3.945158  0
C  C63  1  0.70710600  0.39997796  0.38560576  1  0  -0.075908  -0.086536  0  3.945254  0
C  C64  1  0.24650156  0.51739274  0.55787336  1  0  -0.029775  -0.012667  0  4.053913  0
C  C65  1  0.75350101  0.48260463  0.44213001  1  0  -0.029843  -0.012882  0  4.053746  0
C  C66  1  0.30737786  0.52975480  0.45696674  1  0  -0.072886  -0.089975  0  3.965319  0
C  C67  1  0.69261699  0.47024069  0.54303470  1  0  -0.072867  -0.089949  0  3.965331  0
C  C68  1  0.41274477  0.62305176  0.41300329  1  0  -0.080346  -0.099991  0  3.936655  0
C  C69  1  0.58725333  0.37694762  0.58699935  1  0  -0.080386  -0.099996  0  3.936772  0
C  C70  1  0.13741480  0.41684664  0.60308819  1  0  0.087589  0.2575  0  3.998027  0
C  C71  1  0.86259328  0.58315165  0.39691454  1  0  0.087618  0.257653  0  3.997972  0
C  C72  1  0.90696314  0.17860444  0.53614633  1  0  -0.002778  -0.114992  0  3.949436  0
C  C73  1  0.09303827  0.82139586  0.46385296  1  0  -0.002797  -0.114981  0  3.94956  0
C  C74  1  0.87500444  0.17552026  0.63668574  1  0  0.000325  -0.027909  0  4.00897  0
C  C75  1  0.12499587  0.82447908  0.36331527  1  0  0.000354  -0.027861  0  4.009059  0
C  C76  1  0.75670531  0.01493153  0.60874678  1  0  0.147255  0.109539  0  3.864305  0
C  C77  1  0.24329944  0.98506775  0.39125241  1  0  0.147225  0.109525  0  3.864362  0
C  C78  1  0.59038670  0.27401873  0.85116176  1  0  0.194248  0.563429  0  4.203585  0
C  C79  1  0.40961257  0.72597768  0.14883842  1  0  0.194217  0.563293  0  4.2037  0
C  C80  1  0.51332960  0.40243923  0.85737071  1  0  -0.023273  -0.015848  0  4.011134  0
C  C81  1  0.48666301  0.59755726  0.14263220  1  0  -0.023227  -0.015665  0  4.010931  0
C  C82  1  0.59408093  0.51453753  0.84990176  1  0  -0.087362  -0.134767  0  3.941393  0
C  C83  1  0.40591391  0.48545797  0.15010186  1  0  -0.087487  -0.135067  0  3.941423  0
C  C84  1  0.51787358  0.63302923  0.85501126  1  0  -0.018027  -0.009246  0  3.988396  0
C  C85  1  0.48212014  0.36696724  0.14498792  1  0  -0.018  -0.009167  0  3.988243  0
C  C86  1  0.36271108  0.63814467  0.86967365  1  0  -0.091988  -0.195863  0  3.905923  0
C  C87  1  0.63728377  0.36185083  0.13032998  1  0  -0.091917  -0.195742  0  3.90596  0
C  C88  1  0.28255434  0.52613466  0.87784746  1  0  0.07681  0.310103  0  4.103715  0
C  C89  1  0.71744050  0.47386084  0.12215762  1  0  0.076807  0.309981  0  4.10373  0
C  C90  1  0.35780080  0.40831827  0.87076611  1  0  -0.105277  -0.241077  0  3.964638  0
C  C91  1  0.64219183  0.59167723  0.12923479  1  0  -0.105219  -0.240906  0  3.964343  0
C  C92  1  0.59986446  0.75686363  0.84378036  1  0  0.187856  0.561279  0  4.227206  0
C  C93  1  0.40013373  0.24313083  0.15622026  1  0  0.187785  0.561189  0  4.227008  0
N  N94  1  0.78756022  0.95088959  0.98386717  1  0  -0.365249  -0.293317  0  3.585719  0
N  N95  1  0.21243558  0.04911371  0.01613131  1  0  -0.365272  -0.293408  0  3.585713  0
N  N96  1  0.83425266  0.95367434  0.13616285  1  0  -0.226052  0.015889  0  3.798387  0
N  N97  1  0.16575087  0.04633084  0.86383391  1  0  -0.226074  0.016052  0  3.798252  0
N  N98  1  0.63022805  0.83113418  0.32610990  1  0  -0.371314  -0.300254  0  3.553228  0
N  N99  1  0.36977111  0.16886714  0.67389157  1  0  -0.371304  -0.300192  0  3.553132  0
N  N100  1  0.63430125  0.87120713  0.47988000  1  0  -0.334902  -0.400526  0  3.231165  0
N  N101  1  0.36570112  0.12880003  0.52011940  1  0  -0.334888  -0.400478  0  3.23122  0
N  N102  1  0.83082787  0.07698510  0.51837429  1  0  -0.221007  0.023153  0  3.786494  0
N  N103  1  0.16918023  0.92301317  0.48162480  1  0  -0.220971  0.023107  0  3.786615  0
N  N104  1  0.78230949  0.07284522  0.68064064  1  0  -0.361491  -0.287811  0  3.572927  0
N  N105  1  0.21769085  0.92715314  0.31935982  1  0  -0.361459  -0.287827  0  3.57296  0
O  O106  1  0.50958294  0.18429260  0.83480201  1  0  -0.344069  -0.5839  0  2.272888  0
O  O107  1  0.49041180  0.81570874  0.16519547  1  0  -0.344036  -0.583798  0  2.272828  0
O  O108  1  0.72576834  0.25458066  0.86137475  1  0  -0.326166  -0.546075  0  2.123109  0
O  O109  1  0.27423301  0.74542257  0.13862182  1  0  -0.326177  -0.546084  0  2.123227  0
O  O110  1  0.13076337  0.53908111  0.89076518  1  0  -0.356692  -0.455108  0  2.244783  0
O  O111  1  0.86923260  0.46091338  0.10923562  1  0  -0.356673  -0.454962  0  2.244785  0
O  O112  1  0.73908057  0.75885659  0.82608584  1  0  -0.341712  -0.566372  0  2.093635  0
O  O113  1  0.26091881  0.24113395  0.17391758  1  0  -0.341669  -0.566242  0  2.093675  0
O  O114  1  0.51734930  0.85958894  0.85243955  1  0  -0.350311  -0.575601  0  2.255985  0
O  O115  1  0.48264891  0.14040549  0.14755599  1  0  -0.350274  -0.575606  0  2.255873  0
O  O116  1  0.07321998  0.39793837  0.68964784  1  0  -0.264046  -0.367716  0  2.160611  0
O  O117  1  0.92677794  0.60206887  0.31035629  1  0  -0.264025  -0.367759  0  2.160768  0
