# generated using pymatgen
data_CdH40Pd2C56(N6Cl)2
_symmetry_space_group_name_H-M   'P 1'
_cell_length_a   9.11894727
_cell_length_b   11.75714899
_cell_length_c   15.50038095
_cell_angle_alpha   87.62561684
_cell_angle_beta   86.19679131
_cell_angle_gamma   80.01559039
_symmetry_Int_Tables_number   1
_chemical_formula_structural   CdH40Pd2C56(N6Cl)2
_chemical_formula_sum   'Cd1 H40 Pd2 C56 N12 Cl2'
_cell_volume   1632.30904773
_cell_formula_units_Z   1
loop_
 _symmetry_equiv_pos_site_id
 _symmetry_equiv_pos_as_xyz
  1  'x, y, z'
loop_
 _atom_site_type_symbol
 _atom_site_label
 _atom_site_symmetry_multiplicity
 _atom_site_fract_x
 _atom_site_fract_y
 _atom_site_fract_z
 _atom_site_occupancy
 _atom_site_pbe_bader_charge
 _atom_site_pbe_bader_spin_density
 _atom_site_pbe_cm5_charge
 _atom_site_pbe_ddec_charge
 _atom_site_pbe_ddec_spin_density
 _atom_site_pbe_ddec_sum_bond_order
 _atom_site_pbe_magmom
Cd  Cd0  1  0.00000048  0.49999965  0.99999963  1  1.156681  0  0.653235  0.679769  0  2.484905  0
H  H1  1  0.06925300  0.03115084  0.79273547  1  0.106937  0  0.106238  0.081457  0  1.049662  0
H  H2  1  0.93074283  0.96885309  0.20726521  1  0.106746  0  0.106234  0.081505  0  1.049634  0
H  H3  1  0.32453829  0.92072037  0.71116803  1  0.071308  0  0.095402  0.111758  0  1.041634  0
H  H4  1  0.67545753  0.07928361  0.28883071  1  0.071333  0  0.095392  0.111757  0  1.04166  0
H  H5  1  0.49183026  0.81006677  0.83704776  1  0.098756  0  0.104031  0.12134  0  1.013726  0
H  H6  1  0.50816634  0.18993379  0.16294908  1  0.098691  0  0.104072  0.121325  0  1.013596  0
H  H7  1  0.47206040  0.90537377  0.17768674  1  0.121401  0  0.102593  0.120525  0  1.026001  0
H  H8  1  0.52793622  0.09462675  0.82231204  1  0.121385  0  0.102591  0.120512  0  1.02591  0
H  H9  1  0.29229861  0.07725190  0.26257991  1  0.061217  0  0.102491  0.121002  0  1.004969  0
H  H10  1  0.70770198  0.92275043  0.73741610  1  0.06124  0  0.102463  0.120935  0  1.004959  0
H  H11  1  0.05303643  0.14498790  0.16328062  1  0.157322  0  0.110126  0.104557  0  1.022413  0
H  H12  1  0.94695958  0.85501524  0.83671684  1  0.157408  0  0.110125  0.104575  0  1.022424  0
H  H13  1  0.40833544  0.65051684  0.96314355  1  0.14479  0  0.096567  0.113988  0  1.054362  0
H  H14  1  0.59166706  0.34948202  0.03685373  1  0.144834  0  0.096573  0.114002  0  1.054333  0
H  H15  1  0.65357446  0.51332168  0.96620322  1  0.104493  0  0.110158  0.079341  0  1.019966  0
H  H16  1  0.34642698  0.48667706  0.03379862  1  0.104502  0  0.110199  0.079374  0  1.020029  0
H  H17  1  0.86911154  0.76800756  0.04759382  1  0.098529  0  0.103768  0.070091  0  1.041902  0
H  H18  1  0.13088489  0.23199378  0.95240689  1  0.098526  0  0.103749  0.070054  0  1.041875  0
H  H19  1  0.63370955  0.91099202  0.05689409  1  0.104644  0  0.10486  0.114589  0  1.04976  0
H  H20  1  0.36628510  0.08900754  0.94310801  1  0.104637  0  0.104866  0.114604  0  1.049738  0
H  H21  1  0.64450510  0.99374046  0.51486733  1  0.098383  0  0.110922  0.090226  0  1.034929  0
H  H22  1  0.35549504  0.00625914  0.48513455  1  0.09812  0  0.110969  0.090283  0  1.034957  0
H  H23  1  0.51202081  0.88425776  0.39661724  1  0.081842  0  0.0997  0.119224  0  1.035324  0
H  H24  1  0.48798171  0.11574104  0.60338262  1  0.081784  0  0.099691  0.119233  0  1.035389  0
H  H25  1  0.73620521  0.77508352  0.29211568  1  0.08626  0  0.105421  0.122844  0  1.014765  0
H  H26  1  0.26379729  0.22491532  0.70788225  1  0.086247  0  0.105434  0.122841  0  1.014949  0
H  H27  1  0.31677338  0.64033335  0.35275841  1  0.071724  0  0.106452  0.125221  0  1.004818  0
H  H28  1  0.68323265  0.35966457  0.64724263  1  0.071699  0  0.106434  0.125213  0  1.004859  0
H  H29  1  0.46275638  0.66731935  0.49572989  1  0.081637  0  0.106163  0.123357  0  1.002826  0
H  H30  1  0.53724795  0.33268115  0.50427180  1  0.081668  0  0.106159  0.123317  0  1.002928  0
H  H31  1  0.29115584  0.84529556  0.58168707  1  0.10151  0  0.114196  0.094035  0  1.023846  0
H  H32  1  0.70884700  0.15470665  0.41831466  1  0.10156  0  0.114212  0.094055  0  1.023898  0
H  H33  1  0.92604522  0.58274038  0.34118382  1  0.075624  0  0.113016  0.123521  0  0.981448  0
H  H34  1  0.07395490  0.41725928  0.65881548  1  0.07561  0  0.113053  0.123584  0  0.981495  0
H  H35  1  0.94536161  0.47041487  0.20418441  1  0.143716  0  0.102603  0.087722  0  1.035796  0
H  H36  1  0.05463721  0.52958563  0.79581557  1  0.143715  0  0.102594  0.08772  0  1.035785  0
H  H37  1  0.17267740  0.70272211  0.06922674  1  0.097848  0  0.099554  0.077301  0  1.059796  0
H  H38  1  0.82732032  0.29727840  0.93077264  1  0.097854  0  0.099573  0.0773  0  1.059758  0
H  H39  1  0.17085761  0.82193333  0.20073795  1  0.108368  0  0.101219  0.110916  0  1.061009  0
H  H40  1  0.82914251  0.17806633  0.79926135  1  0.108372  0  0.101219  0.110924  0  1.060995  0
Pd  Pd41  1  0.99999756  0.99999895  0.00000033  1  0.747304  0  0.883145  0.342057  0  3.290294  0
Pd  Pd42  1  0.00000232  0.99999993  0.50000037  1  0.741646  0  0.848803  0.31242  0  3.266135  0
C  C43  1  0.16319350  0.97776858  0.82203206  1  0.418955  0  0.018829  0.053703  0  3.925326  0
C  C44  1  0.83680314  0.02223190  0.17796866  1  0.419234  0  0.018846  0.05373  0  3.925254  0
C  C45  1  0.29549023  0.91780235  0.78012021  1  -0.008547  0  -0.123064  -0.174149  0  4.020618  0
C  C46  1  0.70450619  0.08219903  0.21987856  1  -0.008577  0  -0.123028  -0.174149  0  4.020712  0
C  C47  1  0.38092315  0.86106239  0.84444982  1  -0.138581  0  -0.098959  -0.156264  0  3.95912  0
C  C48  1  0.61907807  0.13893728  0.15554944  1  -0.138543  0  -0.099  -0.156211  0  3.959024  0
C  C49  1  0.30066126  0.88996839  0.92538869  1  0.457115  0  0.062609  0.118066  0  4.031784  0
C  C50  1  0.69933866  0.11003213  0.07461060  1  0.457037  0  0.062582  0.117992  0  4.031944  0
C  C51  1  0.35819062  0.87331594  0.00763641  1  -0.071544  0  0.026876  -0.007839  0  3.914962  0
C  C52  1  0.64180531  0.12668282  0.99236372  1  -0.071489  0  0.02692  -0.00773  0  3.914932  0
C  C53  1  0.29633532  0.93654123  0.08051716  1  0.412274  0  0.058447  0.103001  0  4.047334  0
C  C54  1  0.70366040  0.06345843  0.91948102  1  0.412193  0  0.058396  0.102869  0  4.047443  0
C  C55  1  0.36498858  0.95139443  0.15865275  1  -0.144437  0  -0.108612  -0.183493  0  3.991687  0
C  C56  1  0.63501323  0.04860268  0.84134524  1  -0.144372  0  -0.108706  -0.183547  0  3.991806  0
C  C57  1  0.27274437  0.04027922  0.20223097  1  -0.034852  0  -0.123482  -0.180747  0  4.034082  0
C  C58  1  0.72725066  0.95971868  0.79776857  1  -0.034952  0  -0.123381  -0.180572  0  4.034045  0
C  C59  1  0.14785882  0.07616202  0.15185736  1  0.402301  0  0.016574  0.045808  0  3.914894  0
C  C60  1  0.85213871  0.92383935  0.84814201  1  0.402267  0  0.016583  0.045791  0  3.914894  0
C  C61  1  0.50072275  0.79120138  0.01244232  1  -0.053455  0  0.015704  0.125339  0  3.959601  0
C  C62  1  0.49927558  0.20879651  0.98755838  1  -0.053453  0  0.015696  0.125376  0  3.959495  0
C  C63  1  0.50783012  0.67772092  0.98534660  1  -0.046819  0  -0.081897  -0.173357  0  3.919015  0
C  C64  1  0.49216761  0.32227958  0.01465342  1  -0.046793  0  -0.08194  -0.173472  0  3.919007  0
C  C65  1  0.64347648  0.60252791  0.98565852  1  0.479509  0  0.041957  0.096502  0  3.955828  0
C  C66  1  0.35651906  0.39747257  0.01434159  1  0.479954  0  0.042038  0.096591  0  3.955941  0
C  C67  1  0.76358884  0.74342077  0.03309601  1  0.489918  0  0.042992  0.102624  0  3.948494  0
C  C68  1  0.23641000  0.25657968  0.96690591  1  0.489781  0  0.042946  0.102562  0  3.94865  0
C  C69  1  0.63185981  0.82344005  0.03770484  1  -0.016248  0  -0.083108  -0.162813  0  3.910798  0
C  C70  1  0.36813792  0.17656044  0.96229519  1  -0.01625  0  -0.083099  -0.162831  0  3.910792  0
C  C71  1  0.69805057  0.94072944  0.46218696  1  0.383425  0  0.013786  0.035258  0  3.944265  0
C  C72  1  0.30195496  0.05926589  0.53781414  1  0.383497  0  0.013745  0.03518  0  3.944277  0
C  C73  1  0.63041657  0.88446521  0.40026863  1  -0.055006  0  -0.123858  -0.184949  0  4.042135  0
C  C74  1  0.36958942  0.11553279  0.59972917  1  -0.055056  0  -0.123838  -0.184972  0  4.041913  0
C  C75  1  0.74543868  0.82748624  0.34677779  1  -0.054055  0  -0.102953  -0.170188  0  3.975311  0
C  C76  1  0.25456339  0.17250984  0.65322731  1  -0.054015  0  -0.102889  -0.170035  0  3.975146  0
C  C77  1  0.88197469  0.84738366  0.37881424  1  0.367234  0  0.061834  0.115183  0  4.03243  0
C  C78  1  0.11802933  0.15261339  0.62118689  1  0.367333  0  0.061835  0.115133  0  4.032392  0
C  C79  1  0.02638917  0.78879853  0.35655762  1  0.004071  0  0.02959  0.000814  0  3.926166  0
C  C80  1  0.97361685  0.21119939  0.64344341  1  0.004024  0  0.029632  0.000891  0  3.926148  0
C  C81  1  0.15061254  0.78801003  0.40520328  1  0.383037  0  0.059292  0.114044  0  4.051336  0
C  C82  1  0.84939397  0.21199052  0.59479639  1  0.382603  0  0.059299  0.114052  0  4.051337  0
C  C83  1  0.28481861  0.70436503  0.40207497  1  -0.069737  0  -0.105446  -0.175446  0  3.974224  0
C  C84  1  0.71518862  0.29563720  0.59792722  1  -0.069283  0  -0.105414  -0.175455  0  3.974089  0
C  C85  1  0.35852709  0.71745314  0.47552361  1  -0.044611  0  -0.11927  -0.1758  0  4.044782  0
C  C86  1  0.64147353  0.28254912  0.52447562  1  -0.044594  0  -0.119237  -0.175693  0  4.044681  0
C  C87  1  0.27027571  0.81018088  0.52092671  1  0.430123  0  0.017446  0.044621  0  3.934952  0
C  C88  1  0.72972820  0.18982139  0.47907304  1  0.430137  0  0.017347  0.044441  0  3.935138  0
C  C89  1  0.04419897  0.71307813  0.28084941  1  -0.091475  0  0.014312  0.119304  0  3.993383  0
C  C90  1  0.95580556  0.28692150  0.71915230  1  -0.091502  0  0.014317  0.119293  0  3.993388  0
C  C91  1  0.98301179  0.61162804  0.28245820  1  0.008674  0  -0.082147  -0.1779  0  3.949357  0
C  C92  1  0.01699124  0.38837334  0.71754224  1  0.008663  0  -0.082206  -0.177995  0  3.949327  0
C  C93  1  0.99398015  0.54881158  0.20745736  1  0.467798  0  0.044442  0.097021  0  3.944647  0
C  C94  1  0.00601999  0.45118804  0.79254388  1  0.467802  0  0.044478  0.097065  0  3.944481  0
C  C95  1  0.12283641  0.67816247  0.13184288  1  0.488362  0  0.041141  0.090489  0  3.958055  0
C  C96  1  0.87716681  0.32183806  0.86815692  1  0.488393  0  0.041122  0.090498  0  3.958179  0
C  C97  1  0.11900506  0.74494036  0.20434700  1  0.017123  0  -0.085926  -0.177079  0  3.928928  0
C  C98  1  0.88099506  0.25505930  0.79565230  1  0.017173  0  -0.085928  -0.177092  0  3.928875  0
N  N99  1  0.16525690  0.96062743  0.90830218  1  -1.152684  0  -0.397263  -0.228883  0  3.665241  0
N  N100  1  0.83473864  0.03937305  0.09169794  1  -1.152679  0  -0.397299  -0.228973  0  3.665423  0
N  N101  1  0.16023004  0.01279838  0.08045016  1  -1.147777  0  -0.398739  -0.233474  0  3.671286  0
N  N102  1  0.83976658  0.98720212  0.91954926  1  -1.14771  0  -0.398663  -0.233423  0  3.671332  0
N  N103  1  0.76961851  0.63464604  0.00832312  1  -1.215322  0  -0.323498  -0.223564  0  3.507653  0
N  N104  1  0.23038163  0.36535356  0.99167876  1  -1.215724  0  -0.323543  -0.223545  0  3.507932  0
N  N105  1  0.84771647  0.92094820  0.44859963  1  -1.112539  0  -0.396721  -0.22559  0  3.652646  0
N  N106  1  0.15228846  0.07904973  0.55140080  1  -1.112517  0  -0.396804  -0.22562  0  3.652529  0
N  N107  1  0.14795782  0.85385701  0.47853254  1  -1.139177  0  -0.395994  -0.224435  0  3.661753  0
N  N108  1  0.85204480  0.14614613  0.52146659  1  -1.139185  0  -0.39598  -0.224374  0  3.661806  0
N  N109  1  0.06034999  0.58258388  0.13301408  1  -1.246483  0  -0.325606  -0.230814  0  3.476258  0
N  N110  1  0.93964945  0.41741401  0.86698722  1  -1.246553  0  -0.32566  -0.230886  0  3.476443  0
Cl  Cl111  1  0.86952510  0.34948341  0.08707080  1  -0.70564  0  -0.377355  -0.575124  0  1.052289  0
Cl  Cl112  1  0.13047282  0.65051625  0.91292795  1  -0.705644  0  -0.37736  -0.575131  0  1.052305  0
