# generated using pymatgen
data_Dy2H16C12S3O14
_symmetry_space_group_name_H-M   'P 1'
_cell_length_a   7.91241913
_cell_length_b   10.49758942
_cell_length_c   14.11957241
_cell_angle_alpha   71.03693525
_cell_angle_beta   75.93954396
_cell_angle_gamma   77.37556803
_symmetry_Int_Tables_number   1
_chemical_formula_structural   Dy2H16C12S3O14
_chemical_formula_sum   'Dy4 H32 C24 S6 O28'
_cell_volume   1063.37917441
_cell_formula_units_Z   2
loop_
 _symmetry_equiv_pos_site_id
 _symmetry_equiv_pos_as_xyz
  1  'x, y, z'
loop_
 _atom_site_type_symbol
 _atom_site_label
 _atom_site_symmetry_multiplicity
 _atom_site_fract_x
 _atom_site_fract_y
 _atom_site_fract_z
 _atom_site_occupancy
 _atom_site_hle17_bader_spin_density
 _atom_site_hle17_ddec_charge
 _atom_site_hle17_ddec_spin_density
 _atom_site_hle17_ddec_sum_bond_order
 _atom_site_hle17_magmom
 _atom_site_hse06_10hf_bader_spin_density
 _atom_site_hse06_10hf_ddec_charge
 _atom_site_hse06_10hf_ddec_spin_density
 _atom_site_hse06_10hf_ddec_sum_bond_order
 _atom_site_hse06_10hf_magmom
 _atom_site_hse06_bader_spin_density
 _atom_site_hse06_ddec_charge
 _atom_site_hse06_ddec_spin_density
 _atom_site_hse06_ddec_sum_bond_order
 _atom_site_hse06_magmom
 _atom_site_pbe_bader_spin_density
 _atom_site_pbe_cm5_charge
 _atom_site_pbe_ddec_charge
 _atom_site_pbe_ddec_spin_density
 _atom_site_pbe_ddec_sum_bond_order
 _atom_site_pbe_magmom
Dy  Dy0  1  0.00762754  0.80323241  0.59683947  1  0  2.265261  0  1.585634  0  0  2.117708  0  2.05037  0  0  2.247775  0  1.858959  0  0  1.505852  2.080922  0  2.081419  0
Dy  Dy1  1  0.99237254  0.19676698  0.40316016  1  0  2.265253  0  1.585654  0  0  2.117715  0  2.050363  0  0  2.247762  0  1.858984  0  0  1.505827  2.080948  0  2.081375  0
Dy  Dy2  1  0.59071829  0.59193151  0.85885003  1  0  2.237359  0  1.706387  0  0  2.085497  0  2.176402  0  0  2.214203  0  1.988952  0  0  1.480509  2.045426  0  2.210598  0
Dy  Dy3  1  0.40928048  0.40806788  0.14114978  1  0  2.2374  0  1.706393  0  0  2.08558  0  2.176308  0  0  2.214228  0  1.988958  0  0  1.480538  2.045442  0  2.210612  0
H  H4  1  0.27333925  0.41295025  0.82132867  1  0  0.12946  0  0.935991  0  0  0.142344  0  0.99438  0  0  0.14464  0  0.993385  0  0  0.107368  0.14073  0  0.995105  0
H  H5  1  0.72665822  0.58704911  0.17866849  1  0  0.129403  0  0.936011  0  0  0.142323  0  0.994358  0  0  0.144618  0  0.993361  0  0  0.107356  0.140716  0  0.99509  0
H  H6  1  0.05634418  0.45290434  0.88874263  1  0  0.150959  0  0.938599  0  0  0.159732  0  0.998135  0  0  0.163884  0  0.995836  0  0  0.115393  0.156839  0  0.999651  0
H  H7  1  0.94365247  0.54709909  0.11125293  1  0  0.151009  0  0.938603  0  0  0.159775  0  0.998129  0  0  0.163925  0  0.995832  0  0  0.115426  0.156889  0  0.999649  0
H  H8  1  0.93507523  0.32673375  0.74521767  1  0  0.140714  0  0.942337  0  0  0.144515  0  1.014325  0  0  0.148333  0  1.011204  0  0  0.108803  0.141913  0  1.016326  0
H  H9  1  0.06493053  0.67326975  0.25478159  1  0  0.140698  0  0.942335  0  0  0.144515  0  1.01431  0  0  0.148342  0  1.011189  0  0  0.108825  0.141913  0  1.016311  0
H  H10  1  0.91410002  0.36474927  0.61547102  1  0  0.159026  0  0.925555  0  0  0.16918  0  0.981661  0  0  0.172968  0  0.979107  0  0  0.11538  0.166575  0  0.983363  0
H  H11  1  0.08590588  0.63524709  0.38452926  1  0  0.159033  0  0.925556  0  0  0.169195  0  0.981649  0  0  0.172988  0  0.979101  0  0  0.115408  0.166588  0  0.983353  0
H  H12  1  0.57949231  0.97296408  0.16906902  1  0  0.120645  0  0.953614  0  0  0.126543  0  1.020869  0  0  0.129831  0  1.018514  0  0  0.096191  0.124327  0  1.022315  0
H  H13  1  0.42051167  0.02703531  0.83092936  1  0  0.120608  0  0.9536  0  0  0.126535  0  1.020837  0  0  0.129807  0  1.018497  0  0  0.096194  0.124323  0  1.022285  0
H  H14  1  0.40373389  0.87361129  0.22362637  1  0  0.126882  0  0.944458  0  0  0.136363  0  1.007619  0  0  0.139231  0  1.005897  0  0  0.100352  0.134364  0  1.008685  0
H  H15  1  0.59626749  0.12638811  0.77637378  1  0  0.126873  0  0.944452  0  0  0.136363  0  1.007615  0  0  0.13923  0  1.005893  0  0  0.100354  0.134369  0  1.008681  0
H  H16  1  0.65269336  0.56373713  0.56217156  1  0  0.164208  0  0.901439  0  0  0.180457  0  0.95284  0  0  0.183656  0  0.950562  0  0  0.125467  0.178278  0  0.95442  0
H  H17  1  0.34731042  0.43626330  0.43782872  1  0  0.164182  0  0.901416  0  0  0.180449  0  0.952818  0  0  0.183652  0  0.950537  0  0  0.125458  0.17827  0  0.954397  0
H  H18  1  0.47645164  0.46955547  0.59072964  1  0  0.132229  0  0.932594  0  0  0.142838  0  0.996553  0  0  0.145516  0  0.994768  0  0  0.10711  0.141174  0  0.997406  0
H  H19  1  0.52355454  0.53044601  0.40927218  1  0  0.132206  0  0.932652  0  0  0.142826  0  0.996622  0  0  0.145501  0  0.994848  0  0  0.107107  0.141162  0  0.997473  0
H  H20  1  0.75504495  0.01862996  0.29221793  1  0  0.14349  0  0.904362  0  0  0.159753  0  0.954777  0  0  0.162661  0  0.953055  0  0  0.11943  0.157764  0  0.95589  0
H  H21  1  0.24495313  0.98136637  0.70778343  1  0  0.1435  0  0.904327  0  0  0.159732  0  0.954809  0  0  0.162638  0  0.953092  0  0  0.119435  0.157746  0  0.955917  0
H  H22  1  0.56549685  0.04820861  0.38328833  1  0  0.142254  0  0.905588  0  0  0.156842  0  0.958628  0  0  0.15966  0  0.957499  0  0  0.118848  0.15499  0  0.959085  0
H  H23  1  0.43450364  0.95178874  0.61671103  1  0  0.14224  0  0.90554  0  0  0.156835  0  0.958586  0  0  0.159653  0  0.957454  0  0  0.11883  0.154981  0  0.95905  0
H  H24  1  0.90579892  0.09811273  0.99322473  1  0  0.125959  0  0.922041  0  0  0.144676  0  0.974326  0  0  0.146196  0  0.973715  0  0  0.10963  0.143571  0  0.974791  0
H  H25  1  0.09419664  0.90188972  0.00677618  1  0  0.125951  0  0.922032  0  0  0.144685  0  0.974308  0  0  0.146205  0  0.973697  0  0  0.109636  0.14358  0  0.974774  0
H  H26  1  0.98759019  0.15709535  0.07468060  1  0  0.126974  0  0.941285  0  0  0.13831  0  1.001987  0  0  0.142115  0  0.998552  0  0  0.103291  0.135753  0  1.004129  0
H  H27  1  0.01241009  0.84290303  0.92531926  1  0  0.126961  0  0.941286  0  0  0.138297  0  1.002  0  0  0.142102  0  0.998566  0  0  0.103298  0.135736  0  1.004147  0
H  H28  1  0.18987374  0.73196640  0.77070176  1  0  0.449644  0  0.844706  0  0  0.418059  0  0.909588  0  0  0.429586  0  0.892946  0  0  0.305792  0.410149  0  0.921144  0
H  H29  1  0.81012593  0.26803503  0.22929742  1  0  0.449644  0  0.844707  0  0  0.418056  0  0.909595  0  0  0.429581  0  0.892958  0  0  0.305793  0.410145  0  0.921151  0
H  H30  1  0.98621596  0.72581406  0.82435287  1  0  0.457817  0  0.828969  0  0  0.428908  0  0.88843  0  0  0.439628  0  0.87291  0  0  0.311436  0.42158  0  0.899189  0
H  H31  1  0.01378651  0.27418636  0.17564617  1  0  0.457802  0  0.828986  0  0  0.428887  0  0.888456  0  0  0.43961  0  0.872934  0  0  0.311428  0.421559  0  0.899217  0
H  H32  1  0.18635601  0.89814170  0.38848889  1  0  0.426545  0  0.886561  0  0  0.394883  0  0.952116  0  0  0.406328  0  0.936001  0  0  0.294901  0.386657  0  0.963982  0
H  H33  1  0.81364125  0.10185871  0.61151087  1  0  0.426511  0  0.886613  0  0  0.39484  0  0.952179  0  0  0.406286  0  0.936064  0  0  0.294893  0.386613  0  0.964046  0
H  H34  1  0.28524312  0.76043198  0.44751216  1  0  0.41016  0  0.882749  0  0  0.378642  0  0.963561  0  0  0.388942  0  0.948574  0  0  0.293529  0.371149  0  0.974668  0
H  H35  1  0.71475695  0.23956739  0.55248535  1  0  0.410181  0  0.882703  0  0  0.378666  0  0.963523  0  0  0.388965  0  0.948538  0  0  0.293551  0.371172  0  0.974631  0
C  C36  1  0.25605857  0.38467342  0.98053910  1  0  0.758432  0  3.796384  0  0  0.714442  0  4.088568  0  0  0.749384  0  4.085155  0  0  0.219328  0.690491  0  4.095405  0
C  C37  1  0.74393677  0.61533003  0.01945877  1  0  0.758399  0  3.796432  0  0  0.714436  0  4.08858  0  0  0.749345  0  4.085209  0  0  0.219367  0.690497  0  4.095425  0
C  C38  1  0.18060164  0.38149871  0.89297214  1  0  -0.305161  0  3.599774  0  0  -0.333694  0  3.850186  0  0  -0.338621  0  3.851996  0  0  -0.148584  -0.330012  0  3.847995  0
C  C39  1  0.81939500  0.61850473  0.10702414  1  0  -0.305131  0  3.599808  0  0  -0.333672  0  3.850168  0  0  -0.33858  0  3.851966  0  0  -0.148618  -0.330036  0  3.848034  0
C  C40  1  0.92135780  0.53714477  0.66453317  1  0  0.736043  0  3.84093  0  0  0.693401  0  4.132689  0  0  0.726371  0  4.134306  0  0  0.208158  0.670419  0  4.137855  0
C  C41  1  0.07864989  0.46285567  0.33546516  1  0  0.73608  0  3.840635  0  0  0.693434  0  4.132398  0  0  0.726414  0  4.134013  0  0  0.208214  0.670449  0  4.137565  0
C  C42  1  0.41649620  0.63830279  0.65266211  1  0  0.77954  0  3.798209  0  0  0.730723  0  4.097975  0  0  0.766303  0  4.090775  0  0  0.237415  0.706943  0  4.104693  0
C  C43  1  0.58350347  0.36169865  0.34733778  1  0  0.779492  0  3.798395  0  0  0.730761  0  4.098045  0  0  0.766345  0  4.090841  0  0  0.237437  0.706978  0  4.104762  0
C  C44  1  0.79386030  0.30083059  0.99531778  1  0  0.771158  0  3.801894  0  0  0.730728  0  4.091719  0  0  0.766085  0  4.085062  0  0  0.228036  0.707227  0  4.097656  0
C  C45  1  0.20613390  0.69916581  0.00469259  1  0  0.77089  0  3.802396  0  0  0.730565  0  4.092061  0  0  0.765923  0  4.085407  0  0  0.227945  0.707066  0  4.097995  0
C  C46  1  0.35633041  0.06795086  0.25588392  1  0  0.78655  0  3.781196  0  0  0.745545  0  4.067913  0  0  0.780819  0  4.060756  0  0  0.241778  0.721977  0  4.074459  0
C  C47  1  0.64367034  0.93205158  0.74411345  1  0  0.786505  0  3.781182  0  0  0.745541  0  4.06783  0  0  0.780825  0  4.060659  0  0  0.241849  0.721979  0  4.074376  0
C  C48  1  0.86978697  0.39980879  0.68381236  1  0  -0.311932  0  3.622295  0  0  -0.337304  0  3.866997  0  0  -0.342211  0  3.87094  0  0  -0.146471  -0.333717  0  3.86464  0
C  C49  1  0.13022092  0.60019064  0.31618760  1  0  -0.311958  0  3.622266  0  0  -0.337361  0  3.867014  0  0  -0.342303  0  3.870993  0  0  -0.146534  -0.333772  0  3.864659  0
C  C50  1  0.77829929  0.91490578  0.44675779  1  0  0.763984  0  3.812034  0  0  0.721116  0  4.101916  0  0  0.755578  0  4.099793  0  0  0.222017  0.697641  0  4.10795  0
C  C51  1  0.22169708  0.08509260  0.55324472  1  0  0.763901  0  3.812153  0  0  0.721078  0  4.101989  0  0  0.755539  0  4.099869  0  0  0.222029  0.697601  0  4.10802  0
C  C52  1  0.47814534  0.94153362  0.23661343  1  0  -0.331003  0  3.655359  0  0  -0.360399  0  3.904942  0  0  -0.366038  0  3.909039  0  0  -0.156797  -0.356275  0  3.900931  0
C  C53  1  0.52185713  0.05846679  0.76338421  1  0  -0.330957  0  3.65542  0  0  -0.360427  0  3.905071  0  0  -0.366054  0  3.909175  0  0  -0.156843  -0.356323  0  3.901081  0
C  C54  1  0.54594934  0.52096270  0.62261327  1  0  -0.323192  0  3.583105  0  0  -0.357889  0  3.840837  0  0  -0.362302  0  3.844613  0  0  -0.145835  -0.354973  0  3.838541  0
C  C55  1  0.45405383  0.47904080  0.37738775  1  0  -0.323059  0  3.582983  0  0  -0.35784  0  3.840747  0  0  -0.362265  0  3.844534  0  0  -0.145811  -0.354924  0  3.838446  0
C  C56  1  0.67117526  0.96827381  0.36316870  1  0  -0.30457  0  3.607446  0  0  -0.335095  0  3.862194  0  0  -0.33987  0  3.865031  0  0  -0.141875  -0.331503  0  3.859055  0
C  C57  1  0.32882434  0.03172152  0.63683412  1  0  -0.304511  0  3.607445  0  0  -0.335078  0  3.862266  0  0  -0.339853  0  3.865106  0  0  -0.141879  -0.331484  0  3.859123  0
C  C58  1  0.95134354  0.18654452  0.99948379  1  0  -0.312778  0  3.649552  0  0  -0.34953  0  3.913324  0  0  -0.35322  0  3.915538  0  0  -0.156022  -0.346672  0  3.910529  0
C  C59  1  0.04865352  0.81345691  0.00051717  1  0  -0.312647  0  3.649554  0  0  -0.349456  0  3.91332  0  0  -0.353149  0  3.915543  0  0  -0.155988  -0.346591  0  3.910519  0
S  S60  1  0.13984375  0.21571236  0.89766847  1  0  0.020147  0  2.340558  0  0  0.015135  0  2.683342  0  0  0.014266  0  2.678468  0  0  -0.018231  0.016195  0  2.686313  0
S  S61  1  0.86015180  0.78429008  0.10233032  1  0  0.020108  0  2.340588  0  0  0.015092  0  2.683384  0  0  0.01422  0  2.67851  0  0  -0.018246  0.016165  0  2.686368  0
S  S62  1  0.63669030  0.39896440  0.72946867  1  0  0.012346  0  2.477063  0  0  0.015203  0  2.828222  0  0  0.006894  0  2.823892  0  0  0.007017  0.017005  0  2.8306  0
S  S63  1  0.36331417  0.60103911  0.27053217  1  0  0.012376  0  2.476963  0  0  0.015255  0  2.828158  0  0  0.006967  0  2.823843  0  0  0.007042  0.017066  0  2.830533  0
S  S64  1  0.58034023  0.83633002  0.34411520  1  0  0.032339  0  2.34644  0  0  0.029835  0  2.692296  0  0  0.029745  0  2.68791  0  0  -0.009284  0.030678  0  2.694622  0
S  S65  1  0.41965765  0.16366732  0.65588453  1  0  0.032369  0  2.346508  0  0  0.029907  0  2.692385  0  0  0.029818  0  2.687992  0  0  -0.009251  0.030757  0  2.694715  0
O  O66  1  0.17137404  0.35340360  0.07132851  1  0  -0.673789  0  1.989081  0  0  -0.618478  0  2.217475  0  0  -0.650313  0  2.208382  0  0  -0.333682  -0.600616  0  2.222791  0
O  O67  1  0.82862178  0.64660391  0.92866617  1  0  -0.673751  0  1.988981  0  0  -0.618461  0  2.217386  0  0  -0.650292  0  2.208309  0  0  -0.333661  -0.600604  0  2.222697  0
O  O68  1  0.40743092  0.42353869  0.96189877  1  0  -0.840984  0  2.174504  0  0  -0.783747  0  2.431857  0  0  -0.829649  0  2.422063  0  0  -0.429306  -0.763841  0  2.437005  0
O  O69  1  0.59256723  0.57646373  0.03809684  1  0  -0.840996  0  2.174608  0  0  -0.783785  0  2.431971  0  0  -0.829674  0  2.422194  0  0  -0.429355  -0.763876  0  2.437118  0
O  O70  1  0.39594621  0.18079289  0.19865373  1  0  -0.699063  0  2.078103  0  0  -0.652371  0  2.337488  0  0  -0.687883  0  2.323361  0  0  -0.398634  -0.635123  0  2.344576  0
O  O71  1  0.60404885  0.81920544  0.80134330  1  0  -0.699007  0  2.077956  0  0  -0.652337  0  2.337351  0  0  -0.687862  0  2.323218  0  0  -0.39864  -0.635099  0  2.344432  0
O  O72  1  0.87441605  0.99505675  0.45297431  1  0  -0.819584  0  2.133839  0  0  -0.759748  0  2.397054  0  0  -0.805466  0  2.385513  0  0  -0.437067  -0.740152  0  2.402843  0
O  O73  1  0.12558532  0.00494264  0.54702443  1  0  -0.819571  0  2.133932  0  0  -0.759721  0  2.397092  0  0  -0.805435  0  2.385541  0  0  -0.437049  -0.740124  0  2.402882  0
O  O74  1  0.82918513  0.62059295  0.71455933  1  0  -0.831452  0  2.116478  0  0  -0.777974  0  2.379757  0  0  -0.823095  0  2.370476  0  0  -0.42317  -0.758801  0  2.385348  0
O  O75  1  0.17082125  0.37940747  0.28543777  1  0  -0.831424  0  2.116388  0  0  -0.777998  0  2.379755  0  0  -0.823097  0  2.370443  0  0  -0.423181  -0.758815  0  2.385345  0
O  O76  1  0.16777518  0.80315150  0.43180171  1  0  -0.896335  0  1.94876  0  0  -0.850951  0  2.151224  0  0  -0.880318  0  2.116602  0  0  -0.647495  -0.836498  0  2.172018  0
O  O77  1  0.83222339  0.19684892  0.56819858  1  0  -0.896358  0  1.948816  0  0  -0.850955  0  2.15128  0  0  -0.88031  0  2.116639  0  0  -0.647522  -0.836505  0  2.172074  0
O  O78  1  0.78118813  0.39210196  0.91115768  1  0  -0.756578  0  2.132447  0  0  -0.701389  0  2.383174  0  0  -0.739157  0  2.374357  0  0  -0.401055  -0.681648  0  2.38712  0
O  O79  1  0.21880695  0.60789641  0.08884431  1  0  -0.756467  0  2.132962  0  0  -0.701309  0  2.383611  0  0  -0.739077  0  2.374813  0  0  -0.401011  -0.68156  0  2.387558  0
O  O80  1  0.06583678  0.76690232  0.76106871  1  0  -0.931223  0  1.851784  0  0  -0.88722  0  2.053116  0  0  -0.916642  0  2.012792  0  0  -0.647834  -0.873991  0  2.076258  0
O  O81  1  0.93416350  0.23309605  0.23893044  1  0  -0.931224  0  1.851797  0  0  -0.887226  0  2.053146  0  0  -0.916646  0  2.012814  0  0  -0.64783  -0.873992  0  2.076271  0
O  O82  1  0.40897206  0.65612922  0.73907569  1  0  -0.758902  0  2.12039  0  0  -0.699381  0  2.372435  0  0  -0.736964  0  2.360421  0  0  -0.391446  -0.680004  0  2.378316  0
O  O83  1  0.59102761  0.34387225  0.26092844  1  0  -0.758891  0  2.120699  0  0  -0.699364  0  2.372655  0  0  -0.736936  0  2.360643  0  0  -0.391389  -0.679979  0  2.378537  0
O  O84  1  0.77535680  0.79741654  0.50912967  1  0  -0.663456  0  1.917891  0  0  -0.617281  0  2.150927  0  0  -0.649859  0  2.140968  0  0  -0.350079  -0.600224  0  2.156081  0
O  O85  1  0.22464370  0.20258084  0.49087323  1  0  -0.663431  0  1.917911  0  0  -0.617274  0  2.150946  0  0  -0.649849  0  2.140982  0  0  -0.350085  -0.600231  0  2.156126  0
O  O86  1  0.05548560  0.57041998  0.59803490  1  0  -0.64974  0  1.924831  0  0  -0.603337  0  2.15464  0  0  -0.636004  0  2.145343  0  0  -0.371266  -0.586371  0  2.159601  0
O  O87  1  0.94451988  0.42957840  0.40196353  1  0  -0.649795  0  1.9246  0  0  -0.603368  0  2.15439  0  0  -0.636034  0  2.145085  0  0  -0.371329  -0.586405  0  2.159353  0
O  O88  1  0.31833735  0.71147006  0.59105155  1  0  -0.715724  0  2.063989  0  0  -0.662039  0  2.320979  0  0  -0.697765  0  2.307994  0  0  -0.367207  -0.643444  0  2.327113  0
O  O89  1  0.68166424  0.28852835  0.40895165  1  0  -0.715776  0  2.063968  0  0  -0.66212  0  2.320904  0  0  -0.697847  0  2.307921  0  0  -0.367265  -0.643527  0  2.327037  0
O  O90  1  0.68709374  0.29375467  0.07876662  1  0  -0.700501  0  2.040699  0  0  -0.652076  0  2.289208  0  0  -0.685939  0  2.276896  0  0  -0.381423  -0.634313  0  2.295368  0
O  O91  1  0.31290586  0.70624067  0.92123761  1  0  -0.700415  0  2.040568  0  0  -0.652022  0  2.289038  0  0  -0.685885  0  2.276707  0  0  -0.381397  -0.634267  0  2.295194  0
O  O92  1  0.22262376  0.05363487  0.32903689  1  0  -0.744162  0  2.087127  0  0  -0.681502  0  2.327659  0  0  -0.71929  0  2.3142  0  0  -0.38028  -0.662561  0  2.334469  0
O  O93  1  0.77737714  0.94636044  0.67096292  1  0  -0.744204  0  2.087249  0  0  -0.681541  0  2.327752  0  0  -0.719333  0  2.314287  0  0  -0.380349  -0.662595  0  2.334558  0
