# generated using pymatgen
data_Co3H22(C3O5)4
_symmetry_space_group_name_H-M   'P 1'
_cell_length_a   11.68407122
_cell_length_b   13.79535184
_cell_length_c   16.11482612
_cell_angle_alpha   90.00005245
_cell_angle_beta   90.00017882
_cell_angle_gamma   113.14640886
_symmetry_Int_Tables_number   1
_chemical_formula_structural   Co3H22(C3O5)4
_chemical_formula_sum   'Co12 H88 C48 O80'
_cell_volume   2388.39384559
_cell_formula_units_Z   4
loop_
 _symmetry_equiv_pos_site_id
 _symmetry_equiv_pos_as_xyz
  1  'x, y, z'
loop_
 _atom_site_type_symbol
 _atom_site_label
 _atom_site_symmetry_multiplicity
 _atom_site_fract_x
 _atom_site_fract_y
 _atom_site_fract_z
 _atom_site_occupancy
 _atom_site_pbe_bader_charge
 _atom_site_pbe_bader_spin_density
 _atom_site_pbe_cm5_charge
 _atom_site_pbe_ddec_charge
 _atom_site_pbe_ddec_spin_density
 _atom_site_pbe_ddec_sum_bond_order
 _atom_site_pbe_magmom
Co  Co0  1  0.10024208  0.09806772  0.95589877  1  1.302856  2.639013  0.637397  1.054921  2.826577  2.197339  2.624
Co  Co1  1  0.39975980  0.40193292  0.45589879  1  1.302871  2.639011  0.637399  1.054925  2.826573  2.197275  2.624
Co  Co2  1  0.89976198  0.90193716  0.04410175  1  1.302976  2.639  0.637424  1.054942  2.826559  2.197162  2.624
Co  Co3  1  0.60023821  0.59806249  0.54410172  1  1.302964  2.639004  0.63743  1.054951  2.826563  2.197252  2.624
Co  Co4  1  0.76361810  0.21713570  0.03647668  1  1.325845  2.625344  0.635451  1.055005  2.809553  2.304749  2.611
Co  Co5  1  0.73638496  0.28286434  0.53647586  1  1.325801  2.625342  0.63544  1.054984  2.80955  2.304862  2.611
Co  Co6  1  0.23638839  0.78287077  0.96352198  1  1.32597  2.625329  0.635433  1.054969  2.809553  2.304816  2.611
Co  Co7  1  0.26361404  0.71712950  0.46352093  1  1.325969  2.625328  0.635442  1.054998  2.809551  2.30488  2.611
Co  Co8  1  0.04770670  0.12617794  0.62981267  1  1.336678  2.620451  0.647436  1.055472  2.806439  2.332788  2.607
Co  Co9  1  0.45229126  0.37382093  0.12981155  1  1.33668  2.620444  0.64743  1.055498  2.806433  2.332715  2.607
Co  Co10  1  0.95229325  0.87381984  0.37018785  1  1.336704  2.620455  0.647421  1.055434  2.80645  2.332667  2.607
Co  Co11  1  0.54770793  0.62618078  0.87018773  1  1.336701  2.620454  0.647439  1.055466  2.806449  2.332645  2.607
H  H12  1  0.64596381  0.09710183  0.78664407  1  0.048249  0.000267  0.112517  0.101802  7.9e-05  0.947207  0.0
H  H13  1  0.85403579  0.40289579  0.28664337  1  0.048238  0.000266  0.11253  0.101845  7.9e-05  0.947167  0.0
H  H14  1  0.35404332  0.90290228  0.21335272  1  0.048229  0.000267  0.112502  0.101836  7.9e-05  0.947083  0.0
H  H15  1  0.14595928  0.59709883  0.71335342  1  0.048256  0.000267  0.112489  0.101812  7.9e-05  0.947145  0.0
H  H16  1  0.83314897  0.13094868  0.71574871  1  0.08635  -0.000328  0.11248  0.106576  -0.000639  1.026862  0.0
H  H17  1  0.66684960  0.36905109  0.21574570  1  0.086317  -0.000328  0.112517  0.106665  -0.000638  1.026721  0.0
H  H18  1  0.16686060  0.86905702  0.28425180  1  0.086623  -0.000328  0.112522  0.106642  -0.000638  1.02685  0.0
H  H19  1  0.33314448  0.63094509  0.78425109  1  0.086414  -0.000328  0.11249  0.106566  -0.000639  1.02686  0.0
H  H20  1  0.66122939  0.97601703  0.69372006  1  0.0703  0.000744  0.11783  0.115381  0.000322  0.944402  0.0
H  H21  1  0.83876907  0.52398305  0.19371904  1  0.0703  0.000744  0.117828  0.115393  0.000322  0.944427  0.0
H  H22  1  0.33877675  0.02398864  0.30628294  1  0.07022  0.000744  0.117813  0.115338  0.000322  0.94444  0.0
H  H23  1  0.16122867  0.47601550  0.80628148  1  0.070265  0.000744  0.117816  0.115348  0.000322  0.944496  0.0
H  H24  1  0.60472190  0.80865503  0.75318629  1  0.103863  -4.7e-05  0.111846  0.111314  -5.7e-05  0.991656  0.0
H  H25  1  0.89527482  0.69134443  0.25318676  1  0.103827  -4.7e-05  0.111825  0.111326  -5.7e-05  0.991697  0.0
H  H26  1  0.39528203  0.19135142  0.24681547  1  0.104749  -4.8e-05  0.111848  0.111346  -5.7e-05  0.991584  0.0
H  H27  1  0.10471790  0.30865253  0.74681500  1  0.104898  -4.8e-05  0.111855  0.111327  -5.8e-05  0.991622  0.0
H  H28  1  0.52993947  0.92847321  0.80431184  1  0.071941  0.00046  0.115534  0.1073  0.000152  0.956969  0.0
H  H29  1  0.97005803  0.57152562  0.30431177  1  0.07189  0.00046  0.115539  0.10729  0.000152  0.956967  0.0
H  H30  1  0.47006201  0.07153165  0.19568682  1  0.07222  0.00046  0.115522  0.107315  0.000152  0.957077  0.0
H  H31  1  0.02993496  0.42846819  0.69568440  1  0.071981  0.000461  0.115544  0.107347  0.000152  0.957004  0.0
H  H32  1  0.59153716  0.03870308  0.92455674  1  0.124209  0.00021  0.11657  0.126252  -0.000154  0.97227  0.0
H  H33  1  0.90846359  0.46129574  0.42455373  1  0.124152  0.000211  0.11656  0.126212  -0.000154  0.972343  0.0
H  H34  1  0.40846713  0.96130417  0.07544254  1  0.124193  0.000211  0.11655  0.12628  -0.000154  0.97224  0.0
H  H35  1  0.09153297  0.53869652  0.57544183  1  0.124117  0.00021  0.116533  0.126239  -0.000154  0.972288  0.0
H  H36  1  0.21046958  0.26172752  0.04653264  1  0.672537  8.7e-05  0.298857  0.392517  -9e-05  0.946597  0.0
H  H37  1  0.28952998  0.23827190  0.54653316  1  0.672502  8.7e-05  0.298854  0.392503  -9e-05  0.946616  0.0
H  H38  1  0.78952852  0.73827183  0.95346663  1  0.672197  8.7e-05  0.298847  0.392472  -9e-05  0.946644  0.0
H  H39  1  0.71047119  0.76172667  0.45346798  1  0.672228  8.7e-05  0.298825  0.392411  -9e-05  0.946729  0.0
H  H40  1  0.20922553  0.29573548  0.94840277  1  0.66357  1.3e-05  0.296449  0.38744  -0.000171  0.960804  0.0
H  H41  1  0.29077337  0.20426434  0.44840239  1  0.663607  1.4e-05  0.296442  0.387438  -0.000171  0.960807  0.0
H  H42  1  0.79077451  0.70426624  0.05159837  1  0.663564  1.4e-05  0.296492  0.387517  -0.000171  0.960696  0.0
H  H43  1  0.70922621  0.79573265  0.55159937  1  0.663542  1.3e-05  0.296474  0.387494  -0.000172  0.960724  0.0
H  H44  1  0.14901628  0.11821842  0.80741817  1  0.647457  -3.6e-05  0.28386  0.366027  -0.000328  0.994474  0.0
H  H45  1  0.35098191  0.38178492  0.30741745  1  0.647288  -3.5e-05  0.283875  0.366062  -0.000328  0.994421  0.0
H  H46  1  0.85098475  0.88178173  0.19258545  1  0.647354  -3.6e-05  0.283855  0.366009  -0.000328  0.994502  0.0
H  H47  1  0.64901433  0.61821599  0.69258555  1  0.647353  -3.6e-05  0.283848  0.366004  -0.000328  0.994504  0.0
H  H48  1  0.26523060  0.20245416  0.85016034  1  0.640552  0.000295  0.303064  0.402726  0.000192  0.915136  0.001
H  H49  1  0.23476897  0.29754615  0.35015929  1  0.640546  0.000295  0.303063  0.402758  0.000192  0.915079  0.001
H  H50  1  0.73476714  0.79754439  0.14984266  1  0.640555  0.000295  0.303068  0.402753  0.000192  0.915096  0.001
H  H51  1  0.76523220  0.70245242  0.64984185  1  0.640598  0.000295  0.303087  0.402787  0.000192  0.915025  0.001
H  H52  1  0.96831467  0.90682345  0.88458561  1  0.671733  0.000204  0.29905  0.400754  9e-05  0.940748  0.0
H  H53  1  0.53168501  0.59317563  0.38458829  1  0.67179  0.000204  0.299056  0.400786  9e-05  0.94071  0.0
H  H54  1  0.03169147  0.09318223  0.11541367  1  0.671732  0.000203  0.29907  0.40075  9e-05  0.94074  0.0
H  H55  1  0.46830835  0.40681897  0.61541285  1  0.671734  0.000203  0.29908  0.400775  9e-05  0.940709  0.0
H  H56  1  0.09442987  0.91839134  0.94600632  1  0.663083  0.000863  0.300056  0.385448  0.000872  0.967458  0.001
H  H57  1  0.40557026  0.58160965  0.44600798  1  0.663076  0.000863  0.300055  0.385458  0.000872  0.967449  0.001
H  H58  1  0.90558016  0.08161907  0.05399234  1  0.66444  0.000861  0.300027  0.385498  0.000872  0.967429  0.001
H  H59  1  0.59442386  0.41838102  0.55399564  1  0.663441  0.000862  0.300034  0.38549  0.000872  0.967407  0.001
H  H60  1  0.75852705  0.10782602  0.16688015  1  0.608385  0.000812  0.319932  0.402612  0.000411  0.881107  0.001
H  H61  1  0.74147775  0.39217284  0.66688067  1  0.608387  0.000812  0.319943  0.402625  0.000411  0.881104  0.001
H  H62  1  0.24147728  0.89217571  0.83311665  1  0.608356  0.000812  0.319915  0.402581  0.000411  0.881171  0.001
H  H63  1  0.25852464  0.60782653  0.33311489  1  0.608384  0.000812  0.319936  0.402625  0.000411  0.881152  0.001
H  H64  1  0.73370899  0.19971663  0.21342425  1  0.657462  0.000347  0.287868  0.39684  0.000167  0.943476  0.0
H  H65  1  0.76629250  0.30028393  0.71342662  1  0.657482  0.000347  0.287891  0.396917  0.000167  0.943359  0.0
H  H66  1  0.26629340  0.80028274  0.78657317  1  0.657485  0.000347  0.28791  0.396974  0.000167  0.943297  0.0
H  H67  1  0.23370718  0.69971700  0.28657204  1  0.657455  0.000348  0.287903  0.396985  0.000167  0.943284  0.0
H  H68  1  0.78638936  0.40594163  0.01422770  1  0.637537  0.000662  0.326282  0.410496  0.000364  0.861988  0.001
H  H69  1  0.71360879  0.09405911  0.51422669  1  0.637519  0.000663  0.326283  0.410501  0.000365  0.861987  0.001
H  H70  1  0.21361348  0.59406246  0.98577468  1  0.637515  0.000663  0.326264  0.41047  0.000365  0.862028  0.001
H  H71  1  0.28638456  0.90593550  0.48577631  1  0.637437  0.000663  0.326274  0.410533  0.000364  0.861928  0.001
H  H72  1  0.67582469  0.34669743  0.07740788  1  0.660644  -0.000375  0.291535  0.371085  -0.000841  0.985058  0.0
H  H73  1  0.82417702  0.15330115  0.57740654  1  0.660623  -0.000375  0.291522  0.37108  -0.000841  0.985065  0.0
H  H74  1  0.32417670  0.65330350  0.92259202  1  0.660603  -0.000375  0.291545  0.371105  -0.000841  0.985024  0.0
H  H75  1  0.17582329  0.84669742  0.42259087  1  0.66062  -0.000375  0.291554  0.371112  -0.000841  0.985013  0.0
H  H76  1  0.03020203  0.27863118  0.02608606  1  0.651491  0.000597  0.29298  0.401458  0.000322  0.923728  0.001
H  H77  1  0.46980072  0.22136976  0.52608572  1  0.651498  0.000597  0.292996  0.401465  0.000321  0.92372  0.001
H  H78  1  0.96980230  0.72137055  0.97391632  1  0.651762  0.000597  0.292984  0.401451  0.000321  0.923741  0.001
H  H79  1  0.53019973  0.77862723  0.47391666  1  0.651741  0.000597  0.292987  0.401446  0.000321  0.923742  0.001
H  H80  1  0.96877359  0.28577957  0.11190437  1  0.597054  0.000276  0.311408  0.392618  0.000102  0.901863  0.0
H  H81  1  0.53122927  0.21422305  0.61190242  1  0.597068  0.000276  0.311425  0.392632  0.000102  0.901836  0.0
H  H82  1  0.03122817  0.71422215  0.88809739  1  0.597089  0.000276  0.311454  0.392693  0.000102  0.901743  0.0
H  H83  1  0.46877519  0.78577711  0.38809686  1  0.597099  0.000276  0.311418  0.392646  0.000102  0.901793  0.0
H  H84  1  0.10191035  0.97656943  0.69448083  1  0.634869  -0.000232  0.330021  0.416745  -0.000395  0.863211  0.0
H  H85  1  0.39808554  0.52342844  0.19448119  1  0.635129  -0.000232  0.33004  0.416766  -0.000395  0.863219  0.0
H  H86  1  0.89808594  0.02342598  0.30552341  1  0.634744  -0.000233  0.330093  0.416902  -0.000395  0.863049  0.0
H  H87  1  0.60191242  0.47657248  0.80552057  1  0.634902  -0.000232  0.330059  0.416784  -0.000395  0.863183  0.0
H  H88  1  0.22566246  0.05860325  0.65943960  1  0.622388  0.000238  0.329585  0.411283  1.3e-05  0.867357  0.0
H  H89  1  0.27433336  0.44139255  0.15944061  1  0.622288  0.000237  0.329551  0.411262  1.3e-05  0.86746  0.0
H  H90  1  0.77433546  0.94138823  0.34056278  1  0.62244  0.000238  0.329603  0.411315  1.3e-05  0.867372  0.0
H  H91  1  0.72566302  0.55860678  0.84056115  1  0.622482  0.000238  0.329546  0.411251  1.3e-05  0.867379  0.0
H  H92  1  0.00129253  0.14311260  0.47247925  1  0.627243  0.000204  0.330055  0.414017  -0.000206  0.85704  0.0
H  H93  1  0.49871003  0.35689124  0.97248032  1  0.627418  0.000203  0.330093  0.414035  -0.000206  0.857023  0.0
H  H94  1  0.99871505  0.85689623  0.52751941  1  0.627409  0.000203  0.330074  0.414003  -0.000206  0.857065  0.0
H  H95  1  0.50129281  0.64311285  0.02752081  1  0.627244  0.000204  0.330057  0.413983  -0.000206  0.857072  0.0
H  H96  1  0.08230784  0.07487658  0.46184749  1  0.652802  0.001903  0.295459  0.388536  0.001085  0.953549  0.003
H  H97  1  0.41769272  0.42512486  0.96184905  1  0.652712  0.001903  0.295467  0.388512  0.001085  0.953568  0.003
H  H98  1  0.91768954  0.92512119  0.53815179  1  0.652836  0.001902  0.295429  0.388425  0.001085  0.953698  0.003
H  H99  1  0.58230732  0.57487686  0.03815146  1  0.652718  0.001903  0.295379  0.388312  0.001085  0.953805  0.003
C  C100  1  0.93760101  0.09218737  0.80422138  1  1.533777  -0.001157  0.23128  0.643156  -0.002717  4.043437  -0.001
C  C101  1  0.56239757  0.40781344  0.30421878  1  1.533659  -0.001155  0.231297  0.643314  -0.002715  4.043352  -0.001
C  C102  1  0.06240635  0.90781910  0.19578286  1  1.533651  -0.001158  0.231316  0.64339  -0.002717  4.043261  -0.001
C  C103  1  0.43759615  0.59218195  0.69578111  1  1.533719  -0.001158  0.231294  0.643266  -0.002717  4.043357  -0.001
C  C104  1  0.79937711  0.92879829  0.65797672  1  1.571345  0.001271  0.226972  0.632015  0.000132  4.090719  0.002
C  C105  1  0.70062056  0.57119854  0.15797355  1  1.571627  0.001272  0.227004  0.632115  0.000134  4.090731  0.002
C  C106  1  0.20062221  0.07120185  0.34202629  1  1.571251  0.001272  0.227045  0.632115  0.000133  4.090638  0.002
C  C107  1  0.29937767  0.42879923  0.84202572  1  1.571182  0.001272  0.22704  0.632144  0.000133  4.090571  0.002
C  C108  1  0.76345194  0.83007846  0.82488194  1  1.564282  -0.000673  0.224165  0.639277  -0.001186  4.07175  0.0
C  C109  1  0.73654618  0.66991966  0.32488204  1  1.564237  -0.000673  0.224222  0.639414  -0.001187  4.071598  0.0
C  C110  1  0.23655077  0.16992721  0.17512416  1  1.564228  -0.000673  0.224072  0.6391  -0.001186  4.072106  0.0
C  C111  1  0.26344740  0.33007731  0.67512158  1  1.564211  -0.000673  0.224095  0.639201  -0.001186  4.071993  0.0
C  C112  1  0.49367440  0.82806827  0.90177418  1  1.556066  0.00298  0.227458  0.632144  0.001212  4.074565  0.004
C  C113  1  0.00632303  0.67193101  0.40177314  1  1.556069  0.002981  0.227504  0.632244  0.001213  4.074531  0.004
C  C114  1  0.50632501  0.17193581  0.09822696  1  1.556053  0.002979  0.227509  0.632309  0.001212  4.074453  0.004
C  C115  1  0.99367289  0.32806361  0.59822614  1  1.556093  0.002982  0.227355  0.63197  0.001214  4.074871  0.004
C  C116  1  0.74275554  0.00537528  0.96424457  1  1.562318  -0.002472  0.231455  0.650129  -0.003848  4.033234  -0.002
C  C117  1  0.75724385  0.49462207  0.46424621  1  1.562464  -0.002471  0.231402  0.650004  -0.003847  4.03335  -0.002
C  C118  1  0.25724496  0.99463116  0.03575284  1  1.561992  -0.002471  0.231398  0.649997  -0.003846  4.033072  -0.002
C  C119  1  0.24275370  0.50536862  0.53575183  1  1.561904  -0.002471  0.231448  0.650094  -0.003847  4.032994  -0.002
C  C120  1  0.78198373  0.21974502  0.84833219  1  1.601869  0.001855  0.215939  0.628552  0.000361  4.122489  0.002
C  C121  1  0.71801659  0.28025357  0.34832984  1  1.601908  0.001854  0.215994  0.628679  0.00036  4.122227  0.002
C  C122  1  0.21801970  0.78026221  0.15166585  1  1.601939  0.001856  0.215956  0.628644  0.000362  4.122808  0.002
C  C123  1  0.28197763  0.71974104  0.65166447  1  1.602083  0.001854  0.215951  0.628625  0.000361  4.12238  0.002
C  C124  1  0.72534083  0.10128283  0.82626048  1  -0.00696  0.002978  -0.076482  -0.129193  0.00148  3.800002  0.002
C  C125  1  0.77465692  0.39871411  0.32625897  1  -0.00675  0.002978  -0.076482  -0.129193  0.00148  3.799942  0.002
C  C126  1  0.27466653  0.89872364  0.17373694  1  -0.006801  0.002978  -0.07647  -0.129186  0.00148  3.799911  0.002
C  C127  1  0.22533585  0.60127735  0.67373720  1  -0.006897  0.002979  -0.076477  -0.12927  0.00148  3.799948  0.002
C  C128  1  0.81112156  0.07366635  0.76669740  1  0.022194  0.005026  -0.090519  -0.165018  0.002175  3.845288  0.004
C  C129  1  0.68887743  0.42633200  0.26669697  1  0.022153  0.005027  -0.090575  -0.165113  0.002175  3.845249  0.004
C  C130  1  0.18888679  0.92633856  0.23330374  1  0.021742  0.005028  -0.090614  -0.165264  0.002175  3.845576  0.004
C  C131  1  0.31111543  0.57366339  0.73330169  1  0.021897  0.005028  -0.090589  -0.165026  0.002175  3.845311  0.004
C  C132  1  0.73741395  0.96443051  0.72774657  1  0.008762  0.002245  -0.078028  -0.137945  0.001177  3.839867  0.002
C  C133  1  0.76258398  0.53556810  0.22774600  1  0.008705  0.002245  -0.078052  -0.138038  0.001177  3.839889  0.002
C  C134  1  0.26259341  0.03557596  0.27225581  1  0.008978  0.002245  -0.078031  -0.137932  0.001177  3.839938  0.002
C  C135  1  0.23740937  0.46442651  0.77225513  1  0.00898  0.002245  -0.078026  -0.137974  0.001177  3.839949  0.002
C  C136  1  0.67169693  0.87387283  0.78937915  1  -0.00882  0.001894  -0.088014  -0.16205  0.000976  3.821494  0.001
C  C137  1  0.82830099  0.62612518  0.28937880  1  -0.008726  0.001894  -0.087978  -0.162155  0.000976  3.821677  0.001
C  C138  1  0.32830750  0.12613284  0.21062323  1  -0.009834  0.001894  -0.088001  -0.162029  0.000976  3.821595  0.001
C  C139  1  0.17169101  0.37387021  0.71062234  1  -0.009958  0.001894  -0.08804  -0.162093  0.000976  3.821691  0.001
C  C140  1  0.59206566  0.91074372  0.84836388  1  -0.007252  0.004968  -0.074955  -0.12728  0.002628  3.806444  0.004
C  C141  1  0.90793210  0.58925524  0.34836245  1  -0.007236  0.004968  -0.074965  -0.127223  0.002628  3.806397  0.004
C  C142  1  0.40793705  0.08926194  0.15163726  1  -0.00753  0.004967  -0.075004  -0.127546  0.002628  3.80665  0.004
C  C143  1  0.09206198  0.41074094  0.65163435  1  -0.007359  0.004967  -0.075017  -0.127435  0.002628  3.806704  0.004
C  C144  1  0.66184347  0.01647566  0.89380811  1  -0.012493  0.004783  -0.08367  -0.160614  0.002105  3.803422  0.004
C  C145  1  0.83815539  0.48352306  0.39380806  1  -0.012799  0.004783  -0.083638  -0.160573  0.002106  3.80334  0.004
C  C146  1  0.33815960  0.98353079  0.10618993  1  -0.012168  0.004782  -0.083551  -0.160374  0.002106  3.803116  0.004
C  C147  1  0.16183724  0.51646997  0.60618874  1  -0.012077  0.004782  -0.083544  -0.160387  0.002106  3.803195  0.004
O  O148  1  0.88309863  0.99557189  0.61185471  1  -1.194675  0.052505  -0.321842  -0.600943  0.027096  2.411419  0.043
O  O149  1  0.61690465  0.50442640  0.11185131  1  -1.194637  0.052499  -0.321857  -0.601006  0.027093  2.411397  0.043
O  O150  1  0.11690547  0.00442748  0.38814891  1  -1.194588  0.052501  -0.321863  -0.601019  0.027094  2.411369  0.043
O  O151  1  0.38309882  0.49557533  0.88814735  1  -1.194518  0.052504  -0.321893  -0.601064  0.027096  2.411404  0.043
O  O152  1  0.75465453  0.83117323  0.64193736  1  -1.210725  0.007675  -0.315479  -0.566201  0.002847  2.283429  0.006
O  O153  1  0.74533668  0.66882274  0.14193748  1  -1.210898  0.007677  -0.315479  -0.566187  0.002848  2.28346  0.006
O  O154  1  0.24534357  0.16882612  0.35806564  1  -1.21073  0.007676  -0.315497  -0.566176  0.002847  2.283409  0.006
O  O155  1  0.25465898  0.33117503  0.85806490  1  -1.210628  0.007676  -0.315456  -0.566158  0.002847  2.283358  0.006
O  O156  1  0.87824341  0.88128392  0.81239173  1  -1.18582  0.009985  -0.316056  -0.540264  0.004442  2.217492  0.008
O  O157  1  0.62175220  0.61871257  0.31239525  1  -1.185928  0.009985  -0.316115  -0.540327  0.004442  2.217439  0.008
O  O158  1  0.12175943  0.11872017  0.18761065  1  -1.185778  0.009985  -0.315982  -0.54012  0.004442  2.217608  0.008
O  O159  1  0.37823944  0.38128203  0.68760899  1  -1.185721  0.009985  -0.315971  -0.540178  0.004442  2.217564  0.008
O  O160  1  0.72216793  0.73861083  0.86041870  1  -1.190976  0.063506  -0.333096  -0.625816  0.032902  2.421965  0.053
O  O161  1  0.77783197  0.76138897  0.36041772  1  -1.190897  0.063508  -0.333093  -0.625829  0.032903  2.4219  0.053
O  O162  1  0.27783491  0.26139326  0.13958120  1  -1.19097  0.063513  -0.333118  -0.625798  0.032908  2.422037  0.053
O  O163  1  0.22216197  0.23860878  0.63958031  1  -1.190903  0.063513  -0.333153  -0.625838  0.032909  2.422006  0.053
O  O164  1  0.46631786  0.72917480  0.89085187  1  -1.187536  0.057457  -0.31618  -0.601417  0.028864  2.485106  0.05
O  O165  1  0.03367879  0.77082287  0.39085097  1  -1.187518  0.057458  -0.316267  -0.601502  0.028865  2.485174  0.05
O  O166  1  0.53368205  0.27082849  0.10914865  1  -1.187643  0.057453  -0.316214  -0.6015  0.028862  2.485186  0.05
O  O167  1  0.96631678  0.22917096  0.60914955  1  -1.187698  0.057456  -0.316204  -0.601379  0.028863  2.485239  0.05
O  O168  1  0.43044609  0.86121820  0.94919877  1  -1.166658  0.063474  -0.313116  -0.575454  0.031806  2.313182  0.054
O  O169  1  0.06955161  0.63878122  0.44919909  1  -1.166623  0.063474  -0.313077  -0.575475  0.031806  2.31309  0.054
O  O170  1  0.56955273  0.13878272  0.05080050  1  -1.166541  0.063471  -0.313095  -0.575453  0.031805  2.312938  0.054
O  O171  1  0.93044653  0.36121262  0.55079585  1  -1.166521  0.063473  -0.312941  -0.575256  0.031806  2.313094  0.054
O  O172  1  0.76486650  0.92284943  0.96899027  1  -1.157228  0.064822  -0.294409  -0.53507  0.032875  2.325988  0.056
O  O173  1  0.73513465  0.57714833  0.46899215  1  -1.157165  0.064824  -0.294358  -0.535007  0.032876  2.326014  0.056
O  O174  1  0.23513607  0.07715780  0.03100715  1  -1.157205  0.064831  -0.294437  -0.535001  0.032879  2.325796  0.056
O  O175  1  0.26486327  0.42284315  0.53100650  1  -1.157177  0.064827  -0.294455  -0.535063  0.032877  2.32588  0.056
O  O176  1  0.78128749  0.07799400  0.02019971  1  -1.182766  0.056974  -0.320653  -0.605696  0.028878  2.478527  0.05
O  O177  1  0.71871426  0.42200520  0.52019958  1  -1.182734  0.056972  -0.320669  -0.605641  0.028877  2.478633  0.05
O  O178  1  0.21872204  0.92201720  0.97979709  1  -1.182742  0.05697  -0.320554  -0.605578  0.028873  2.478521  0.05
O  O179  1  0.28128279  0.57798628  0.47979784  1  -1.182756  0.056974  -0.320558  -0.605579  0.028875  2.478479  0.05
O  O180  1  0.76181360  0.25158076  0.91898451  1  -1.170108  0.090623  -0.335414  -0.606363  0.045395  2.40685  0.076
O  O181  1  0.73818052  0.24841486  0.41898591  1  -1.17012  0.090632  -0.335401  -0.606397  0.0454  2.406724  0.076
O  O182  1  0.23818996  0.74842490  0.08101415  1  -1.170187  0.090631  -0.335443  -0.60644  0.045397  2.406986  0.076
O  O183  1  0.26181432  0.75157739  0.58100965  1  -1.170263  0.09063  -0.335453  -0.606407  0.045398  2.406799  0.076
O  O184  1  0.83884734  0.28243067  0.79056435  1  -1.200943  0.016197  -0.339842  -0.57464  0.00772  2.154748  0.014
O  O185  1  0.66115215  0.21756854  0.29055997  1  -1.201022  0.016196  -0.33989  -0.574718  0.007719  2.154617  0.014
O  O186  1  0.16115080  0.71757812  0.20943244  1  -1.201028  0.016199  -0.339854  -0.574717  0.007721  2.1549  0.014
O  O187  1  0.33884541  0.78242215  0.70943310  1  -1.201026  0.016197  -0.339838  -0.574706  0.00772  2.154805  0.014
O  O188  1  0.95448847  0.10523389  0.88135535  1  -1.143751  0.064436  -0.290174  -0.528964  0.032219  2.321558  0.057
O  O189  1  0.54551203  0.39476480  0.38135146  1  -1.143638  0.064438  -0.290184  -0.529036  0.032219  2.321507  0.057
O  O190  1  0.04552205  0.89477574  0.11864766  1  -1.143629  0.06444  -0.290244  -0.529123  0.03222  2.321392  0.057
O  O191  1  0.45448223  0.60522430  0.61864782  1  -1.143668  0.064439  -0.290226  -0.529038  0.03222  2.321441  0.057
O  O192  1  0.02801484  0.10125286  0.75400138  1  -1.177431  0.067597  -0.323434  -0.620323  0.034431  2.468948  0.057
O  O193  1  0.47198613  0.39874954  0.25400095  1  -1.177457  0.067599  -0.323441  -0.620424  0.034431  2.469005  0.057
O  O194  1  0.97198863  0.89874888  0.24599728  1  -1.177402  0.067593  -0.323379  -0.620343  0.034429  2.468992  0.057
O  O195  1  0.52801184  0.60125137  0.74599647  1  -1.177399  0.067595  -0.323371  -0.62033  0.03443  2.469015  0.057
O  O196  1  0.15716085  0.25299955  0.99613761  1  -1.289905  0.06102  -0.561336  -0.769365  0.031471  2.220621  0.048
O  O197  1  0.34284017  0.24699885  0.49613863  1  -1.289878  0.061019  -0.561338  -0.769357  0.03147  2.220609  0.048
O  O198  1  0.84283982  0.74699981  0.00386415  1  -1.289609  0.061023  -0.56137  -0.769386  0.031468  2.220555  0.048
O  O199  1  0.65716163  0.75299737  0.50386251  1  -1.289588  0.061024  -0.56136  -0.769327  0.031469  2.220662  0.048
O  O200  1  0.21568239  0.12581578  0.85016584  1  -1.255976  0.068061  -0.588947  -0.776999  0.03473  2.068184  0.054
O  O201  1  0.28431862  0.37418769  0.35016683  1  -1.255784  0.068059  -0.588942  -0.777041  0.034729  2.068088  0.054
O  O202  1  0.78432009  0.87418752  0.14983716  1  -1.25586  0.068056  -0.588958  -0.777001  0.034726  2.068116  0.054
O  O203  1  0.71567790  0.62581007  0.64983617  1  -1.255897  0.068059  -0.588945  -0.777008  0.034728  2.068104  0.054
O  O204  1  0.01797004  0.93594651  0.93774056  1  -1.285344  0.10542  -0.565913  -0.815799  0.055994  2.38425  0.086
O  O205  1  0.48203054  0.56405367  0.43774176  1  -1.285302  0.105424  -0.565917  -0.815852  0.055997  2.384242  0.086
O  O206  1  0.98203841  0.06406232  0.06225934  1  -1.286621  0.10542  -0.565881  -0.815853  0.055993  2.38412  0.086
O  O207  1  0.51796516  0.43593858  0.56226000  1  -1.285659  0.105419  -0.565888  -0.81585  0.055993  2.384069  0.086
O  O208  1  0.78312855  0.18399685  0.16706327  1  -1.240794  0.044022  -0.569559  -0.777934  0.022803  2.06665  0.033
O  O209  1  0.71687769  0.31600516  0.66706243  1  -1.240786  0.044019  -0.569583  -0.778008  0.022802  2.066557  0.033
O  O210  1  0.21687736  0.81600646  0.83293601  1  -1.240759  0.044022  -0.569561  -0.778  0.022804  2.066613  0.033
O  O211  1  0.28312334  0.68399499  0.33293374  1  -1.240784  0.044021  -0.569574  -0.778059  0.022803  2.066646  0.033
O  O212  1  0.76728289  0.36855625  0.06707279  1  -1.255728  0.048739  -0.566798  -0.742264  0.025121  2.109584  0.038
O  O213  1  0.73271728  0.13144465  0.56707123  1  -1.255647  0.048742  -0.566783  -0.74227  0.025122  2.109557  0.038
O  O214  1  0.23271738  0.63144782  0.93293021  1  -1.25562  0.04874  -0.566791  -0.742239  0.025122  2.109536  0.039
O  O215  1  0.26728303  0.86855392  0.43292991  1  -1.255552  0.048739  -0.5668  -0.742321  0.025122  2.109386  0.038
O  O216  1  0.96459570  0.29767232  0.05252737  1  -1.219561  0.048848  -0.575814  -0.752317  0.024789  2.053949  0.038
O  O217  1  0.53540488  0.20232775  0.55252728  1  -1.21958  0.048846  -0.575857  -0.752345  0.024789  2.053908  0.038
O  O218  1  0.03540691  0.70232941  0.94747439  1  -1.219895  0.048849  -0.575862  -0.752398  0.024788  2.053858  0.038
O  O219  1  0.46459313  0.79766766  0.44747386  1  -1.219886  0.048852  -0.575833  -0.752352  0.024789  2.053884  0.038
O  O220  1  0.14158537  0.01156968  0.64318303  1  -1.202824  0.041516  -0.5515  -0.735122  0.020863  2.01553  0.033
O  O221  1  0.35840973  0.48842843  0.14318303  1  -1.202998  0.041516  -0.55149  -0.735124  0.020863  2.015627  0.033
O  O222  1  0.85841218  0.98842101  0.35681935  1  -1.202759  0.041519  -0.551584  -0.735297  0.020864  2.015455  0.033
O  O223  1  0.64158625  0.51157563  0.85681687  1  -1.202985  0.041517  -0.551502  -0.735126  0.020863  2.015548  0.033
O  O224  1  0.06390188  0.12468993  0.50020843  1  -1.245665  0.051452  -0.569585  -0.766912  0.026403  2.181115  0.04
O  O225  1  0.43609986  0.37531094  0.00020914  1  -1.245742  0.051458  -0.569646  -0.766925  0.026407  2.181131  0.04
O  O226  1  0.93609843  0.87530864  0.49979208  1  -1.245797  0.051454  -0.569588  -0.766787  0.026403  2.181192  0.04
O  O227  1  0.56390091  0.62469235  0.99979138  1  -1.245522  0.051454  -0.569525  -0.766667  0.026403  2.181338  0.04
