# generated using pymatgen
data_SrH18(C5O6)2
_symmetry_space_group_name_H-M   'P 1'
_cell_length_a   8.55063477
_cell_length_b   8.74096270
_cell_length_c   10.22642815
_cell_angle_alpha   90.00115387
_cell_angle_beta   108.64099622
_cell_angle_gamma   90.00073559
_symmetry_Int_Tables_number   1
_chemical_formula_structural   SrH18(C5O6)2
_chemical_formula_sum   'Sr2 H36 C20 O24'
_cell_volume   724.23435491
_cell_formula_units_Z   2
loop_
 _symmetry_equiv_pos_site_id
 _symmetry_equiv_pos_as_xyz
  1  'x, y, z'
loop_
 _atom_site_type_symbol
 _atom_site_label
 _atom_site_symmetry_multiplicity
 _atom_site_fract_x
 _atom_site_fract_y
 _atom_site_fract_z
 _atom_site_occupancy
 _atom_site_pbe_bader_charge
 _atom_site_pbe_bader_spin_density
 _atom_site_pbe_cm5_charge
 _atom_site_pbe_ddec_charge
 _atom_site_pbe_ddec_spin_density
 _atom_site_pbe_ddec_sum_bond_order
 _atom_site_pbe_magmom
Sr  Sr0  1  0.46862700  0.50743658  0.60425375  1  1.671927  0  0.960725  1.375364  0  1.557551  0
Sr  Sr1  1  0.53137866  0.00742780  0.39574504  1  1.671906  0  0.960748  1.375395  0  1.557534  0
H  H2  1  0.84400504  0.36251919  0.69093750  1  0.626448  0  0.305583  0.341525  0  0.996828  0
H  H3  1  0.15599392  0.86251295  0.30905973  1  0.626481  0  0.305604  0.341552  0  0.996774  0
H  H4  1  0.63322446  0.72547247  0.88296403  1  0.665089  0  0.304201  0.353796  0  0.995892  0
H  H5  1  0.36677620  0.22546859  0.11704116  1  0.664526  0  0.304221  0.353844  0  0.995887  0
H  H6  1  0.58563698  0.26139710  0.80704526  1  0.607749  0  0.333418  0.367577  0  0.891301  0
H  H7  1  0.41435883  0.76139074  0.19293761  1  0.607749  0  0.333417  0.367621  0  0.891176  0
H  H8  1  0.27034844  0.45845624  0.04860669  1  0.645304  0  0.295081  0.345666  0  0.996546  0
H  H9  1  0.72964859  0.95846896  0.95138922  1  0.645286  0  0.295063  0.345566  0  0.996658  0
H  H10  1  0.88983949  0.32180320  0.94125848  1  0.117844  0  0.106802  0.074952  0  0.997628  0
H  H11  1  0.11015446  0.82179398  0.05873162  1  0.117681  0  0.106778  0.074889  0  0.997792  0
H  H12  1  0.80131160  0.56515740  0.03405471  1  0.056654  0  0.10991  0.060015  0  0.976414  0
H  H13  1  0.19868598  0.06514849  0.96595006  1  0.056753  0  0.109869  0.059897  0  0.976436  0
H  H14  1  0.66359280  0.31898192  0.03630825  1  0.054078  0  0.105537  0.048535  0  0.992956  0
H  H15  1  0.33640479  0.81898202  0.96368269  1  0.053974  0  0.105536  0.048467  0  0.992901  0
H  H16  1  0.54985914  0.57100766  0.09337860  1  0.060883  0  0.094749  0.055618  0  1.019689  0
H  H17  1  0.45013643  0.07101434  0.90662954  1  0.060874  0  0.09473  0.055604  0  1.019731  0
H  H18  1  0.40310996  0.56673839  0.92465192  1  0.07359  0  0.106808  0.062835  0  1.02791  0
H  H19  1  0.59688978  0.06674336  0.07534934  1  0.07356  0  0.106801  0.06282  0  1.027898  0
H  H20  1  0.82543714  0.12250920  0.27161771  1  0.648838  0  0.298007  0.353657  0  1.002113  0
H  H21  1  0.17457071  0.62252204  0.72838124  1  0.648929  0  0.297973  0.353631  0  1.002163  0
H  H22  1  0.07107091  0.28830403  0.64933118  1  0.646241  0  0.327206  0.364073  0  0.898909  0
H  H23  1  0.92892649  0.78830281  0.35066424  1  0.64622  0  0.327236  0.364141  0  0.898861  0
H  H24  1  0.28118181  0.19073890  0.57220313  1  0.6663  0  0.307976  0.358653  0  0.996002  0
H  H25  1  0.71881370  0.69073269  0.42779186  1  0.666246  0  0.307978  0.358647  0  0.996016  0
H  H26  1  0.14924413  0.60970038  0.38419935  1  0.644943  0  0.304984  0.333596  0  0.999171  0
H  H27  1  0.85075573  0.10969296  0.61580795  1  0.645032  0  0.305001  0.333654  0  0.999034  0
H  H28  1  0.77697691  0.38937304  0.26367120  1  0.062899  0  0.1107  0.063118  0  0.989919  0
H  H29  1  0.22302867  0.88938546  0.73632691  1  0.06285  0  0.110687  0.063142  0  0.989846  0
H  H30  1  0.95987007  0.47779861  0.48410380  1  0.061264  0  0.110559  0.055017  0  1.000088  0
H  H31  1  0.04012676  0.97779624  0.51589953  1  0.061348  0  0.110565  0.055025  0  1.000109  0
H  H32  1  0.07899177  0.17850316  0.39030159  1  0.104632  0  0.113897  0.064848  0  1.031984  0
H  H33  1  0.92100229  0.67849858  0.60969333  1  0.104554  0  0.113891  0.064828  0  1.031993  0
H  H34  1  0.22824000  0.32607791  0.28043475  1  0.077652  0  0.116541  0.091091  0  1.000018  0
H  H35  1  0.77176911  0.82607210  0.71957614  1  0.077813  0  0.116553  0.091107  0  0.999973  0
H  H36  1  0.03291611  0.41590341  0.23019789  1  0.029228  0  0.096627  0.062389  0  1.007864  0
H  H37  1  0.96709300  0.91590645  0.76980731  1  0.029107  0  0.096671  0.06241  0  1.007854  0
C  C38  1  0.01025903  0.51633265  0.89289987  1  1.602078  0  0.204822  0.564032  0  4.204197  0
C  C39  1  0.98974746  0.01632038  0.10710676  1  1.60188  0  0.204721  0.563821  0  4.204398  0
C  C40  1  0.85037673  0.42681554  0.87867829  1  0.398151  0  -0.010102  0.02615  0  3.870369  0
C  C41  1  0.14962756  0.92680656  0.12132469  1  0.398084  0  -0.010125  0.026159  0  3.870785  0
C  C42  1  0.72957718  0.51358483  0.93448453  1  0.469789  0  -0.004867  0.105692  0  3.887839  0
C  C43  1  0.27042391  0.01357682  0.06551611  1  0.4699  0  -0.004766  0.105959  0  3.88772  0
C  C44  1  0.59900132  0.40499342  0.95852872  1  0.410073  0  -0.009179  0.115375  0  3.878765  0
C  C45  1  0.40099575  0.90499276  0.04146531  1  0.409562  0  -0.009177  0.11547  0  3.878596  0
C  C46  1  0.47857882  0.49444763  0.00962877  1  0.421375  0  -0.079016  0.023426  0  3.925806  0
C  C47  1  0.52141656  0.99445248  0.99036804  1  0.421652  0  -0.078926  0.023508  0  3.925604  0
C  C48  1  0.64645305  0.38417993  0.41116415  1  1.615708  0  0.220158  0.590657  0  4.146572  0
C  C49  1  0.35354366  0.88419184  0.58883021  1  1.615381  0  0.220121  0.59064  0  4.146566  0
C  C50  1  0.78188312  0.32155563  0.35613361  1  0.479654  0  0.003695  0.041358  0  3.901613  0
C  C51  1  0.21811732  0.82156564  0.64386180  1  0.47975  0  0.003639  0.041314  0  3.901414  0
C  C52  1  0.94994866  0.35323838  0.46524607  1  0.412096  0  -0.004376  0.105065  0  3.82119  0
C  C53  1  0.05005030  0.85323746  0.53475331  1  0.412031  0  -0.004323  0.105077  0  3.821163  0
C  C54  1  0.10049166  0.29683027  0.42849363  1  0.413358  0  -0.014022  0.100083  0  3.863416  0
C  C55  1  0.89950771  0.79682733  0.57150890  1  0.413399  0  -0.014026  0.100135  0  3.863374  0
C  C56  1  0.14338815  0.39215209  0.31928001  1  0.46023  0  -0.075181  0.016333  0  3.899812  0
C  C57  1  0.85661834  0.89214813  0.68072803  1  0.460417  0  -0.075177  0.016378  0  3.899761  0
O  O58  1  0.04784063  0.53380262  0.78339289  1  -1.198473  0  -0.321966  -0.563036  0  2.265114  0
O  O59  1  0.95216651  0.03378707  0.21661746  1  -1.198336  0  -0.321896  -0.56289  0  2.265135  0
O  O60  1  0.76261740  0.38528271  0.73907682  1  -1.161798  0  -0.432352  -0.55037  0  2.409014  0
O  O61  1  0.23738195  0.88527189  0.26092005  1  -1.16184  0  -0.432343  -0.550374  0  2.409162  0
O  O62  1  0.65224623  0.62960601  0.83640271  1  -1.196523  0  -0.433848  -0.552699  0  2.365025  0
O  O63  1  0.34775733  0.12960216  0.16360107  1  -1.195939  0  -0.433897  -0.552828  0  2.364977  0
O  O64  1  0.50703529  0.32688389  0.83272399  1  -1.113649  0  -0.41126  -0.509062  0  2.24664  0
O  O65  1  0.49296367  0.82688151  0.16726708  1  -1.113587  0  -0.411249  -0.509137  0  2.246553  0
O  O66  1  0.37282331  0.39783978  0.05662784  1  -1.172408  0  -0.403681  -0.48262  0  2.321827  0
O  O67  1  0.62716688  0.89785278  0.94335802  1  -1.172331  0  -0.403753  -0.482557  0  2.321703  0
O  O68  1  0.09539133  0.55581357  0.01406481  1  -1.202721  0  -0.336292  -0.577323  0  2.178382  0
O  O69  1  0.90461629  0.05580674  0.98594619  1  -1.202552  0  -0.336228  -0.577242  0  2.178566  0
O  O70  1  0.55144377  0.29117183  0.44349961  1  -1.215007  0  -0.379331  -0.590714  0  2.212069  0
O  O71  1  0.44855920  0.79118496  0.55650380  1  -1.214903  0  -0.379276  -0.590782  0  2.21216  0
O  O72  1  0.75165824  0.16463687  0.32377849  1  -1.194559  0  -0.432765  -0.549615  0  2.393563  0
O  O73  1  0.24834657  0.66464711  0.67621800  1  -1.194631  0  -0.432628  -0.549512  0  2.393406  0
O  O74  1  0.95402332  0.27828805  0.59252158  1  -1.157048  0  -0.368119  -0.477801  0  2.352059  0
O  O75  1  0.04597177  0.77828553  0.40747747  1  -1.157011  0  -0.368182  -0.477892  0  2.352061  0
O  O76  1  0.23658378  0.29806739  0.55628855  1  -1.189318  0  -0.431348  -0.561983  0  2.337168  0
O  O77  1  0.76341333  0.79806248  0.44371544  1  -1.18925  0  -0.431357  -0.562018  0  2.337271  0
O  O78  1  0.22734319  0.53078660  0.37448948  1  -1.177393  0  -0.446138  -0.510473  0  2.369477  0
O  O79  1  0.77265932  0.03077858  0.62552386  1  -1.177693  0  -0.44621  -0.51061  0  2.369273  0
O  O80  1  0.64065271  0.52781811  0.42958557  1  -1.225101  0  -0.344185  -0.594863  0  2.241296  0
O  O81  1  0.35934005  0.02782896  0.57039930  1  -1.224952  0  -0.344225  -0.594791  0  2.241243  0
