# generated using pymatgen
data_BaH15C20S2N5
_symmetry_space_group_name_H-M   'P 1'
_cell_length_a   10.01491168
_cell_length_b   10.58037515
_cell_length_c   10.34999217
_cell_angle_alpha   108.25160046
_cell_angle_beta   91.90238406
_cell_angle_gamma   92.98037537
_symmetry_Int_Tables_number   1
_chemical_formula_structural   BaH15C20S2N5
_chemical_formula_sum   'Ba2 H30 C40 S4 N10'
_cell_volume   1038.70100180
_cell_formula_units_Z   2
loop_
 _symmetry_equiv_pos_site_id
 _symmetry_equiv_pos_as_xyz
  1  'x, y, z'
loop_
 _atom_site_type_symbol
 _atom_site_label
 _atom_site_symmetry_multiplicity
 _atom_site_fract_x
 _atom_site_fract_y
 _atom_site_fract_z
 _atom_site_occupancy
 _atom_site_hle17_bader_spin_density
 _atom_site_hle17_ddec_charge
 _atom_site_hle17_ddec_spin_density
 _atom_site_hle17_ddec_sum_bond_order
 _atom_site_hle17_magmom
 _atom_site_hse06_10hf_bader_spin_density
 _atom_site_hse06_10hf_ddec_charge
 _atom_site_hse06_10hf_ddec_spin_density
 _atom_site_hse06_10hf_ddec_sum_bond_order
 _atom_site_hse06_10hf_magmom
 _atom_site_hse06_bader_spin_density
 _atom_site_hse06_ddec_charge
 _atom_site_hse06_ddec_spin_density
 _atom_site_hse06_ddec_sum_bond_order
 _atom_site_hse06_magmom
 _atom_site_pbe_bader_spin_density
 _atom_site_pbe_cm5_charge
 _atom_site_pbe_ddec_charge
 _atom_site_pbe_ddec_spin_density
 _atom_site_pbe_ddec_sum_bond_order
 _atom_site_pbe_magmom
Ba  Ba0  1  0.03358429  0.55905582  0.72690701  1  0  1.445974  0  1.316915  0  0  1.269834  0  1.733629  0  0  1.305935  0  1.703403  0  0  0.933374  1.241106  0  1.7583  0
Ba  Ba1  1  0.96641705  0.44094344  0.27308819  1  0  1.445925  0  1.316961  0  0  1.269859  0  1.733559  0  0  1.305956  0  1.703338  0  0  0.93335  1.241051  0  1.758336  0
H  H2  1  0.70994572  0.53785615  0.89155445  1  0  0.070081  0  0.951107  0  0  0.077753  0  1.017336  0  0  0.079746  0  1.016043  0  0  0.115541  0.076705  0  1.017508  0
H  H3  1  0.29005251  0.46214108  0.10843808  1  0  0.070148  0  0.951096  0  0  0.077818  0  1.017315  0  0  0.079811  0  1.016023  0  0  0.115575  0.076769  0  1.017488  0
H  H4  1  0.50817128  0.67081223  0.94273616  1  0  0.103821  0  0.966802  0  0  0.111662  0  1.033256  0  0  0.115034  0  1.032422  0  0  0.09951  0.108575  0  1.035216  0
H  H5  1  0.49182694  0.32918503  0.05725927  1  0  0.103825  0  0.966773  0  0  0.111656  0  1.033253  0  0  0.115024  0  1.032421  0  0  0.099528  0.108572  0  1.035194  0
H  H6  1  0.77252214  0.02598881  0.01786718  1  0  0.096213  0  0.993136  0  0  0.102132  0  1.065453  0  0  0.105649  0  1.064104  0  0  0.095091  0.099728  0  1.066649  0
H  H7  1  0.22747706  0.97400849  0.98213120  1  0  0.096268  0  0.993103  0  0  0.102184  0  1.065422  0  0  0.105719  0  1.064026  0  0  0.095105  0.099781  0  1.06662  0
H  H8  1  0.96216246  0.87859923  0.97001459  1  0  0.061131  0  0.947208  0  0  0.069507  0  1.014902  0  0  0.071832  0  1.01327  0  0  0.111393  0.067766  0  1.016423  0
H  H9  1  0.03783775  0.12139805  0.02998188  1  0  0.061106  0  0.947224  0  0  0.069509  0  1.014902  0  0  0.071831  0  1.013269  0  0  0.111389  0.067767  0  1.016424  0
H  H10  1  0.41204197  0.88355172  0.01893079  1  0  0.092008  0  1.002007  0  0  0.103665  0  1.065619  0  0  0.106369  0  1.064905  0  0  0.08894  0.101666  0  1.066216  0
H  H11  1  0.58795597  0.11644160  0.98106824  1  0  0.092015  0  1.00194  0  0  0.103701  0  1.065514  0  0  0.106392  0  1.064814  0  0  0.088947  0.101701  0  1.066114  0
H  H12  1  0.41570457  0.51754418  0.69626166  1  0  0.062201  0  0.961312  0  0  0.06761  0  1.032347  0  0  0.070063  0  1.030756  0  0  0.107245  0.066366  0  1.032747  0
H  H13  1  0.58429694  0.48245811  0.30373835  1  0  0.062156  0  0.96139  0  0  0.067594  0  1.032398  0  0  0.07005  0  1.030804  0  0  0.107218  0.066349  0  1.032798  0
H  H14  1  0.58696487  0.35090408  0.67265046  1  0  0.10965  0  0.953359  0  0  0.121112  0  1.011604  0  0  0.123525  0  1.011699  0  0  0.108326  0.119112  0  1.01198  0
H  H15  1  0.41303771  0.64909920  0.32734893  1  0  0.109632  0  0.953414  0  0  0.121094  0  1.011663  0  0  0.123506  0  1.01176  0  0  0.108316  0.119111  0  1.012025  0
H  H16  1  0.26876968  0.06818663  0.69757062  1  0  0.096147  0  0.967183  0  0  0.103749  0  1.035477  0  0  0.106944  0  1.034777  0  0  0.098843  0.101994  0  1.035467  0
H  H17  1  0.73123284  0.93181566  0.30242846  1  0  0.096213  0  0.967138  0  0  0.103798  0  1.035433  0  0  0.106991  0  1.034733  0  0  0.09888  0.102046  0  1.03542  0
H  H18  1  0.11094412  0.24955227  0.72437811  1  0  0.071574  0  0.97166  0  0  0.079731  0  1.037637  0  0  0.082224  0  1.035189  0  0  0.115146  0.078166  0  1.038849  0
H  H19  1  0.88905640  0.75045001  0.27562090  1  0  0.071597  0  0.97174  0  0  0.079761  0  1.037706  0  0  0.082254  0  1.03526  0  0  0.11514  0.078197  0  1.038916  0
H  H20  1  0.47892469  0.99201030  0.66819338  1  0  0.083164  0  0.987955  0  0  0.092847  0  1.055893  0  0  0.095672  0  1.054777  0  0  0.092415  0.091009  0  1.056194  0
H  H21  1  0.52107183  0.00799196  0.33180450  1  0  0.083174  0  0.98798  0  0  0.092851  0  1.055915  0  0  0.095678  0  1.054796  0  0  0.09242  0.091011  0  1.056225  0
H  H22  1  0.71947781  0.18512698  0.66377153  1  0  0.10048  0  0.954852  0  0  0.111836  0  1.016095  0  0  0.113811  0  1.016017  0  0  0.105084  0.110392  0  1.016107  0
H  H23  1  0.28052254  0.81487339  0.33623461  1  0  0.100478  0  0.954833  0  0  0.111832  0  1.01608  0  0  0.113807  0  1.016003  0  0  0.105075  0.110387  0  1.016095  0
H  H24  1  0.93473482  0.09563622  0.66925888  1  0  0.107388  0  0.962895  0  0  0.117765  0  1.02342  0  0  0.120558  0  1.023218  0  0  0.105965  0.115846  0  1.023501  0
H  H25  1  0.06526076  0.90436816  0.33075219  1  0  0.107458  0  0.962833  0  0  0.117799  0  1.023392  0  0  0.120591  0  1.023195  0  0  0.106015  0.115881  0  1.023476  0
H  H26  1  0.07327920  0.90226604  0.65881454  1  0  0.058455  0  0.97074  0  0  0.063485  0  1.043798  0  0  0.066002  0  1.041904  0  0  0.104184  0.061758  0  1.045079  0
H  H27  1  0.92672040  0.09773832  0.34119377  1  0  0.058564  0  0.970733  0  0  0.063586  0  1.043784  0  0  0.066107  0  1.041889  0  0  0.104232  0.061858  0  1.045064  0
H  H28  1  0.73488869  0.64798928  0.61634823  1  0  0.070586  0  0.950429  0  0  0.079794  0  1.014371  0  0  0.081897  0  1.012835  0  0  0.117617  0.078146  0  1.01585  0
H  H29  1  0.26511169  0.35201102  0.38365209  1  0  0.07058  0  0.950482  0  0  0.079794  0  1.014419  0  0  0.081898  0  1.012883  0  0  0.117615  0.078146  0  1.015896  0
H  H30  1  0.58359493  0.82682855  0.62833238  1  0  0.095612  0  0.991521  0  0  0.102654  0  1.060322  0  0  0.105702  0  1.059871  0  0  0.094224  0.100592  0  1.060743  0
H  H31  1  0.41640337  0.17317079  0.37167142  1  0  0.095577  0  0.991558  0  0  0.102651  0  1.060322  0  0  0.1057  0  1.059871  0  0  0.094221  0.100586  0  1.060745  0
C  C32  1  0.23589959  0.65996397  0.55353869  1  0  0.25669  0  4.124777  0  0  0.246906  0  4.417354  0  0  0.267595  0  4.431878  0  0  0.129947  0.232595  0  4.40673  0
C  C33  1  0.76410250  0.34003131  0.44645530  1  0  0.25667  0  4.124514  0  0  0.246876  0  4.417119  0  0  0.267567  0  4.431644  0  0  0.129901  0.232571  0  4.406486  0
C  C34  1  0.86323332  0.33040367  0.89697101  1  0  0.315083  0  4.050027  0  0  0.295939  0  4.358238  0  0  0.317331  0  4.370378  0  0  0.160334  0.281334  0  4.349593  0
C  C35  1  0.13677302  0.66959561  0.10302438  1  0  0.314941  0  4.050087  0  0  0.295791  0  4.358305  0  0  0.317187  0  4.370448  0  0  0.160302  0.281187  0  4.349655  0
C  C36  1  0.71957962  0.64653961  0.91986934  1  0  0.125928  0  3.745619  0  0  0.101909  0  3.998332  0  0  0.108256  0  4.016732  0  0  0.04948  0.097543  0  3.985571  0
C  C37  1  0.28041847  0.35345566  0.08012547  1  0  0.125769  0  3.745846  0  0  0.101758  0  3.998553  0  0  0.108106  0  4.016955  0  0  0.049427  0.097392  0  3.985787  0
C  C38  1  0.60725878  0.72074318  0.94792786  1  0  -0.165256  0  3.689123  0  0  -0.182101  0  3.932481  0  0  -0.189804  0  3.953631  0  0  -0.083413  -0.177082  0  3.919778  0
C  C39  1  0.39273944  0.27925408  0.05206757  1  0  -0.165266  0  3.689255  0  0  -0.182102  0  3.932584  0  0  -0.1898  0  3.953737  0  0  -0.08346  -0.177081  0  3.919884  0
C  C40  1  0.62165717  0.86040109  0.98017458  1  0  0.140919  0  3.781432  0  0  0.155379  0  4.011371  0  0  0.160438  0  4.033747  0  0  0.007749  0.152119  0  3.996967  0
C  C41  1  0.37834097  0.13959520  0.01982345  1  0  0.141087  0  3.781453  0  0  0.155537  0  4.011375  0  0  0.160593  0  4.033751  0  0  0.007778  0.152272  0  3.996971  0
C  C42  1  0.75305677  0.91822321  0.99024445  1  0  -0.164813  0  3.695786  0  0  -0.179052  0  3.936823  0  0  -0.186663  0  3.958352  0  0  -0.085219  -0.175064  0  3.923745  0
C  C43  1  0.24694149  0.08177508  0.00975420  1  0  -0.164992  0  3.695867  0  0  -0.179239  0  3.936913  0  0  -0.186846  0  3.958449  0  0  -0.085233  -0.175252  0  3.923836  0
C  C44  1  0.85924323  0.83607854  0.96301573  1  0  0.12015  0  3.76487  0  0  0.094876  0  4.018359  0  0  0.100767  0  4.037512  0  0  0.043619  0.090909  0  4.006242  0
C  C45  1  0.14075396  0.16391878  0.03698451  1  0  0.120193  0  3.764876  0  0  0.094878  0  4.018386  0  0  0.100772  0  4.037538  0  0  0.043616  0.090913  0  4.006263  0
C  C46  1  0.50261160  0.93672922  0.00128491  1  0  -0.094238  0  3.686558  0  0  -0.110518  0  3.928539  0  0  -0.113594  0  3.948585  0  0  -0.084441  -0.108067  0  3.914311  0
C  C47  1  0.49738747  0.06326610  0.99871381  1  0  -0.094286  0  3.68646  0  0  -0.110565  0  3.928422  0  0  -0.113634  0  3.94848  0  0  -0.084498  -0.108111  0  3.914195  0
C  C48  1  0.38723791  0.41655555  0.69685697  1  0  0.123597  0  3.756836  0  0  0.098254  0  4.010959  0  0  0.104192  0  4.029422  0  0  0.044498  0.094451  0  3.996926  0
C  C49  1  0.61276459  0.58344677  0.30314502  1  0  0.123653  0  3.756827  0  0  0.098294  0  4.010942  0  0  0.104232  0  4.029403  0  0  0.044577  0.094491  0  3.996909  0
C  C50  1  0.48270399  0.32319703  0.68407116  1  0  -0.162977  0  3.681131  0  0  -0.177808  0  3.919428  0  0  -0.185089  0  3.940771  0  0  -0.081386  -0.172195  0  3.904225  0
C  C51  1  0.51729582  0.67681025  0.31593130  1  0  -0.162938  0  3.681056  0  0  -0.177799  0  3.919359  0  0  -0.185083  0  3.940703  0  0  -0.081403  -0.172205  0  3.904156  0
C  C52  1  0.44216450  0.19345758  0.68354918  1  0  0.13741  0  3.797877  0  0  0.152688  0  4.026354  0  0  0.157784  0  4.048332  0  0  0.007324  0.149313  0  4.011692  0
C  C53  1  0.55783712  0.80654674  0.31645436  1  0  0.137353  0  3.798163  0  0  0.152676  0  4.02656  0  0  0.157775  0  4.048534  0  0  0.007293  0.149301  0  4.011903  0
C  C54  1  0.30527031  0.16711276  0.69748260  1  0  -0.159425  0  3.705862  0  0  -0.175079  0  3.949012  0  0  -0.182912  0  3.970903  0  0  -0.08328  -0.171081  0  3.93542  0
C  C55  1  0.69472950  0.83289454  0.30252082  1  0  -0.159452  0  3.70581  0  0  -0.1751  0  3.948947  0  0  -0.182931  0  3.970834  0  0  -0.083286  -0.171103  0  3.935355  0
C  C56  1  0.21725506  0.26693793  0.71100922  1  0  0.127833  0  3.741438  0  0  0.101883  0  3.992551  0  0  0.108438  0  4.01068  0  0  0.046098  0.097993  0  3.980008  0
C  C57  1  0.78274745  0.73306436  0.28898986  1  0  0.127674  0  3.741482  0  0  0.101711  0  3.992608  0  0  0.108265  0  4.010739  0  0  0.046037  0.097823  0  3.980057  0
C  C58  1  0.53054613  0.08601121  0.66963799  1  0  -0.093788  0  3.717662  0  0  -0.11279  0  3.967879  0  0  -0.115596  0  3.988219  0  0  -0.081546  -0.110665  0  3.953516  0
C  C59  1  0.46945437  0.91399110  0.33036392  1  0  -0.093735  0  3.717616  0  0  -0.112731  0  3.967812  0  0  -0.115537  0  3.98815  0  0  -0.081532  -0.11061  0  3.953448  0
C  C60  1  0.66492055  0.09214235  0.66103812  1  0  -0.094292  0  3.694725  0  0  -0.116466  0  3.9475  0  0  -0.119438  0  3.967651  0  0  -0.079  -0.114112  0  3.932779  0
C  C61  1  0.33507894  0.90785999  0.33896666  1  0  -0.094312  0  3.694604  0  0  -0.116508  0  3.947391  0  0  -0.119483  0  3.967543  0  0  -0.078993  -0.114149  0  3.932666  0
C  C62  1  0.74636768  0.97973719  0.65150144  1  0  0.138108  0  3.787958  0  0  0.153608  0  4.017743  0  0  0.158891  0  4.040022  0  0  0.007308  0.150737  0  4.002162  0
C  C63  1  0.25362762  0.02026213  0.34850128  1  0  0.138103  0  3.78809  0  0  0.15363  0  4.017818  0  0  0.158915  0  4.040093  0  0  0.007321  0.150757  0  4.002236  0
C  C64  1  0.88692354  0.99750917  0.65768535  1  0  -0.169671  0  3.689164  0  0  -0.185537  0  3.929097  0  0  -0.19393  0  3.951342  0  0  -0.085399  -0.180064  0  3.913402  0
C  C65  1  0.11307387  0.00249219  0.34232195  1  0  -0.169742  0  3.689373  0  0  -0.185582  0  3.929287  0  0  -0.193981  0  3.951536  0  0  -0.085469  -0.180116  0  3.913599  0
C  C66  1  0.96388837  0.89017593  0.65181488  1  0  0.120669  0  3.767127  0  0  0.097274  0  4.01869  0  0  0.103523  0  4.037466  0  0  0.043686  0.093525  0  4.005469  0
C  C67  1  0.03611010  0.10982643  0.34819180  1  0  0.120422  0  3.767234  0  0  0.097044  0  4.018764  0  0  0.103288  0  4.037543  0  0  0.043579  0.093295  0  4.005538  0
C  C68  1  0.77582529  0.74920106  0.62966033  1  0  0.121835  0  3.761639  0  0  0.093482  0  4.019792  0  0  0.099767  0  4.038767  0  0  0.043937  0.08936  0  4.007334  0
C  C69  1  0.22417315  0.25080025  0.37034119  1  0  0.121773  0  3.761694  0  0  0.093401  0  4.019877  0  0  0.099685  0  4.038853  0  0  0.043889  0.089279  0  4.00741  0
C  C70  1  0.69139453  0.85032163  0.63624307  1  0  -0.156239  0  3.694433  0  0  -0.171046  0  3.935661  0  0  -0.178681  0  3.95779  0  0  -0.083261  -0.166477  0  3.92197  0
C  C71  1  0.30860477  0.14967772  0.36376078  1  0  -0.156149  0  3.694367  0  0  -0.170975  0  3.935547  0  0  -0.17861  0  3.957674  0  0  -0.083212  -0.166405  0  3.921854  0
S  S72  1  0.31849706  0.77242145  0.67839126  1  0  -0.355318  0  2.035799  0  0  -0.327537  0  2.326817  0  0  -0.342346  0  2.323825  0  0  -0.128618  -0.31629  0  2.327944  0
S  S73  1  0.68150217  0.22757578  0.32160033  1  0  -0.355269  0  2.035735  0  0  -0.327514  0  2.326811  0  0  -0.342323  0  2.323819  0  0  -0.128597  -0.316262  0  2.327926  0
S  S74  1  0.77748070  0.28743093  0.00919655  1  0  -0.446548  0  2.164484  0  0  -0.416921  0  2.493891  0  0  -0.433126  0  2.488571  0  0  -0.165648  -0.404983  0  2.498141  0
S  S75  1  0.22252565  0.71256832  0.99079594  1  0  -0.446415  0  2.164401  0  0  -0.416762  0  2.493795  0  0  -0.432979  0  2.488478  0  0  -0.165579  -0.404836  0  2.498046  0
N  N76  1  0.16961489  0.57454306  0.46933296  1  0  -0.622288  0  2.772368  0  0  -0.56863  0  3.02542  0  0  -0.586889  0  3.03259  0  0  -0.468217  -0.555648  0  3.021053  0
N  N77  1  0.83039138  0.42545524  0.53066406  1  0  -0.622295  0  2.772104  0  0  -0.568619  0  3.025165  0  0  -0.586877  0  3.032337  0  0  -0.468184  -0.555643  0  3.020792  0
N  N78  1  0.92330972  0.36086678  0.81318814  1  0  -0.595541  0  2.751091  0  0  -0.548148  0  3.011595  0  0  -0.565933  0  3.017486  0  0  -0.463094  -0.535856  0  3.007895  0
N  N79  1  0.07669450  0.63913049  0.18680558  1  0  -0.59552  0  2.751201  0  0  -0.548138  0  3.011697  0  0  -0.565917  0  3.017595  0  0  -0.463136  -0.535834  0  3.008001  0
N  N80  1  0.84461545  0.70175997  0.92467661  1  0  -0.384341  0  3.169724  0  0  -0.327484  0  3.433618  0  0  -0.343409  0  3.453895  0  0  -0.366037  -0.316382  0  3.420799  0
N  N81  1  0.15538476  0.29823731  0.07531987  1  0  -0.384248  0  3.169779  0  0  -0.327402  0  3.433702  0  0  -0.343329  0  3.453981  0  0  -0.366009  -0.316286  0  3.420859  0
N  N82  1  0.25592338  0.39046922  0.71006928  1  0  -0.390019  0  3.177543  0  0  -0.330007  0  3.442248  0  0  -0.346017  0  3.462131  0  0  -0.37268  -0.318112  0  3.42767  0
N  N83  1  0.74407924  0.60953510  0.28993333  1  0  -0.389927  0  3.177725  0  0  -0.329927  0  3.442442  0  0  -0.345932  0  3.462324  0  0  -0.372642  -0.318019  0  3.427853  0
N  N84  1  0.91074438  0.76696319  0.63883457  1  0  -0.397961  0  3.176675  0  0  -0.33824  0  3.440487  0  0  -0.354554  0  3.460524  0  0  -0.36561  -0.326734  0  3.426663  0
N  N85  1  0.08925611  0.23303915  0.36117025  1  0  -0.397806  0  3.17662  0  0  -0.338092  0  3.440423  0  0  -0.354403  0  3.460463  0  0  -0.365544  -0.326578  0  3.426592  0
