# generated using pymatgen
data_CsH7C7(NO4)2
_symmetry_space_group_name_H-M   'P 1'
_cell_length_a   4.61128494
_cell_length_b   15.04198340
_cell_length_c   17.37271052
_cell_angle_alpha   106.71803111
_cell_angle_beta   90.00017642
_cell_angle_gamma   89.99981188
_symmetry_Int_Tables_number   1
_chemical_formula_structural   CsH7C7(NO4)2
_chemical_formula_sum   'Cs4 H28 C28 N8 O32'
_cell_volume   1154.08727323
_cell_formula_units_Z   4
loop_
 _symmetry_equiv_pos_site_id
 _symmetry_equiv_pos_as_xyz
  1  'x, y, z'
loop_
 _atom_site_type_symbol
 _atom_site_label
 _atom_site_symmetry_multiplicity
 _atom_site_fract_x
 _atom_site_fract_y
 _atom_site_fract_z
 _atom_site_occupancy
 _atom_site_hle17_bader_spin_density
 _atom_site_hle17_ddec_charge
 _atom_site_hle17_ddec_spin_density
 _atom_site_hle17_ddec_sum_bond_order
 _atom_site_hle17_magmom
 _atom_site_hse06_10hf_bader_spin_density
 _atom_site_hse06_10hf_ddec_charge
 _atom_site_hse06_10hf_ddec_spin_density
 _atom_site_hse06_10hf_ddec_sum_bond_order
 _atom_site_hse06_10hf_magmom
 _atom_site_hse06_bader_spin_density
 _atom_site_hse06_ddec_charge
 _atom_site_hse06_ddec_spin_density
 _atom_site_hse06_ddec_sum_bond_order
 _atom_site_hse06_magmom
 _atom_site_pbe_bader_spin_density
 _atom_site_pbe_cm5_charge
 _atom_site_pbe_ddec_charge
 _atom_site_pbe_ddec_spin_density
 _atom_site_pbe_ddec_sum_bond_order
 _atom_site_pbe_magmom
Cs  Cs0  1  0.87608231  0.36841992  0.54170510  1  0  0.956099  0  0.541246  0  0  0.898846  0  0.779403  0  0  0.915745  0  0.751875  0  0  0.833986  0.886461  0  0.798944  0
Cs  Cs1  1  0.37608003  0.13157986  0.95829478  1  0  0.956099  0  0.541244  0  0  0.898844  0  0.779392  0  0  0.915744  0  0.751873  0  0  0.833995  0.886464  0  0.798934  0
Cs  Cs2  1  0.12391695  0.63158043  0.45829458  1  0  0.956101  0  0.541243  0  0  0.898827  0  0.77942  0  0  0.915731  0  0.751878  0  0  0.833986  0.886449  0  0.798962  0
Cs  Cs3  1  0.62392141  0.86842050  0.04170490  1  0  0.956096  0  0.541256  0  0  0.89885  0  0.7794  0  0  0.91577  0  0.751908  0  0  0.833998  0.886471  0  0.798943  0
H  H4  1  0.54262326  0.37411231  0.74567904  1  0  0.129833  0  0.95814  0  0  0.126474  0  1.038127  0  0  0.131884  0  1.032466  0  0  0.121314  0.122536  0  1.042259  0
H  H5  1  0.04262519  0.12588424  0.75432089  1  0  0.129776  0  0.958134  0  0  0.126409  0  1.038164  0  0  0.131819  0  1.032503  0  0  0.121304  0.122473  0  1.042298  0
H  H6  1  0.45737818  0.62588872  0.25432197  1  0  0.129787  0  0.958137  0  0  0.126423  0  1.038138  0  0  0.131835  0  1.032476  0  0  0.121302  0.122485  0  1.042271  0
H  H7  1  0.95737625  0.87411403  0.24567826  1  0  0.129754  0  0.958161  0  0  0.126394  0  1.03817  0  0  0.131806  0  1.032506  0  0  0.121291  0.122457  0  1.042302  0
H  H8  1  0.19161548  0.44902128  0.93297549  1  0  0.144693  0  0.942028  0  0  0.14723  0  1.011304  0  0  0.151995  0  1.006654  0  0  0.124134  0.143776  0  1.014659  0
H  H9  1  0.69161065  0.05097655  0.56702489  1  0  0.144694  0  0.942039  0  0  0.147261  0  1.011286  0  0  0.152029  0  1.006633  0  0  0.124139  0.143807  0  1.014641  0
H  H10  1  0.80838379  0.55097977  0.06702437  1  0  0.144712  0  0.942031  0  0  0.147231  0  1.011313  0  0  0.151997  0  1.006662  0  0  0.124137  0.143778  0  1.01467  0
H  H11  1  0.30839295  0.94902241  0.43297500  1  0  0.144674  0  0.942065  0  0  0.147252  0  1.011301  0  0  0.152019  0  1.006649  0  0  0.124139  0.143799  0  1.014661  0
H  H12  1  0.80547091  0.66017115  0.84210450  1  0  0.136699  0  0.945348  0  0  0.137884  0  1.017518  0  0  0.143378  0  1.011449  0  0  0.128376  0.133821  0  1.021964  0
H  H13  1  0.30546724  0.83982882  0.65789587  1  0  0.136685  0  0.945351  0  0  0.137867  0  1.01752  0  0  0.143361  0  1.011449  0  0  0.128366  0.133806  0  1.021963  0
H  H14  1  0.19452619  0.33982990  0.15789537  1  0  0.136721  0  0.945292  0  0  0.13789  0  1.017496  0  0  0.143382  0  1.011432  0  0  0.128366  0.13383  0  1.021934  0
H  H15  1  0.69453203  0.16017014  0.34210402  1  0  0.136656  0  0.945371  0  0  0.137831  0  1.017548  0  0  0.143324  0  1.01148  0  0  0.128367  0.13377  0  1.021983  0
H  H16  1  0.24839958  0.37369380  0.39882108  1  0  0.4153  0  0.8945  0  0  0.386759  0  0.955238  0  0  0.397543  0  0.939326  0  0  0.27582  0.379126  0  0.966484  0
H  H17  1  0.74839867  0.12630687  0.10117967  1  0  0.415312  0  0.894485  0  0  0.386769  0  0.955229  0  0  0.397553  0  0.939316  0  0  0.2758  0.379135  0  0.966476  0
H  H18  1  0.75159968  0.62630654  0.60117975  1  0  0.41529  0  0.894513  0  0  0.38675  0  0.95525  0  0  0.397533  0  0.939339  0  0  0.275807  0.379117  0  0.966495  0
H  H19  1  0.25160059  0.87369348  0.89882059  1  0  0.415247  0  0.894568  0  0  0.386702  0  0.955318  0  0  0.397486  0  0.939405  0  0  0.275776  0.379068  0  0.966564  0
H  H20  1  0.49065276  0.45049378  0.41165464  1  0  0.40696  0  0.899637  0  0  0.382359  0  0.954933  0  0  0.392045  0  0.940637  0  0  0.288172  0.375412  0  0.965198  0
H  H21  1  0.99065470  0.04950671  0.08834569  1  0  0.406953  0  0.899658  0  0  0.382348  0  0.954962  0  0  0.392035  0  0.940665  0  0  0.288149  0.3754  0  0.965227  0
H  H22  1  0.50934434  0.54950657  0.58834562  1  0  0.406989  0  0.899593  0  0  0.382386  0  0.954893  0  0  0.392074  0  0.940595  0  0  0.288191  0.375439  0  0.965158  0
H  H23  1  0.00934456  0.95049365  0.91165399  1  0  0.406984  0  0.899608  0  0  0.382367  0  0.954937  0  0  0.392057  0  0.940635  0  0  0.288157  0.375421  0  0.965201  0
H  H24  1  0.85733590  0.32933269  0.31477260  1  0  0.415478  0  0.889534  0  0  0.383596  0  0.954822  0  0  0.395259  0  0.937652  0  0  0.283379  0.37532  0  0.966988  0
H  H25  1  0.35733655  0.17066791  0.18522707  1  0  0.415494  0  0.889516  0  0  0.383614  0  0.954799  0  0  0.395277  0  0.937629  0  0  0.283396  0.375337  0  0.966965  0
H  H26  1  0.14266770  0.67066767  0.68522650  1  0  0.415505  0  0.889497  0  0  0.383624  0  0.954782  0  0  0.395287  0  0.937613  0  0  0.283408  0.375347  0  0.966947  0
H  H27  1  0.64266272  0.82933243  0.81477376  1  0  0.415492  0  0.889518  0  0  0.383611  0  0.954803  0  0  0.395274  0  0.937634  0  0  0.283397  0.375336  0  0.966968  0
H  H28  1  0.04417474  0.23995202  0.31262298  1  0  0.417566  0  0.885961  0  0  0.38706  0  0.949317  0  0  0.397434  0  0.934123  0  0  0.28514  0.379732  0  0.960013  0
H  H29  1  0.54417120  0.26004812  0.18737689  1  0  0.417558  0  0.88597  0  0  0.387059  0  0.949322  0  0  0.397429  0  0.934129  0  0  0.285134  0.379732  0  0.960018  0
H  H30  1  0.95582670  0.76004695  0.68737634  1  0  0.417569  0  0.885956  0  0  0.38707  0  0.949308  0  0  0.39744  0  0.934115  0  0  0.285143  0.379744  0  0.960003  0
H  H31  1  0.45583023  0.73995222  0.81262394  1  0  0.417577  0  0.885945  0  0  0.387076  0  0.949299  0  0  0.397446  0  0.934106  0  0  0.285147  0.379749  0  0.959995  0
C  C32  1  0.44997993  0.54646608  0.72803404  1  0  0.649665  0  3.942695  0  0  0.598906  0  4.240838  0  0  0.631941  0  4.235439  0  0  0.20656  0.576677  0  4.243505  0
C  C33  1  0.94997527  0.95353309  0.77196566  1  0  0.649685  0  3.943027  0  0  0.59895  0  4.24112  0  0  0.631986  0  4.235723  0  0  0.206625  0.576723  0  4.243786  0
C  C34  1  0.55001934  0.45353358  0.27196546  1  0  0.649825  0  3.942708  0  0  0.599053  0  4.240864  0  0  0.632091  0  4.235464  0  0  0.20662  0.576825  0  4.243534  0
C  C35  1  0.05002616  0.04646656  0.22803441  1  0  0.649681  0  3.94272  0  0  0.598922  0  4.240846  0  0  0.631958  0  4.23545  0  0  0.206587  0.576693  0  4.243514  0
C  C36  1  0.65349419  0.51971856  0.78665127  1  0  -0.037939  0  3.679146  0  0  -0.013204  0  3.917568  0  0  -0.023083  0  3.940079  0  0  -0.000603  -0.00742  0  3.902828  0
C  C37  1  0.15348746  0.98028083  0.71334939  1  0  -0.03809  0  3.679279  0  0  -0.01335  0  3.917718  0  0  -0.02323  0  3.940229  0  0  -0.000686  -0.007567  0  3.902979  0
C  C38  1  0.34650291  0.48028109  0.21334880  1  0  -0.038039  0  3.679207  0  0  -0.013258  0  3.917603  0  0  -0.023145  0  3.940125  0  0  -0.000575  -0.007476  0  3.902865  0
C  C39  1  0.84651180  0.01971813  0.28665050  1  0  -0.038168  0  3.67929  0  0  -0.013404  0  3.917702  0  0  -0.023288  0  3.940219  0  0  -0.000676  -0.007619  0  3.90296  0
C  C40  1  0.67353032  0.42698589  0.78714066  1  0  -0.061936  0  3.620685  0  0  -0.099067  0  3.87336  0  0  -0.094858  0  3.889311  0  0  -0.051785  -0.101331  0  3.862459  0
C  C41  1  0.17353018  0.07301197  0.71285856  1  0  -0.061632  0  3.620619  0  0  -0.098844  0  3.873299  0  0  -0.09464  0  3.889258  0  0  -0.051732  -0.101113  0  3.862402  0
C  C42  1  0.32647111  0.57301447  0.21285845  1  0  -0.061789  0  3.620719  0  0  -0.098945  0  3.873349  0  0  -0.094736  0  3.889304  0  0  -0.05175  -0.101213  0  3.862459  0
C  C43  1  0.82646908  0.92698700  0.28714076  1  0  -0.0616  0  3.620719  0  0  -0.098807  0  3.873347  0  0  -0.094597  0  3.8893  0  0  -0.051673  -0.101076  0  3.862455  0
C  C44  1  0.86272965  0.40361236  0.84082402  1  0  0.084854  0  3.675348  0  0  0.082689  0  3.927971  0  0  0.077544  0  3.950064  0  0  0.08515  0.085719  0  3.913115  0
C  C45  1  0.36272864  0.09638535  0.65917532  1  0  0.084599  0  3.675538  0  0  0.082596  0  3.927985  0  0  0.077455  0  3.950076  0  0  0.085213  0.085626  0  3.913126  0
C  C46  1  0.13727178  0.59638730  0.15917606  1  0  0.084745  0  3.675388  0  0  0.082659  0  3.927901  0  0  0.07752  0  3.949991  0  0  0.085113  0.085688  0  3.913046  0
C  C47  1  0.63727280  0.90361291  0.34082440  1  0  0.084568  0  3.675586  0  0  0.082577  0  3.928015  0  0  0.077438  0  3.950105  0  0  0.085115  0.085607  0  3.913162  0
C  C48  1  0.04045770  0.46866346  0.89276718  1  0  -0.116358  0  3.677806  0  0  -0.15724  0  3.942305  0  0  -0.153673  0  3.958864  0  0  -0.065068  -0.15903  0  3.930848  0
C  C49  1  0.54045789  0.03133448  0.60723310  1  0  -0.116268  0  3.677851  0  0  -0.157249  0  3.942322  0  0  -0.153684  0  3.958877  0  0  -0.065093  -0.159042  0  3.930872  0
C  C50  1  0.95953939  0.53133758  0.10723325  1  0  -0.116351  0  3.677807  0  0  -0.157226  0  3.942275  0  0  -0.153659  0  3.958834  0  0  -0.065051  -0.159019  0  3.930823  0
C  C51  1  0.45954354  0.96866585  0.39276773  1  0  -0.116236  0  3.677876  0  0  -0.157241  0  3.94233  0  0  -0.153676  0  3.958888  0  0  -0.065068  -0.159037  0  3.930882  0
C  C52  1  0.01232404  0.56019560  0.89150997  1  0  0.083827  0  3.699448  0  0  0.070704  0  3.954803  0  0  0.065173  0  3.977049  0  0  0.083693  0.073848  0  3.93984  0
C  C53  1  0.51231548  0.93980180  0.60849122  1  0  0.083852  0  3.699318  0  0  0.070762  0  3.954696  0  0  0.065236  0  3.976933  0  0  0.083754  0.073905  0  3.939732  0
C  C54  1  0.98767305  0.43980476  0.10848971  1  0  0.083805  0  3.699395  0  0  0.07066  0  3.954783  0  0  0.065126  0  3.977034  0  0  0.083683  0.073804  0  3.939818  0
C  C55  1  0.48768379  0.06019783  0.39151001  1  0  0.083775  0  3.699401  0  0  0.070703  0  3.95472  0  0  0.065173  0  3.976964  0  0  0.083711  0.073848  0  3.939755  0
C  C56  1  0.82134973  0.58732988  0.84022868  1  0  -0.045898  0  3.615551  0  0  -0.091307  0  3.879291  0  0  -0.085018  0  3.892114  0  0  -0.047695  -0.094939  0  3.870681  0
C  C57  1  0.32133662  0.91266868  0.65977248  1  0  -0.045857  0  3.615528  0  0  -0.091257  0  3.879239  0  0  -0.084969  0  3.892062  0  0  -0.047679  -0.094888  0  3.87063  0
C  C58  1  0.17864954  0.41267047  0.15977100  1  0  -0.045803  0  3.615458  0  0  -0.091242  0  3.87926  0  0  -0.084952  0  3.892088  0  0  -0.047673  -0.09487  0  3.870649  0
C  C59  1  0.67866048  0.08733027  0.34022799  1  0  -0.04574  0  3.61547  0  0  -0.091158  0  3.879184  0  0  -0.084866  0  3.892007  0  0  -0.047665  -0.094785  0  3.87057  0
N  N60  1  0.87784528  0.30720124  0.84390613  1  0  0.513395  0  3.898727  0  0  0.539396  0  4.198767  0  0  0.561578  0  4.205579  0  0  0.05933  0.524528  0  4.194293  0
N  N61  1  0.37784536  0.19279713  0.65609512  1  0  0.513457  0  3.89877  0  0  0.539415  0  4.198829  0  0  0.561595  0  4.205646  0  0  0.059358  0.524548  0  4.19435  0
N  N62  1  0.12215181  0.69279980  0.15609488  1  0  0.51332  0  3.898811  0  0  0.539288  0  4.19886  0  0  0.561469  0  4.205671  0  0  0.059307  0.524421  0  4.194385  0
N  N63  1  0.62215608  0.80720252  0.34390496  1  0  0.513574  0  3.898688  0  0  0.539514  0  4.198749  0  0  0.561695  0  4.205564  0  0  0.059432  0.524648  0  4.194273  0
N  N64  1  0.18925731  0.63094885  0.94743133  1  0  0.470933  0  3.946541  0  0  0.533123  0  4.193957  0  0  0.554435  0  4.202887  0  0  0.051801  0.518915  0  4.187985  0
N  N65  1  0.68925104  0.86904914  0.55256785  1  0  0.47113  0  3.946382  0  0  0.533146  0  4.19399  0  0  0.554458  0  4.202919  0  0  0.051743  0.518938  0  4.188019  0
N  N66  1  0.81073979  0.36905151  0.05256835  1  0  0.470936  0  3.946429  0  0  0.533174  0  4.193808  0  0  0.554486  0  4.202739  0  0  0.051813  0.518965  0  4.187835  0
N  N67  1  0.31074606  0.13094914  0.44743072  1  0  0.471013  0  3.94646  0  0  0.533133  0  4.193929  0  0  0.554444  0  4.202862  0  0  0.05182  0.518924  0  4.187955  0
O  O68  1  0.35958180  0.62990360  0.74841235  1  0  -0.634767  0  2.001542  0  0  -0.569933  0  2.214718  0  0  -0.597697  0  2.20617  0  0  -0.305428  -0.550313  0  2.219897  0
O  O69  1  0.85956913  0.87009495  0.75158712  1  0  -0.634796  0  2.001533  0  0  -0.569972  0  2.214712  0  0  -0.597736  0  2.20616  0  0  -0.305485  -0.550349  0  2.219891  0
O  O70  1  0.64042397  0.37009677  0.25158618  1  0  -0.634849  0  2.001494  0  0  -0.570027  0  2.214708  0  0  -0.597786  0  2.206147  0  0  -0.305481  -0.550405  0  2.219888  0
O  O71  1  0.14042796  0.12990402  0.24841221  1  0  -0.634775  0  2.001502  0  0  -0.569946  0  2.214687  0  0  -0.597709  0  2.206139  0  0  -0.305452  -0.550325  0  2.219864  0
O  O72  1  0.38898822  0.48416307  0.66382945  1  0  -0.691235  0  1.946631  0  0  -0.644486  0  2.175861  0  0  -0.669472  0  2.167311  0  0  -0.400411  -0.626573  0  2.180993  0
O  O73  1  0.88898688  0.01583533  0.83616894  1  0  -0.6912  0  1.946844  0  0  -0.644452  0  2.176058  0  0  -0.669436  0  2.167509  0  0  -0.400388  -0.626538  0  2.181191  0
O  O74  1  0.61100888  0.51583728  0.33617023  1  0  -0.691297  0  1.94669  0  0  -0.64454  0  2.175924  0  0  -0.669526  0  2.167373  0  0  -0.400422  -0.626625  0  2.181057  0
O  O75  1  0.11101455  0.98416365  0.16382981  1  0  -0.691202  0  1.946659  0  0  -0.644457  0  2.17589  0  0  -0.669447  0  2.167354  0  0  -0.400404  -0.626545  0  2.181023  0
O  O76  1  0.35969176  0.42038313  0.44111176  1  0  -0.921496  0  1.819079  0  0  -0.870455  0  1.982337  0  0  -0.890293  0  1.953356  0  0  -0.761896  -0.856255  0  2.002725  0
O  O77  1  0.85969087  0.07961678  0.05888716  1  0  -0.921503  0  1.819071  0  0  -0.870462  0  1.982332  0  0  -0.890301  0  1.953354  0  0  -0.761845  -0.856261  0  2.002722  0
O  O78  1  0.64030967  0.57961723  0.55888793  1  0  -0.921507  0  1.819027  0  0  -0.870466  0  1.982288  0  0  -0.890305  0  1.953305  0  0  -0.761896  -0.856268  0  2.002676  0
O  O79  1  0.14030839  0.92038357  0.94111252  1  0  -0.921472  0  1.81908  0  0  -0.87043  0  1.982337  0  0  -0.890273  0  1.953365  0  0  -0.761831  -0.856226  0  2.002724  0
O  O80  1  0.68919947  0.25222423  0.80792829  1  0  -0.354555  0  1.787949  0  0  -0.338707  0  2.009721  0  0  -0.351793  0  2.006604  0  0  -0.115356  -0.329958  0  2.012009  0
O  O81  1  0.18919937  0.24777567  0.69207378  1  0  -0.354591  0  1.787936  0  0  -0.338741  0  2.009711  0  0  -0.351827  0  2.006595  0  0  -0.115395  -0.329993  0  2.011998  0
O  O82  1  0.31079979  0.74777681  0.19207215  1  0  -0.354556  0  1.788005  0  0  -0.338707  0  2.0098  0  0  -0.351796  0  2.006687  0  0  -0.115386  -0.329956  0  2.012087  0
O  O83  1  0.81080207  0.75222328  0.30792669  1  0  -0.354639  0  1.787899  0  0  -0.338785  0  2.009679  0  0  -0.351873  0  2.006562  0  0  -0.115447  -0.330035  0  2.011967  0
O  O84  1  0.98057305  0.30062233  0.34837262  1  0  -0.861706  0  1.824154  0  0  -0.806807  0  1.986455  0  0  -0.826498  0  1.953697  0  0  -0.632371  -0.792688  0  2.009399  0
O  O85  1  0.48057300  0.19937817  0.15162713  1  0  -0.861714  0  1.824147  0  0  -0.806818  0  1.986417  0  0  -0.826501  0  1.953678  0  0  -0.632378  -0.7927  0  2.009361  0
O  O86  1  0.01942839  0.69937804  0.65162649  1  0  -0.861734  0  1.824135  0  0  -0.806842  0  1.986403  0  0  -0.826526  0  1.953664  0  0  -0.632398  -0.792723  0  2.009348  0
O  O87  1  0.51942843  0.80062217  0.84837313  1  0  -0.861734  0  1.824145  0  0  -0.80684  0  1.986425  0  0  -0.826524  0  1.953691  0  0  -0.632396  -0.79272  0  2.00937  0
O  O88  1  0.07965812  0.28640546  0.88281667  1  0  -0.385468  0  1.801855  0  0  -0.377759  0  2.037097  0  0  -0.390837  0  2.033052  0  0  -0.155222  -0.369014  0  2.040004  0
O  O89  1  0.57965645  0.21359174  0.61718460  1  0  -0.385498  0  1.801968  0  0  -0.377794  0  2.037259  0  0  -0.39087  0  2.033217  0  0  -0.155256  -0.369048  0  2.040162  0
O  O90  1  0.92034331  0.71359559  0.11718319  1  0  -0.385393  0  1.802009  0  0  -0.377695  0  2.037282  0  0  -0.390775  0  2.033244  0  0  -0.155181  -0.368948  0  2.040188  0
O  O91  1  0.42034715  0.78640791  0.38281547  1  0  -0.385522  0  1.80194  0  0  -0.377811  0  2.037245  0  0  -0.390889  0  2.033203  0  0  -0.155237  -0.369064  0  2.040152  0
O  O92  1  0.13637359  0.71349288  0.95367745  1  0  -0.353515  0  1.830092  0  0  -0.351529  0  2.044171  0  0  -0.363962  0  2.040579  0  0  -0.161116  -0.343305  0  2.046843  0
O  O93  1  0.63637248  0.78650585  0.54632188  1  0  -0.353623  0  1.830133  0  0  -0.351493  0  2.044296  0  0  -0.363906  0  2.040654  0  0  -0.161047  -0.34327  0  2.046969  0
O  O94  1  0.86362567  0.28650746  0.04632338  1  0  -0.353591  0  1.829958  0  0  -0.351592  0  2.044022  0  0  -0.364021  0  2.040418  0  0  -0.161162  -0.343369  0  2.046692  0
O  O95  1  0.36362678  0.21349311  0.45367745  1  0  -0.353545  0  1.830082  0  0  -0.351536  0  2.044211  0  0  -0.363958  0  2.04059  0  0  -0.161127  -0.343312  0  2.04688  0
O  O96  1  0.38198704  0.60451139  0.98598145  1  0  -0.360423  0  1.776333  0  0  -0.354513  0  1.976283  0  0  -0.368771  0  1.975147  0  0  -0.129929  -0.345037  0  1.977135  0
O  O97  1  0.88198654  0.89548714  0.51401860  1  0  -0.360544  0  1.776253  0  0  -0.354591  0  1.976174  0  0  -0.368863  0  1.975058  0  0  -0.129968  -0.345111  0  1.977026  0
O  O98  1  0.61801223  0.39548966  0.01401841  1  0  -0.360382  0  1.776325  0  0  -0.354512  0  1.976258  0  0  -0.368759  0  1.975102  0  0  -0.129912  -0.345035  0  1.977109  0
O  O99  1  0.11801706  0.10451113  0.48598054  1  0  -0.360456  0  1.776232  0  0  -0.354534  0  1.976198  0  0  -0.36879  0  1.975059  0  0  -0.129948  -0.345057  0  1.97705  0
