# generated using pymatgen
data_AlH8C13SO5
_symmetry_space_group_name_H-M   'P 1'
_cell_length_a   6.65630022
_cell_length_b   12.75728817
_cell_length_c   17.77026025
_cell_angle_alpha   85.27115494
_cell_angle_beta   78.89391223
_cell_angle_gamma   74.37300368
_symmetry_Int_Tables_number   1
_chemical_formula_structural   AlH8C13SO5
_chemical_formula_sum   'Al2 H16 C26 S2 O10'
_cell_volume   1425.24614614
_cell_formula_units_Z   2
loop_
 _symmetry_equiv_pos_site_id
 _symmetry_equiv_pos_as_xyz
  1  'x, y, z'
loop_
 _atom_site_type_symbol
 _atom_site_label
 _atom_site_symmetry_multiplicity
 _atom_site_fract_x
 _atom_site_fract_y
 _atom_site_fract_z
 _atom_site_occupancy
 _atom_site_pbe_bader_charge
 _atom_site_pbe_bader_spin_density
 _atom_site_pbe_cm5_charge
 _atom_site_pbe_ddec_charge
 _atom_site_pbe_ddec_spin_density
 _atom_site_pbe_ddec_sum_bond_order
 _atom_site_pbe_magmom
Al  Al0  1  0.49999236  0.50000750  0.50003683  1  2.506019  0  0.396419  1.644532  0  2.57997  0
Al  Al1  1  0.99999731  0.49999862  0.50004526  1  2.502348  0  0.396013  1.647689  0  2.569724  0
H  H2  1  0.27489016  0.38652233  0.56641495  1  0.592908  0  0.3507  0.428586  0  0.860911  0
H  H3  1  0.72551791  0.61314057  0.43332643  1  0.591884  0  0.351082  0.429063  0  0.860304  0
H  H4  1  0.71203798  0.46464109  0.26707155  1  0.098539  0  0.109738  0.114181  0  1.005246  0
H  H5  1  0.77763255  0.47003274  0.12300312  1  0.080413  0  0.103036  0.103383  0  1.008855  0
H  H6  1  0.11448587  0.50107253  0.12763032  1  0.085072  0  0.103294  0.104058  0  1.010223  0
H  H7  1  0.05199268  0.49655990  0.27163283  1  0.100794  0  0.109718  0.113715  0  1.005251  0
H  H8  1  0.88550779  0.49917304  0.87239980  1  0.083072  0  0.103037  0.103787  0  1.010689  0
H  H9  1  0.94794981  0.50363786  0.72839288  1  0.099558  0  0.109582  0.113642  0  1.005273  0
H  H10  1  0.28798201  0.53529093  0.73299675  1  0.100827  0  0.109778  0.11425  0  1.005442  0
H  H11  1  0.22244683  0.52991531  0.87707351  1  0.079406  0  0.10304  0.103144  0  1.009125  0
H  H12  1  0.54859820  0.80032440  0.46731198  1  0.046874  0  0.09516  0.135737  0  1.024718  0
H  H13  1  0.50348385  0.91763178  0.40515401  1  0.077868  0  0.089471  0.127887  0  1.001457  0
H  H14  1  0.45866046  0.79399738  0.38071092  1  0.056517  0  0.10063  0.144545  0  0.976833  0
H  H15  1  0.54137547  0.20606187  0.61916305  1  0.057942  0  0.100715  0.14464  0  0.976641  0
H  H16  1  0.49667662  0.08232239  0.59486353  1  0.078174  0  0.089471  0.128163  0  1.001336  0
H  H17  1  0.45123953  0.19952154  0.53262953  1  0.089545  0  0.095296  0.135845  0  1.024572  0
C  C18  1  0.85858404  0.30428099  0.50005269  1  1.618258  0  0.257445  0.652017  0  4.136829  0
C  C19  1  0.66286779  0.51395099  0.63743067  1  1.594383  0  0.263711  0.634039  0  4.106239  0
C  C20  1  0.14143500  0.69570195  0.49996789  1  1.620667  0  0.257444  0.651757  0  4.137505  0
C  C21  1  0.33711396  0.48606992  0.36262150  1  1.594407  0  0.263931  0.635005  0  4.105077  0
C  C22  1  0.37785599  0.48173308  0.27733378  1  -0.050998  0  -0.014953  -0.04612  0  3.968134  0
C  C23  1  0.58312059  0.47277297  0.23559973  1  -0.071315  0  -0.079129  -0.08585  0  3.984136  0
C  C24  1  0.61921490  0.47573863  0.15597340  1  0.042186  0  -0.082385  -0.126935  0  3.943356  0
C  C25  1  0.44974018  0.48749690  0.11605143  1  0.11683  0  0.003969  0.14643  0  4.10679  0
C  C26  1  0.24458158  0.49320770  0.15849824  1  -0.031871  0  -0.082755  -0.128165  0  3.945191  0
C  C27  1  0.20974362  0.49067924  0.23810627  1  -0.053161  0  -0.078489  -0.083198  0  3.978903  0
C  C28  1  0.48462990  0.49541830  0.03500364  1  0.086258  0  -0.042811  -0.106147  0  4.116233  0
C  C29  1  0.51542964  0.50469527  0.96503732  1  -0.55823  0  -0.042583  -0.105179  0  4.116079  0
C  C30  1  0.55029928  0.51260780  0.88398583  1  0.116303  0  0.00384  0.14577  0  4.107596  0
C  C31  1  0.75542682  0.50696540  0.84153812  1  -0.031402  0  -0.082788  -0.128205  0  3.946395  0
C  C32  1  0.79024016  0.50949717  0.76193001  1  -0.050907  0  -0.078262  -0.083066  0  3.97849  0
C  C33  1  0.62212369  0.51834723  0.72271700  1  -0.05044  0  -0.014508  -0.045228  0  3.966909  0
C  C34  1  0.41687946  0.52723891  0.76445724  1  -0.070842  0  -0.079428  -0.086652  0  3.984957  0
C  C35  1  0.38082535  0.52428780  0.84408268  1  0.04217  0  -0.081919  -0.125691  0  3.943795  0
C  C36  1  0.21990658  0.88237715  0.46922834  1  0.075973  0  -0.004174  0.145653  0  3.967119  0
C  C37  1  0.78003693  0.11761569  0.53064071  1  0.114518  0  -0.003849  0.14611  0  3.967038  0
C  C38  1  0.08893152  0.81481098  0.50012326  1  -0.192461  0  -0.024489  -0.199556  0  3.928968  0
C  C39  1  0.91104229  0.18517646  0.49978835  1  -0.22784  0  -0.025319  -0.200952  0  3.930401  0
C  C40  1  0.89452976  0.00743517  0.51914397  1  -0.143386  0  -0.025256  -0.07996  0  4.0775  0
C  C41  1  0.10537458  0.99255015  0.48067600  1  -0.208929  0  -0.025606  -0.080315  0  4.077482  0
C  C42  1  0.44475597  0.84680686  0.42830524  1  -0.064737  0  -0.235836  -0.403397  0  3.969558  0
C  C43  1  0.55523610  0.15316242  0.57162855  1  -0.109556  0  -0.236005  -0.403903  0  3.968788  0
S  S44  1  0.83322513  0.88443883  0.54158528  1  0.234428  0  0.086706  0.127366  0  2.82306  0
S  S45  1  0.16671296  0.11555566  0.45828295  1  0.23357  0  0.087121  0.128106  0  2.822832  0
O  O46  1  0.66220100  0.35424116  0.51554130  1  -1.263381  0  -0.232934  -0.587497  0  2.352862  0
O  O47  1  0.85650195  0.49071894  0.60400429  1  -1.266425  0  -0.23975  -0.601451  0  2.355442  0
O  O48  1  0.98780592  0.65049345  0.51440544  1  -1.259255  0  -0.242091  -0.592318  0  2.315868  0
O  O49  1  0.49728941  0.46951057  0.39559926  1  -1.263104  0  -0.237328  -0.589351  0  2.333418  0
O  O50  1  0.33782092  0.64575448  0.48450878  1  -1.263305  0  -0.232835  -0.587404  0  2.353359  0
O  O51  1  0.14345568  0.50928896  0.39605314  1  -1.266687  0  -0.239761  -0.602013  0  2.35508  0
O  O52  1  0.01224189  0.34947493  0.48567856  1  -1.258398  0  -0.241957  -0.592193  0  2.315321  0
O  O53  1  0.50269323  0.53052084  0.60446015  1  -1.263292  0  -0.237175  -0.588787  0  2.334189  0
O  O54  1  0.25557045  0.45347557  0.53561858  1  -1.399498  0  -0.44792  -0.994499  0  2.210404  0
O  O55  1  0.74444809  0.54649619  0.46445949  1  -1.398286  0  -0.448052  -0.995071  0  2.21099  0
