# generated using pymatgen
data_ZnH7C10N3O4
_symmetry_space_group_name_H-M   'P 1'
_cell_length_a   9.69565328
_cell_length_b   10.21967934
_cell_length_c   11.32789069
_cell_angle_alpha   97.66788661
_cell_angle_beta   90.00006601
_cell_angle_gamma   89.99988132
_symmetry_Int_Tables_number   1
_chemical_formula_structural   ZnH7C10N3O4
_chemical_formula_sum   'Zn4 H28 C40 N12 O16'
_cell_volume   1112.40396729
_cell_formula_units_Z   4
loop_
 _symmetry_equiv_pos_site_id
 _symmetry_equiv_pos_as_xyz
  1  'x, y, z'
loop_
 _atom_site_type_symbol
 _atom_site_label
 _atom_site_symmetry_multiplicity
 _atom_site_fract_x
 _atom_site_fract_y
 _atom_site_fract_z
 _atom_site_occupancy
 _atom_site_hle17_bader_spin_density
 _atom_site_hle17_ddec_charge
 _atom_site_hle17_ddec_spin_density
 _atom_site_hle17_ddec_sum_bond_order
 _atom_site_hle17_magmom
 _atom_site_hse06_10hf_bader_spin_density
 _atom_site_hse06_10hf_ddec_charge
 _atom_site_hse06_10hf_ddec_spin_density
 _atom_site_hse06_10hf_ddec_sum_bond_order
 _atom_site_hse06_10hf_magmom
 _atom_site_hse06_bader_spin_density
 _atom_site_hse06_ddec_charge
 _atom_site_hse06_ddec_spin_density
 _atom_site_hse06_ddec_sum_bond_order
 _atom_site_hse06_magmom
 _atom_site_pbe_bader_spin_density
 _atom_site_pbe_cm5_charge
 _atom_site_pbe_ddec_charge
 _atom_site_pbe_ddec_spin_density
 _atom_site_pbe_ddec_sum_bond_order
 _atom_site_pbe_magmom
Zn  Zn0  1  0.58946533  0.10569708  0.39896144  1  0  0.919516  0  1.972335  0  0  0.721236  0  2.45296  0  0  0.763079  0  2.406981  0  0  0.728146  0.691882  0  2.484362  0
Zn  Zn1  1  0.08946584  0.39430398  0.60103794  1  0  0.9195  0  1.972298  0  0  0.721236  0  2.452911  0  0  0.763077  0  2.406934  0  0  0.728141  0.691886  0  2.484311  0
Zn  Zn2  1  0.41053391  0.89430324  0.60103818  1  0  0.919532  0  1.972331  0  0  0.721251  0  2.452971  0  0  0.763094  0  2.406991  0  0  0.728154  0.691904  0  2.484368  0
Zn  Zn3  1  0.91053443  0.60569634  0.39896168  1  0  0.919525  0  1.972306  0  0  0.721248  0  2.452933  0  0  0.763089  0  2.406949  0  0  0.728145  0.691896  0  2.484328  0
H  H4  1  0.85416625  0.02986355  0.01213685  1  0  0.115123  0  0.987114  0  0  0.121329  0  1.054939  0  0  0.125177  0  1.051579  0  0  0.11125  0.118648  0  1.057195  0
H  H5  1  0.35416607  0.47013602  0.98786438  1  0  0.115114  0  0.987114  0  0  0.121331  0  1.054926  0  0  0.125182  0  1.051557  0  0  0.111257  0.11865  0  1.057182  0
H  H6  1  0.14583403  0.97013577  0.98786354  1  0  0.115111  0  0.987117  0  0  0.121321  0  1.054944  0  0  0.125174  0  1.051566  0  0  0.111249  0.11864  0  1.0572  0
H  H7  1  0.64583420  0.52986331  0.01213600  1  0  0.115111  0  0.987108  0  0  0.121328  0  1.054923  0  0  0.125182  0  1.051546  0  0  0.111254  0.118647  0  1.057179  0
H  H8  1  0.35988801  0.32670842  0.42747544  1  0  0.111127  0  0.979746  0  0  0.118752  0  1.044054  0  0  0.121562  0  1.040782  0  0  0.138195  0.116564  0  1.046644  0
H  H9  1  0.85988965  0.17329213  0.57252415  1  0  0.111153  0  0.979757  0  0  0.118775  0  1.044061  0  0  0.121585  0  1.040791  0  0  0.138199  0.116588  0  1.046651  0
H  H10  1  0.64011123  0.67329190  0.57252418  1  0  0.111137  0  0.979768  0  0  0.118766  0  1.04406  0  0  0.121575  0  1.040791  0  0  0.138202  0.116579  0  1.046651  0
H  H11  1  0.14011062  0.82670818  0.42747635  1  0  0.111137  0  0.979771  0  0  0.118763  0  1.044074  0  0  0.121572  0  1.040804  0  0  0.1382  0.116575  0  1.046665  0
H  H12  1  0.45279497  0.22145367  0.82447664  1  0  0.09624  0  0.941849  0  0  0.106821  0  0.998634  0  0  0.109772  0  0.998549  0  0  0.101469  0.104713  0  0.998931  0
H  H13  1  0.95279585  0.27854572  0.17552290  1  0  0.096254  0  0.941841  0  0  0.106833  0  0.998623  0  0  0.109783  0  0.998537  0  0  0.101474  0.104725  0  0.998918  0
H  H14  1  0.54720530  0.77854566  0.17552286  1  0  0.096224  0  0.94186  0  0  0.106807  0  0.998643  0  0  0.109758  0  0.998559  0  0  0.101465  0.104699  0  0.998939  0
H  H15  1  0.04720339  0.72145558  0.82447772  1  0  0.096243  0  0.941851  0  0  0.106824  0  0.998631  0  0  0.109775  0  0.998546  0  0  0.10148  0.104718  0  0.998927  0
H  H16  1  0.14441763  0.09153475  0.64465186  1  0  0.105274  0  0.947412  0  0  0.113124  0  1.011551  0  0  0.115982  0  1.007702  0  0  0.139658  0.110676  0  1.014829  0
H  H17  1  0.64441743  0.40846521  0.35534744  1  0  0.105277  0  0.947396  0  0  0.113129  0  1.01153  0  0  0.115987  0  1.007683  0  0  0.139651  0.110681  0  1.014807  0
H  H18  1  0.85558264  0.90846458  0.35534764  1  0  0.105277  0  0.947396  0  0  0.113131  0  1.011536  0  0  0.115991  0  1.007685  0  0  0.139659  0.110682  0  1.014813  0
H  H19  1  0.35558181  0.59153412  0.64465206  1  0  0.105284  0  0.947391  0  0  0.113138  0  1.011525  0  0  0.115996  0  1.007677  0  0  0.139665  0.11069  0  1.014803  0
H  H20  1  0.65687921  0.14096273  0.70141628  1  0  0.087598  0  0.954308  0  0  0.095442  0  1.02296  0  0  0.098852  0  1.01994  0  0  0.101286  0.092925  0  1.025177  0
H  H21  1  0.15687836  0.35903721  0.29858392  1  0  0.087627  0  0.954322  0  0  0.095478  0  1.022962  0  0  0.098884  0  1.019943  0  0  0.101289  0.092961  0  1.025178  0
H  H22  1  0.34312209  0.85903660  0.29858411  1  0  0.087604  0  0.954305  0  0  0.095445  0  1.022964  0  0  0.098856  0  1.019944  0  0  0.101284  0.092929  0  1.025182  0
H  H23  1  0.84312192  0.64096311  0.70141658  1  0  0.087619  0  0.954365  0  0  0.09547  0  1.023006  0  0  0.098877  0  1.019986  0  0  0.101278  0.092954  0  1.025225  0
H  H24  1  0.45029128  0.20573311  0.04194506  1  0  0.100587  0  0.953891  0  0  0.108219  0  1.019467  0  0  0.111023  0  1.01819  0  0  0.104804  0.106065  0  1.02063  0
H  H25  1  0.95029214  0.29426727  0.95805460  1  0  0.100599  0  0.953887  0  0  0.108234  0  1.019463  0  0  0.111039  0  1.018185  0  0  0.104814  0.10608  0  1.020626  0
H  H26  1  0.54970900  0.79426622  0.95805444  1  0  0.10063  0  0.953897  0  0  0.108275  0  1.019449  0  0  0.111081  0  1.018169  0  0  0.104826  0.106121  0  1.020613  0
H  H27  1  0.04970813  0.70573502  0.04194615  1  0  0.100628  0  0.953911  0  0  0.10828  0  1.019459  0  0  0.111085  0  1.01818  0  0  0.104823  0.106127  0  1.020623  0
H  H28  1  0.08702610  0.97602526  0.80951787  1  0  0.411632  0  0.881886  0  0  0.380007  0  0.95973  0  0  0.392979  0  0.941111  0  0  0.305263  0.371059  0  0.972511  0
H  H29  1  0.58702550  0.52397492  0.19048351  1  0  0.411562  0  0.881964  0  0  0.379949  0  0.95981  0  0  0.392921  0  0.941192  0  0  0.305242  0.371  0  0.972581  0
H  H30  1  0.91297314  0.02397407  0.19048163  1  0  0.411622  0  0.881883  0  0  0.379994  0  0.959743  0  0  0.392967  0  0.941123  0  0  0.30526  0.371045  0  0.972511  0
H  H31  1  0.41297374  0.47602540  0.80951611  1  0  0.411594  0  0.881928  0  0  0.379975  0  0.959771  0  0  0.392948  0  0.941152  0  0  0.305246  0.371027  0  0.972543  0
C  C32  1  0.89462716  0.03626879  0.78002281  1  0  0.656495  0  3.825673  0  0  0.607597  0  4.121201  0  0  0.641303  0  4.112434  0  0  0.232456  0.584788  0  4.126735  0
C  C33  1  0.39462699  0.46372972  0.21997922  1  0  0.656553  0  3.825406  0  0  0.607642  0  4.120991  0  0  0.641349  0  4.112225  0  0  0.232508  0.584833  0  4.126527  0
C  C34  1  0.10537312  0.96372955  0.21997746  1  0  0.656501  0  3.825724  0  0  0.607615  0  4.121203  0  0  0.641321  0  4.11244  0  0  0.232465  0.584805  0  4.126739  0
C  C35  1  0.60537431  0.53627060  0.78002040  1  0  0.656497  0  3.825467  0  0  0.607636  0  4.120972  0  0  0.641342  0  4.112208  0  0  0.23251  0.584827  0  4.126507  0
C  C36  1  0.76612224  0.07264022  0.97229156  1  0  -0.061956  0  3.682592  0  0  -0.098654  0  3.923048  0  0  -0.095072  0  3.942171  0  0  -0.074008  -0.100562  0  3.909874  0
C  C37  1  0.26612293  0.42735852  0.02770949  1  0  -0.061918  0  3.68252  0  0  -0.098613  0  3.922988  0  0  -0.095029  0  3.942113  0  0  -0.074013  -0.100519  0  3.909814  0
C  C38  1  0.23387803  0.92735910  0.02770883  1  0  -0.061953  0  3.682526  0  0  -0.098665  0  3.923008  0  0  -0.095083  0  3.942132  0  0  -0.074028  -0.100576  0  3.909834  0
C  C39  1  0.73387837  0.57264179  0.97229102  1  0  -0.061954  0  3.682553  0  0  -0.098635  0  3.923037  0  0  -0.095051  0  3.942163  0  0  -0.074042  -0.100542  0  3.909861  0
C  C40  1  0.76893578  0.08139578  0.85007806  1  0  -0.083251  0  3.769151  0  0  -0.055846  0  3.999207  0  0  -0.066815  0  4.023465  0  0  -0.017264  -0.048728  0  3.982442  0
C  C41  1  0.26893562  0.41860395  0.14992310  1  0  -0.083298  0  3.769041  0  0  -0.055941  0  3.999211  0  0  -0.066911  0  4.02347  0  0  -0.017291  -0.048822  0  3.982448  0
C  C42  1  0.23106346  0.91860552  0.14992256  1  0  -0.083294  0  3.769091  0  0  -0.055864  0  3.999108  0  0  -0.06683  0  4.023365  0  0  -0.017277  -0.048742  0  3.982343  0
C  C43  1  0.73106465  0.58139637  0.85007740  1  0  -0.083263  0  3.769146  0  0  -0.055938  0  3.999305  0  0  -0.066908  0  4.023565  0  0  -0.017257  -0.048817  0  3.982539  0
C  C44  1  0.65250261  0.11752590  0.04193376  1  0  -0.079313  0  3.765871  0  0  -0.051195  0  3.997044  0  0  -0.062301  0  4.021323  0  0  -0.018331  -0.044389  0  3.980996  0
C  C45  1  0.15250362  0.38247305  0.95806632  1  0  -0.079303  0  3.765823  0  0  -0.051144  0  3.996955  0  0  -0.062253  0  4.021238  0  0  -0.01831  -0.044342  0  3.980907  0
C  C46  1  0.34749663  0.88247343  0.95806574  1  0  -0.0793  0  3.765788  0  0  -0.051205  0  3.997005  0  0  -0.062313  0  4.021286  0  0  -0.018347  -0.044399  0  3.980958  0
C  C47  1  0.84749665  0.61752726  0.04193419  1  0  -0.07931  0  3.765804  0  0  -0.051187  0  3.996989  0  0  -0.062295  0  4.02127  0  0  -0.018351  -0.044382  0  3.98094  0
C  C48  1  0.33133719  0.24677403  0.47762386  1  0  0.227291  0  3.657453  0  0  0.170958  0  3.918352  0  0  0.18492  0  3.930705  0  0  0.156383  0.161779  0  3.90997  0
C  C49  1  0.83133756  0.25322657  0.52237483  1  0  0.22723  0  3.65749  0  0  0.170915  0  3.918394  0  0  0.184874  0  3.930753  0  0  0.156384  0.161738  0  3.91001  0
C  C50  1  0.66866205  0.75322629  0.52237576  1  0  0.227233  0  3.657474  0  0  0.170916  0  3.918368  0  0  0.184874  0  3.93073  0  0  0.15638  0.161738  0  3.909988  0
C  C51  1  0.16866271  0.74677374  0.47762479  1  0  0.227282  0  3.657458  0  0  0.17095  0  3.918359  0  0  0.184913  0  3.930708  0  0  0.156396  0.161773  0  3.909978  0
C  C52  1  0.65333504  0.10560913  0.17190551  1  0  0.644028  0  3.887071  0  0  0.595037  0  4.172333  0  0  0.62933  0  4.166335  0  0  0.207453  0.571886  0  4.17577  0
C  C53  1  0.15333482  0.39439082  0.82809469  1  0  0.644054  0  3.887176  0  0  0.595059  0  4.17243  0  0  0.629355  0  4.166434  0  0  0.207487  0.571913  0  4.175863  0
C  C54  1  0.34666523  0.89439020  0.82809399  1  0  0.644004  0  3.887018  0  0  0.595005  0  4.172304  0  0  0.6293  0  4.166308  0  0  0.207457  0.571856  0  4.175741  0
C  C55  1  0.84666545  0.60560950  0.17190493  1  0  0.644038  0  3.887158  0  0  0.595043  0  4.172427  0  0  0.629337  0  4.166432  0  0  0.207474  0.571895  0  4.175861  0
C  C56  1  0.54121095  0.17974271  0.86587452  1  0  -0.069627  0  3.734185  0  0  -0.081371  0  3.992332  0  0  -0.086973  0  4.013485  0  0  -0.087885  -0.077839  0  3.97793  0
C  C57  1  0.04121099  0.32025645  0.13412547  1  0  -0.069654  0  3.734224  0  0  -0.081393  0  3.992369  0  0  -0.086994  0  4.013519  0  0  -0.087911  -0.077861  0  3.977965  0
C  C58  1  0.45879138  0.82025860  0.13412345  1  0  -0.069623  0  3.734226  0  0  -0.08138  0  3.99239  0  0  -0.086984  0  4.013544  0  0  -0.087909  -0.07785  0  3.97799  0
C  C59  1  0.95879031  0.67974288  0.86587492  1  0  -0.069618  0  3.734217  0  0  -0.081359  0  3.992366  0  0  -0.086962  0  4.013516  0  0  -0.087909  -0.077829  0  3.977965  0
C  C60  1  0.22277431  0.12795489  0.58896309  1  0  0.252312  0  3.650516  0  0  0.191364  0  3.917651  0  0  0.206619  0  3.928707  0  0  0.161691  0.181403  0  3.910296  0
C  C61  1  0.72277530  0.37204493  0.41103716  1  0  0.252315  0  3.650504  0  0  0.19136  0  3.91763  0  0  0.206616  0  3.928685  0  0  0.161692  0.1814  0  3.910273  0
C  C62  1  0.77722596  0.87204444  0.41103729  1  0  0.252275  0  3.650487  0  0  0.191314  0  3.917637  0  0  0.206569  0  3.928691  0  0  0.161669  0.181355  0  3.910278  0
C  C63  1  0.27722497  0.62795539  0.58896335  1  0  0.252272  0  3.650532  0  0  0.191319  0  3.917663  0  0  0.206573  0  3.928721  0  0  0.161673  0.18136  0  3.910307  0
C  C64  1  0.65523731  0.13479268  0.79675981  1  0  -0.033868  0  3.702107  0  0  -0.063724  0  3.952732  0  0  -0.05984  0  3.970738  0  0  -0.071603  -0.065641  0  3.93994  0
C  C65  1  0.15523734  0.36520528  0.20324103  1  0  -0.03389  0  3.702156  0  0  -0.063724  0  3.952789  0  0  -0.059837  0  3.970794  0  0  -0.071572  -0.065641  0  3.939998  0
C  C66  1  0.34476399  0.86520566  0.20323957  1  0  -0.033834  0  3.701988  0  0  -0.06369  0  3.952593  0  0  -0.059807  0  3.970601  0  0  -0.071554  -0.065606  0  3.939801  0
C  C67  1  0.84476396  0.63479602  0.79676047  1  0  -0.033847  0  3.702184  0  0  -0.063676  0  3.95281  0  0  -0.059788  0  3.970815  0  0  -0.071538  -0.065591  0  3.940018  0
C  C68  1  0.53932360  0.17142699  0.98789269  1  0  -0.028046  0  3.675054  0  0  -0.058838  0  3.927001  0  0  -0.054905  0  3.945409  0  0  -0.069519  -0.060901  0  3.914534  0
C  C69  1  0.03932449  0.32857316  0.01210742  1  0  -0.028054  0  3.675029  0  0  -0.058863  0  3.926975  0  0  -0.054932  0  3.945385  0  0  -0.069527  -0.060925  0  3.914509  0
C  C70  1  0.46067667  0.82857333  0.01210516  1  0  -0.02809  0  3.675131  0  0  -0.058876  0  3.92707  0  0  -0.054941  0  3.945479  0  0  -0.069524  -0.060938  0  3.914605  0
C  C71  1  0.96067578  0.67142814  0.98789497  1  0  -0.028132  0  3.675104  0  0  -0.058944  0  3.927057  0  0  -0.055013  0  3.945469  0  0  -0.069543  -0.061005  0  3.91459  0
N  N72  1  0.40763439  0.13972469  0.48306277  1  0  -0.277595  0  3.239435  0  0  -0.206368  0  3.536961  0  0  -0.222835  0  3.550187  0  0  -0.258422  -0.195113  0  3.527598  0
N  N73  1  0.90763348  0.36027577  0.51693686  1  0  -0.277547  0  3.239402  0  0  -0.206375  0  3.536971  0  0  -0.222843  0  3.550199  0  0  -0.258435  -0.195121  0  3.52761  0
N  N74  1  0.59236589  0.86027562  0.51693685  1  0  -0.277582  0  3.239455  0  0  -0.20637  0  3.536993  0  0  -0.222839  0  3.55022  0  0  -0.258426  -0.195117  0  3.527632  0
N  N75  1  0.09236576  0.63972455  0.48306364  1  0  -0.277619  0  3.239431  0  0  -0.206399  0  3.536968  0  0  -0.222866  0  3.550192  0  0  -0.258423  -0.195143  0  3.527603  0
N  N76  1  0.33854995  0.06364631  0.55512480  1  0  -0.28334  0  3.244348  0  0  -0.210246  0  3.547303  0  0  -0.227246  0  3.559825  0  0  -0.257565  -0.198829  0  3.538641  0
N  N77  1  0.83854878  0.43635428  0.44487477  1  0  -0.283359  0  3.24435  0  0  -0.210226  0  3.54729  0  0  -0.227225  0  3.559811  0  0  -0.25755  -0.198806  0  3.538626  0
N  N78  1  0.66145032  0.93635302  0.44487470  1  0  -0.28331  0  3.24435  0  0  -0.210203  0  3.547304  0  0  -0.227202  0  3.559826  0  0  -0.257552  -0.198784  0  3.538638  0
N  N79  1  0.16145046  0.56364604  0.55512573  1  0  -0.283312  0  3.24436  0  0  -0.210206  0  3.547301  0  0  -0.227205  0  3.559824  0  0  -0.257575  -0.198787  0  3.538638  0
N  N80  1  0.21485721  0.24292746  0.54271087  1  0  -0.417607  0  3.2678  0  0  -0.332818  0  3.567695  0  0  -0.355376  0  3.577021  0  0  -0.360265  -0.317452  0  3.561025  0
N  N81  1  0.71485748  0.25707237  0.45728938  1  0  -0.417601  0  3.267829  0  0  -0.332814  0  3.567726  0  0  -0.355371  0  3.577051  0  0  -0.360271  -0.317448  0  3.561055  0
N  N82  1  0.78514204  0.75707187  0.45728952  1  0  -0.417563  0  3.26777  0  0  -0.332784  0  3.567677  0  0  -0.35534  0  3.577  0  0  -0.360263  -0.317417  0  3.561007  0
N  N83  1  0.28514279  0.74292696  0.54271101  1  0  -0.417586  0  3.267828  0  0  -0.332798  0  3.567726  0  0  -0.355356  0  3.577054  0  0  -0.36026  -0.317432  0  3.561058  0
O  O84  1  0.54339402  0.13857835  0.23261045  1  0  -0.61182  0  2.003645  0  0  -0.540562  0  2.261791  0  0  -0.569339  0  2.251738  0  0  -0.322527  -0.520753  0  2.268045  0
O  O85  1  0.04339482  0.36142180  0.76738966  1  0  -0.611859  0  2.00377  0  0  -0.540616  0  2.261938  0  0  -0.569385  0  2.251865  0  0  -0.322556  -0.520807  0  2.26819  0
O  O86  1  0.45660625  0.86142098  0.76738905  1  0  -0.611822  0  2.003642  0  0  -0.540559  0  2.261802  0  0  -0.569329  0  2.251729  0  0  -0.322522  -0.52075  0  2.268054  0
O  O87  1  0.95660545  0.63857753  0.23260984  1  0  -0.611866  0  2.003779  0  0  -0.540622  0  2.261954  0  0  -0.56939  0  2.251878  0  0  -0.322559  -0.520812  0  2.268205  0
O  O88  1  0.75891026  0.06351126  0.22195424  1  0  -0.650358  0  2.015281  0  0  -0.592067  0  2.247015  0  0  -0.618025  0  2.23625  0  0  -0.317785  -0.57418  0  2.253741  0
O  O89  1  0.25891091  0.43648849  0.77804603  1  0  -0.650354  0  2.015241  0  0  -0.592075  0  2.246971  0  0  -0.618035  0  2.236207  0  0  -0.317806  -0.574189  0  2.253696  0
O  O90  1  0.24109001  0.93648906  0.77804538  1  0  -0.650361  0  2.015271  0  0  -0.592076  0  2.247012  0  0  -0.618035  0  2.236249  0  0  -0.3178  -0.574189  0  2.253741  0
O  O91  1  0.74108936  0.56351183  0.22195359  1  0  -0.650336  0  2.015245  0  0  -0.592047  0  2.246972  0  0  -0.618007  0  2.236207  0  0  -0.317791  -0.574159  0  2.253696  0
O  O92  1  0.90441189  0.03000090  0.67053222  1  0  -0.56791  0  1.929625  0  0  -0.528424  0  2.1423  0  0  -0.54891  0  2.133822  0  0  -0.302809  -0.513995  0  2.147707  0
O  O93  1  0.40441289  0.46999956  0.32947005  1  0  -0.567917  0  1.929586  0  0  -0.528407  0  2.142272  0  0  -0.548888  0  2.133785  0  0  -0.302787  -0.513978  0  2.14768  0
O  O94  1  0.09558736  0.96999843  0.32946816  1  0  -0.567912  0  1.929676  0  0  -0.528425  0  2.142332  0  0  -0.548914  0  2.133858  0  0  -0.302804  -0.513996  0  2.147739  0
O  O95  1  0.59558944  0.52999976  0.67053033  1  0  -0.567895  0  1.929528  0  0  -0.528421  0  2.142205  0  0  -0.548902  0  2.133719  0  0  -0.302819  -0.513994  0  2.147613  0
O  O96  1  0.99616552  0.00485632  0.85021000  1  0  -0.562529  0  2.162576  0  0  -0.509756  0  2.387581  0  0  -0.532953  0  2.370002  0  0  -0.330068  -0.494003  0  2.399601  0
O  O97  1  0.49616520  0.49514102  0.14979198  1  0  -0.562484  0  2.162445  0  0  -0.509753  0  2.387514  0  0  -0.532951  0  2.369937  0  0  -0.330108  -0.493999  0  2.399524  0
O  O98  1  0.00383475  0.99514202  0.14979026  1  0  -0.562504  0  2.16256  0  0  -0.509747  0  2.38759  0  0  -0.532945  0  2.370014  0  0  -0.330064  -0.493992  0  2.399597  0
O  O99  1  0.50383404  0.50485930  0.85020852  1  0  -0.562495  0  2.16246  0  0  -0.509746  0  2.387481  0  0  -0.532945  0  2.369905  0  0  -0.330083  -0.493992  0  2.399492  0
