# generated using pymatgen
data_NaH8C3S3(NO)3
_symmetry_space_group_name_H-M   'P 1'
_cell_length_a   7.72586515
_cell_length_b   10.35150254
_cell_length_c   12.60026156
_cell_angle_alpha   90.00008031
_cell_angle_beta   90.00058505
_cell_angle_gamma   108.96241864
_symmetry_Int_Tables_number   1
_chemical_formula_structural   NaH8C3S3(NO)3
_chemical_formula_sum   'Na4 H32 C12 S12 N12 O12'
_cell_volume   953.01146207
_cell_formula_units_Z   4
loop_
 _symmetry_equiv_pos_site_id
 _symmetry_equiv_pos_as_xyz
  1  'x, y, z'
loop_
 _atom_site_type_symbol
 _atom_site_label
 _atom_site_symmetry_multiplicity
 _atom_site_fract_x
 _atom_site_fract_y
 _atom_site_fract_z
 _atom_site_occupancy
 _atom_site_hle17_bader_spin_density
 _atom_site_hle17_ddec_charge
 _atom_site_hle17_ddec_spin_density
 _atom_site_hle17_ddec_sum_bond_order
 _atom_site_hle17_magmom
 _atom_site_hse06_10hf_bader_spin_density
 _atom_site_hse06_10hf_ddec_charge
 _atom_site_hse06_10hf_ddec_spin_density
 _atom_site_hse06_10hf_ddec_sum_bond_order
 _atom_site_hse06_10hf_magmom
 _atom_site_hse06_bader_spin_density
 _atom_site_hse06_ddec_charge
 _atom_site_hse06_ddec_spin_density
 _atom_site_hse06_ddec_sum_bond_order
 _atom_site_hse06_magmom
 _atom_site_pbe_bader_spin_density
 _atom_site_pbe_cm5_charge
 _atom_site_pbe_ddec_charge
 _atom_site_pbe_ddec_spin_density
 _atom_site_pbe_ddec_sum_bond_order
 _atom_site_pbe_magmom
Na  Na0  1  0.05917470  0.91474537  0.43678292  1  0  0.88748  0  0.378394  0  0  0.834454  0  0.53841  0  0  0.844947  0  0.517321  0  0  0.56995  0.826659  0  0.553856  0
Na  Na1  1  0.94082692  0.08525132  0.93678117  1  0  0.887485  0  0.378384  0  0  0.83444  0  0.538449  0  0  0.844929  0  0.517355  0  0  0.569957  0.826641  0  0.553897  0
Na  Na2  1  0.42969490  0.08035099  0.60439123  1  0  0.876392  0  0.405032  0  0  0.820548  0  0.572247  0  0  0.830499  0  0.551882  0  0  0.564494  0.813155  0  0.587191  0
Na  Na3  1  0.57031032  0.91965482  0.10438984  1  0  0.876391  0  0.405034  0  0  0.820551  0  0.572232  0  0  0.8305  0  0.551867  0  0  0.56448  0.813155  0  0.587174  0
H  H4  1  0.11173516  0.86805662  0.66824651  1  0  0.389616  0  0.920145  0  0  0.359971  0  0.984533  0  0  0.368964  0  0.971464  0  0  0.267857  0.353221  0  0.994415  0
H  H5  1  0.88827212  0.13194551  0.16824381  1  0  0.389603  0  0.920137  0  0  0.359961  0  0.984522  0  0  0.368952  0  0.971455  0  0  0.267862  0.353212  0  0.994401  0
H  H6  1  0.05569070  0.00197549  0.66736648  1  0  0.427259  0  0.873892  0  0  0.400369  0  0.930631  0  0  0.410896  0  0.915184  0  0  0.283314  0.392692  0  0.941947  0
H  H7  1  0.94430746  0.99802356  0.16736594  1  0  0.427246  0  0.873918  0  0  0.400372  0  0.930629  0  0  0.410898  0  0.915183  0  0  0.283326  0.392693  0  0.941946  0
H  H8  1  0.57006558  0.18736397  0.80454154  1  0  0.393306  0  0.925967  0  0  0.349518  0  1.011964  0  0  0.360872  0  0.995693  0  0  0.277857  0.34152  0  1.023431  0
H  H9  1  0.42994135  0.81264107  0.30453915  1  0  0.393316  0  0.925956  0  0  0.349535  0  1.011942  0  0  0.360887  0  0.995674  0  0  0.277841  0.341532  0  1.023416  0
H  H10  1  0.36743951  0.08313572  0.83549655  1  0  0.421665  0  0.873365  0  0  0.39334  0  0.935342  0  0  0.403562  0  0.920451  0  0  0.29153  0.385992  0  0.946091  0
H  H11  1  0.63256754  0.91686543  0.33549714  1  0  0.421567  0  0.873501  0  0  0.393299  0  0.935387  0  0  0.403522  0  0.920495  0  0  0.291502  0.385955  0  0.946128  0
H  H12  1  0.48366184  0.83748859  0.54492720  1  0  0.38211  0  0.927297  0  0  0.352191  0  1.000056  0  0  0.361915  0  0.986146  0  0  0.266516  0.345264  0  1.009975  0
H  H13  1  0.51633487  0.16251479  0.04492935  1  0  0.382242  0  0.927248  0  0  0.352338  0  0.99988  0  0  0.362058  0  0.985965  0  0  0.266571  0.34541  0  1.009801  0
H  H14  1  0.62680619  0.86285816  0.63615276  1  0  0.387766  0  0.913285  0  0  0.357722  0  0.985704  0  0  0.367032  0  0.972369  0  0  0.269085  0.351013  0  0.995343  0
H  H15  1  0.37319052  0.13714172  0.13615239  1  0  0.387741  0  0.913309  0  0  0.357699  0  0.985734  0  0  0.367008  0  0.972399  0  0  0.269055  0.350995  0  0.995365  0
H  H16  1  0.74109972  0.98103395  0.48887688  1  0  0.417559  0  0.890621  0  0  0.387883  0  0.952599  0  0  0.398521  0  0.937008  0  0  0.284263  0.38033  0  0.96366  0
H  H17  1  0.25890166  0.01896614  0.98887633  1  0  0.417584  0  0.890589  0  0  0.387911  0  0.952562  0  0  0.39855  0  0.936971  0  0  0.284275  0.380356  0  0.963629  0
H  H18  1  0.83349783  0.10190731  0.40796008  1  0  0.390623  0  0.911032  0  0  0.361324  0  0.978346  0  0  0.370644  0  0.964816  0  0  0.271571  0.354692  0  0.987988  0
H  H19  1  0.16650929  0.89809124  0.90795998  1  0  0.390599  0  0.911086  0  0  0.361295  0  0.978395  0  0  0.370613  0  0.964868  0  0  0.271528  0.354666  0  0.988032  0
H  H20  1  0.42891577  0.00221206  0.36730324  1  0  0.4226  0  0.882831  0  0  0.395912  0  0.939796  0  0  0.406508  0  0.92427  0  0  0.281276  0.388234  0  0.951102  0
H  H21  1  0.57108975  0.99779032  0.86730342  1  0  0.422634  0  0.882782  0  0  0.39593  0  0.939767  0  0  0.406525  0  0.924244  0  0  0.281289  0.388249  0  0.95108  0
H  H22  1  0.36413900  0.13120082  0.37774100  1  0  0.379871  0  0.939018  0  0  0.35079  0  1.002824  0  0  0.360184  0  0.989141  0  0  0.260059  0.343839  0  1.012985  0
H  H23  1  0.63586195  0.86879958  0.87774142  1  0  0.379871  0  0.939015  0  0  0.350788  0  1.002822  0  0  0.360182  0  0.989138  0  0  0.260059  0.343838  0  1.012982  0
H  H24  1  0.90961347  0.80582690  0.24593155  1  0  0.383145  0  0.943143  0  0  0.339908  0  1.030047  0  0  0.351381  0  1.013695  0  0  0.275082  0.331853  0  1.041523  0
H  H25  1  0.09038104  0.19417266  0.74592777  1  0  0.383144  0  0.943214  0  0  0.33989  0  1.030091  0  0  0.351364  0  1.013737  0  0  0.27506  0.331834  0  1.041568  0
H  H26  1  0.10736215  0.85897420  0.19775547  1  0  0.398278  0  0.879298  0  0  0.371642  0  0.956623  0  0  0.38001  0  0.944573  0  0  0.287048  0.365563  0  0.963576  0
H  H27  1  0.89263316  0.14102607  0.69775347  1  0  0.398276  0  0.879286  0  0  0.37164  0  0.956605  0  0  0.380009  0  0.944569  0  0  0.287028  0.365562  0  0.963558  0
H  H28  1  0.02890787  0.57552523  0.96185665  1  0  0.290723  0  0.936452  0  0  0.265654  0  1.016042  0  0  0.275431  0  1.008328  0  0  0.27908  0.258795  0  1.02149  0
H  H29  1  0.97109471  0.42447571  0.46185402  1  0  0.290746  0  0.936394  0  0  0.265685  0  1.015964  0  0  0.275463  0  1.00825  0  0  0.279107  0.25883  0  1.021404  0
H  H30  1  0.04139261  0.55464538  0.63839355  1  0  0.286526  0  0.947126  0  0  0.261962  0  1.026378  0  0  0.271656  0  1.018965  0  0  0.274735  0.255132  0  1.03174  0
H  H31  1  0.95861672  0.44535962  0.13839087  1  0  0.286562  0  0.947157  0  0  0.261977  0  1.026416  0  0  0.271672  0  1.019005  0  0  0.274748  0.255149  0  1.031774  0
H  H32  1  0.46449869  0.42762958  0.41797160  1  0  0.281841  0  0.953596  0  0  0.255321  0  1.037162  0  0  0.265581  0  1.02917  0  0  0.271226  0.248115  0  1.042862  0
H  H33  1  0.53549391  0.57236495  0.91796867  1  0  0.281794  0  0.95374  0  0  0.255293  0  1.037318  0  0  0.265555  0  1.029321  0  0  0.271203  0.248082  0  1.043017  0
H  H34  1  0.44196753  0.44048801  0.09338145  1  0  0.281918  0  0.957115  0  0  0.256916  0  1.038305  0  0  0.266803  0  1.030774  0  0  0.271724  0.249965  0  1.043656  0
H  H35  1  0.55802571  0.55950853  0.59338182  1  0  0.281916  0  0.957341  0  0  0.256897  0  1.038525  0  0  0.266779  0  1.03101  0  0  0.271726  0.249946  0  1.04388  0
C  C36  1  0.84232312  0.38994794  0.71100874  1  0  0.47903  0  3.777756  0  0  0.439023  0  4.075103  0  0  0.466713  0  4.081217  0  0  0.238279  0.420642  0  4.070151  0
C  C37  1  0.15768374  0.61005753  0.21100600  1  0  0.479202  0  3.777819  0  0  0.439083  0  4.075284  0  0  0.466776  0  4.081399  0  0  0.238325  0.42071  0  4.070319  0
C  C38  1  0.04859894  0.58854799  0.79919581  1  0  0.476414  0  3.792812  0  0  0.423671  0  4.098998  0  0  0.452104  0  4.105794  0  0  0.244693  0.404675  0  4.093534  0
C  C39  1  0.95139931  0.41146111  0.29919066  1  0  0.476291  0  3.793189  0  0  0.423652  0  4.099158  0  0  0.452092  0  4.105956  0  0  0.244704  0.404657  0  4.093696  0
C  C40  1  0.83616917  0.40233235  0.89575093  1  0  0.473221  0  3.804917  0  0  0.431171  0  4.105597  0  0  0.45947  0  4.111054  0  0  0.240095  0.412387  0  4.101056  0
C  C41  1  0.16382740  0.59766919  0.39574820  1  0  0.473155  0  3.804736  0  0  0.431109  0  4.105451  0  0  0.459405  0  4.110913  0  0  0.240106  0.412322  0  4.100909  0
C  C42  1  0.65874567  0.59852076  0.34820947  1  0  0.474731  0  3.780254  0  0  0.434941  0  4.079159  0  0  0.462591  0  4.085537  0  0  0.234178  0.416597  0  4.074072  0
C  C43  1  0.34125208  0.40147638  0.84820830  1  0  0.474618  0  3.780368  0  0  0.434955  0  4.079068  0  0  0.462608  0  4.085437  0  0  0.234205  0.416595  0  4.073996  0
C  C44  1  0.44024143  0.41129939  0.25531378  1  0  0.479791  0  3.777829  0  0  0.42689  0  4.083885  0  0  0.455511  0  4.09023  0  0  0.245942  0.407698  0  4.078755  0
C  C45  1  0.55975367  0.58869819  0.75531102  1  0  0.479705  0  3.777944  0  0  0.426795  0  4.083934  0  0  0.455417  0  4.090268  0  0  0.245839  0.407614  0  4.078783  0
C  C46  1  0.64368741  0.60644654  0.16271725  1  0  0.464378  0  3.811184  0  0  0.423277  0  4.111451  0  0  0.451253  0  4.117333  0  0  0.235225  0.404695  0  4.106728  0
C  C47  1  0.35631025  0.39355453  0.66271378  1  0  0.464502  0  3.811014  0  0  0.423386  0  4.111252  0  0  0.451356  0  4.117139  0  0  0.235288  0.404796  0  4.10654  0
S  S48  1  0.78018809  0.30727741  0.59495456  1  0  -0.470194  0  1.925694  0  0  -0.458017  0  2.248867  0  0  -0.472931  0  2.242079  0  0  -0.170935  -0.447305  0  2.253456  0
S  S49  1  0.21981437  0.69272834  0.09495309  1  0  -0.470202  0  1.925744  0  0  -0.457983  0  2.248954  0  0  -0.472899  0  2.242165  0  0  -0.170879  -0.447269  0  2.253539  0
S  S50  1  0.21611606  0.73848448  0.79454414  1  0  -0.387492  0  1.924033  0  0  -0.360816  0  2.234258  0  0  -0.376194  0  2.22741  0  0  -0.132593  -0.34957  0  2.239038  0
S  S51  1  0.78389238  0.26151846  0.29454015  1  0  -0.387482  0  1.924044  0  0  -0.360862  0  2.234213  0  0  -0.376244  0  2.227365  0  0  -0.132627  -0.349616  0  2.238996  0
S  S52  1  0.76830387  0.33377156  0.01596814  1  0  -0.443535  0  2.037292  0  0  -0.427739  0  2.368631  0  0  -0.444807  0  2.363226  0  0  -0.136965  -0.415822  0  2.37266  0
S  S53  1  0.23169527  0.66622960  0.51596739  1  0  -0.443462  0  2.037251  0  0  -0.42766  0  2.36859  0  0  -0.444723  0  2.363196  0  0  -0.136953  -0.41574  0  2.372617  0
S  S54  1  0.71271352  0.68487072  0.04609374  1  0  -0.446582  0  1.953802  0  0  -0.435417  0  2.278047  0  0  -0.451635  0  2.273604  0  0  -0.164769  -0.424081  0  2.281321  0
S  S55  1  0.28727881  0.31512552  0.54608895  1  0  -0.446692  0  1.953662  0  0  -0.435545  0  2.277915  0  0  -0.451763  0  2.273475  0  0  -0.164846  -0.424206  0  2.2812  0
S  S56  1  0.27551127  0.25867931  0.25565047  1  0  -0.400874  0  1.938622  0  0  -0.36805  0  2.242894  0  0  -0.383301  0  2.235331  0  0  -0.130206  -0.356862  0  2.248243  0
S  S57  1  0.72448169  0.74131929  0.75564892  1  0  -0.400774  0  1.93865  0  0  -0.36797  0  2.242918  0  0  -0.383216  0  2.235351  0  0  -0.130169  -0.356787  0  2.248262  0
S  S58  1  0.74786794  0.66316902  0.46582878  1  0  -0.448848  0  1.941407  0  0  -0.443751  0  2.274473  0  0  -0.459252  0  2.269564  0  0  -0.178153  -0.432819  0  2.277824  0
S  S59  1  0.25212251  0.33682173  0.96582935  1  0  -0.448825  0  1.94141  0  0  -0.443776  0  2.274413  0  0  -0.459272  0  2.269499  0  0  -0.178157  -0.43284  0  2.277774  0
N  N60  1  0.76623963  0.33798987  0.80481764  1  0  -0.509961  0  3.06607  0  0  -0.447201  0  3.329119  0  0  -0.471507  0  3.335912  0  0  -0.326782  -0.430985  0  3.324293  0
N  N61  1  0.23376424  0.66201109  0.30481225  1  0  -0.510082  0  3.066144  0  0  -0.447319  0  3.329258  0  0  -0.471621  0  3.336047  0  0  -0.326869  -0.43111  0  3.324449  0
N  N62  1  0.97251042  0.52790028  0.89149914  1  0  -0.419052  0  3.381722  0  0  -0.348076  0  3.616749  0  0  -0.372166  0  3.623942  0  0  -0.372227  -0.332047  0  3.611516  0
N  N63  1  0.02749549  0.47209612  0.39149224  1  0  -0.418962  0  3.381687  0  0  -0.348036  0  3.616704  0  0  -0.372127  0  3.623896  0  0  -0.372264  -0.33201  0  3.611473  0
N  N64  1  0.97987281  0.51501530  0.71022276  1  0  -0.415935  0  3.363934  0  0  -0.346935  0  3.60076  0  0  -0.371227  0  3.60851  0  0  -0.374962  -0.330554  0  3.595175  0
N  N65  1  0.02014046  0.48498710  0.21021582  1  0  -0.415959  0  3.363963  0  0  -0.346904  0  3.600742  0  0  -0.371213  0  3.608503  0  0  -0.374984  -0.330523  0  3.595152  0
N  N66  1  0.72101254  0.66146352  0.25531401  1  0  -0.504868  0  3.084337  0  0  -0.438796  0  3.343392  0  0  -0.463313  0  3.350678  0  0  -0.326271  -0.422463  0  3.338293  0
N  N67  1  0.27898595  0.33852997  0.75530762  1  0  -0.504821  0  3.08421  0  0  -0.43881  0  3.343245  0  0  -0.463338  0  3.350565  0  0  -0.326295  -0.422459  0  3.338136  0
N  N68  1  0.51699928  0.47513494  0.34619233  1  0  -0.41888  0  3.374199  0  0  -0.349462  0  3.61297  0  0  -0.373953  0  3.620276  0  0  -0.374726  -0.333075  0  3.607658  0
N  N69  1  0.48299237  0.52486015  0.84618584  1  0  -0.418764  0  3.374423  0  0  -0.349387  0  3.613021  0  0  -0.373907  0  3.6204  0  0  -0.374611  -0.332995  0  3.607701  0
N  N70  1  0.50517155  0.48143132  0.16458099  1  0  -0.418337  0  3.380012  0  0  -0.347781  0  3.615643  0  0  -0.371711  0  3.622397  0  0  -0.373625  -0.331701  0  3.610638  0
N  N71  1  0.49482005  0.51856465  0.66457298  1  0  -0.418347  0  3.380271  0  0  -0.347731  0  3.615819  0  0  -0.371646  0  3.62255  0  0  -0.373573  -0.331653  0  3.61082  0
O  O72  1  0.11476643  0.94693208  0.62396971  1  0  -0.923681  0  1.83608  0  0  -0.873639  0  2.007523  0  0  -0.89009  0  1.976038  0  0  -0.699302  -0.86217  0  2.030746  0
O  O73  1  0.88523651  0.05306772  0.12396690  1  0  -0.92364  0  1.83604  0  0  -0.873593  0  2.007443  0  0  -0.890039  0  1.97596  0  0  -0.699322  -0.862124  0  2.030663  0
O  O74  1  0.47800717  0.09490188  0.79154782  1  0  -0.870572  0  1.873696  0  0  -0.81003  0  2.055918  0  0  -0.829066  0  2.022929  0  0  -0.635499  -0.796457  0  2.079552  0
O  O75  1  0.52199559  0.90510001  0.29154453  1  0  -0.870472  0  1.873744  0  0  -0.809974  0  2.055877  0  0  -0.829008  0  2.022881  0  0  -0.635456  -0.796409  0  2.079514  0
O  O76  1  0.57825249  0.91198562  0.58239661  1  0  -0.831897  0  1.915221  0  0  -0.771401  0  2.080645  0  0  -0.790222  0  2.051385  0  0  -0.61884  -0.758107  0  2.101594  0
O  O77  1  0.42174624  0.08801800  0.08239728  1  0  -0.831999  0  1.915271  0  0  -0.771521  0  2.080589  0  0  -0.790331  0  2.051354  0  0  -0.618851  -0.758225  0  2.101535  0
O  O78  1  0.82230480  0.00677091  0.42520804  1  0  -0.872411  0  1.859386  0  0  -0.814799  0  2.02178  0  0  -0.8337  0  1.99166  0  0  -0.6479  -0.801422  0  2.043209  0
O  O79  1  0.17769663  0.99322877  0.92520654  1  0  -0.872435  0  1.859352  0  0  -0.81481  0  2.021761  0  0  -0.833703  0  1.991635  0  0  -0.647877  -0.801428  0  2.04319  0
O  O80  1  0.37032963  0.05076107  0.41750363  1  0  -0.921812  0  1.836524  0  0  -0.869789  0  2.007991  0  0  -0.886745  0  1.976505  0  0  -0.706904  -0.857881  0  2.030973  0
O  O81  1  0.62967210  0.94923958  0.91750332  1  0  -0.921831  0  1.836502  0  0  -0.869793  0  2.008  0  0  -0.886745  0  1.976514  0  0  -0.706907  -0.85788  0  2.030985  0
O  O82  1  0.02425524  0.88887270  0.24306222  1  0  -0.841369  0  1.863792  0  0  -0.782761  0  2.047808  0  0  -0.801286  0  2.017764  0  0  -0.614448  -0.769477  0  2.067616  0
O  O83  1  0.97574007  0.11112582  0.74306151  1  0  -0.841386  0  1.863816  0  0  -0.782743  0  2.047827  0  0  -0.801268  0  2.017792  0  0  -0.614416  -0.769457  0  2.067639  0
