# generated using pymatgen
data_Al2P3H9(CO3)3
_symmetry_space_group_name_H-M   'P 1'
_cell_length_a   8.63063458
_cell_length_b   13.94401701
_cell_length_c   13.94402211
_cell_angle_alpha   120.00005134
_cell_angle_beta   89.99998599
_cell_angle_gamma   90.00009995
_symmetry_Int_Tables_number   1
_chemical_formula_structural   Al2P3H9(CO3)3
_chemical_formula_sum   'Al8 P12 H36 C12 O36'
_cell_volume   1453.27935134
_cell_formula_units_Z   4
loop_
 _symmetry_equiv_pos_site_id
 _symmetry_equiv_pos_as_xyz
  1  'x, y, z'
loop_
 _atom_site_type_symbol
 _atom_site_label
 _atom_site_symmetry_multiplicity
 _atom_site_fract_x
 _atom_site_fract_y
 _atom_site_fract_z
 _atom_site_occupancy
 _atom_site_pbe_bader_charge
 _atom_site_pbe_bader_spin_density
 _atom_site_pbe_cm5_charge
 _atom_site_pbe_ddec_charge
 _atom_site_pbe_ddec_spin_density
 _atom_site_pbe_ddec_sum_bond_order
 _atom_site_pbe_magmom
Al  Al0  1  0.51326325  0.66666599  0.33333255  1  2.534072  0  0.441868  1.839987  0  2.35706  0
Al  Al1  1  0.01326356  0.33333243  0.66666540  1  2.534086  0  0.441856  1.840105  0  2.356876  0
Al  Al2  1  0.44343091  0.09538874  0.60742659  1  2.48157  0  0.548767  1.730636  0  2.570672  0
Al  Al3  1  0.44343144  0.51203773  0.90461254  1  2.480704  0  0.548783  1.730618  0  2.570694  0
Al  Al4  1  0.94343123  0.90461122  0.51203549  1  2.4806  0  0.548735  1.730558  0  2.570824  0
Al  Al5  1  0.44343135  0.39257474  0.48796295  1  2.481349  0  0.548695  1.730631  0  2.570768  0
Al  Al6  1  0.94343089  0.60742512  0.09538818  1  2.481677  0  0.54877  1.73071  0  2.570629  0
Al  Al7  1  0.94343066  0.48796320  0.39257502  1  2.481327  0  0.548721  1.730675  0  2.570688  0
P  P8  1  0.30031855  0.86360381  0.51800215  1  3.424937  0  0.448671  1.521884  0  5.18545  0
P  P9  1  0.30031601  0.65439885  0.13639573  1  3.420418  0  0.448691  1.521964  0  5.185395  0
P  P10  1  0.80031665  0.13639640  0.65439970  1  3.420594  0  0.44866  1.521933  0  5.185404  0
P  P11  1  0.30032036  0.48200125  0.34560183  1  3.43166  0  0.448663  1.521947  0  5.185414  0
P  P12  1  0.80031599  0.51800409  0.86360495  1  3.425001  0  0.448692  1.522003  0  5.185402  0
P  P13  1  0.80032161  0.34560162  0.48200038  1  3.43157  0  0.448702  1.521951  0  5.185354  0
P  P14  1  0.77059546  0.71742020  0.53228289  1  3.442828  0  0.448164  1.524507  0  5.23342  0
P  P15  1  0.77059912  0.81486450  0.28257978  1  3.431656  0  0.4481  1.524398  0  5.233614  0
P  P16  1  0.27060259  0.28258061  0.81486712  1  3.431301  0  0.448095  1.524295  0  5.233716  0
P  P17  1  0.77059865  0.46771501  0.18513393  1  3.395991  0  0.448071  1.524371  0  5.233696  0
P  P18  1  0.27059601  0.53228285  0.71742108  1  3.44292  0  0.448159  1.524499  0  5.233466  0
P  P19  1  0.27059557  0.18513521  0.46771737  1  3.396183  0  0.448068  1.524355  0  5.233659  0
H  H20  1  0.20417609  0.85106718  0.67212920  1  0.072148  0  0.105509  0.174957  0  0.994314  0
H  H21  1  0.20417731  0.82106245  0.14893308  1  0.050339  0  0.105505  0.174935  0  0.994315  0
H  H22  1  0.70417770  0.14893295  0.82106254  1  0.050472  0  0.105508  0.174924  0  0.994348  0
H  H23  1  0.20417661  0.32786987  0.17893729  1  0.025381  0  0.105512  0.174963  0  0.994327  0
H  H24  1  0.70417843  0.67212974  0.85106697  1  0.072141  0  0.105505  0.174923  0  0.994364  0
H  H25  1  0.70417552  0.17893771  0.32786980  1  0.02538  0  0.105498  0.174939  0  0.99431  0
H  H26  1  0.37557937  0.76906923  0.61304878  1  0.056947  0  0.11028  0.187893  0  1.005185  0
H  H27  1  0.37557956  0.84398063  0.23093177  1  0.059822  0  0.110278  0.187886  0  1.005203  0
H  H28  1  0.87558004  0.23092990  0.84397965  1  0.060255  0  0.110277  0.18789  0  1.005179  0
H  H29  1  0.37558008  0.38694956  0.15601955  1  0.058294  0  0.110273  0.187886  0  1.005197  0
H  H30  1  0.87558060  0.61304938  0.76906898  1  0.056942  0  0.110275  0.187893  0  1.005189  0
H  H31  1  0.87557887  0.15602002  0.38694938  1  0.058307  0  0.110278  0.187879  0  1.005198  0
H  H32  1  0.19389279  0.72048749  0.54568092  1  0.107771  0  0.115748  0.199493  0  1.006722  0
H  H33  1  0.19389299  0.82519396  0.27951170  1  0.143463  0  0.115753  0.199504  0  1.006728  0
H  H34  1  0.69389359  0.27951163  0.82519409  1  0.143465  0  0.115755  0.199516  0  1.006723  0
H  H35  1  0.19389365  0.45431772  0.17480580  1  0.106561  0  0.11575  0.199499  0  1.006698  0
H  H36  1  0.69389283  0.54568173  0.72048845  1  0.10779  0  0.115753  0.199515  0  1.006727  0
H  H37  1  0.69389351  0.17480619  0.45431759  1  0.10655  0  0.11576  0.199516  0  1.006691  0
H  H38  1  0.79800022  0.77902412  0.72633427  1  0.06549  0  0.106766  0.182056  0  0.991819  0
H  H39  1  0.79799824  0.94731022  0.22097749  1  0.056142  0  0.106733  0.182001  0  0.991857  0
H  H40  1  0.29799791  0.22097694  0.94730977  1  0.056138  0  0.106754  0.182025  0  0.991927  0
H  H41  1  0.79800079  0.27366623  0.05268981  1  0.05766  0  0.106777  0.182063  0  0.991843  0
H  H42  1  0.29799866  0.72633402  0.77902387  1  0.066151  0  0.10674  0.182023  0  0.9918  0
H  H43  1  0.29800128  0.05268893  0.27366648  1  0.057652  0  0.106769  0.182059  0  0.991848  0
H  H44  1  0.61922532  0.70759298  0.67095092  1  0.076226  0  0.112906  0.191802  0  0.985829  0
H  H45  1  0.61922460  0.96335816  0.29240779  1  0.072511  0  0.11291  0.191795  0  0.985835  0
H  H46  1  0.11922436  0.29240751  0.96335892  1  0.072499  0  0.112903  0.191779  0  0.985836  0
H  H47  1  0.61922607  0.32904847  0.03664045  1  0.077089  0  0.112891  0.191787  0  0.985818  0
H  H48  1  0.11922495  0.67095171  0.70759313  1  0.076213  0  0.112898  0.191796  0  0.985811  0
H  H49  1  0.11922645  0.03664031  0.32904793  1  0.075831  0  0.112897  0.191793  0  0.98581  0
H  H50  1  0.64269540  0.84709722  0.69868272  1  0.059374  0  0.111391  0.185958  0  0.987098  0
H  H51  1  0.64269435  0.85158574  0.15290243  1  0.028562  0  0.111384  0.185931  0  0.98706  0
H  H52  1  0.14269523  0.15290253  0.85158610  1  0.028333  0  0.111391  0.185941  0  0.987065  0
H  H53  1  0.64269705  0.30131597  0.14841332  1  0.051272  0  0.111402  0.185963  0  0.987099  0
H  H54  1  0.14269485  0.69868309  0.84709772  1  0.059358  0  0.111396  0.185946  0  0.987098  0
H  H55  1  0.14269649  0.14841355  0.30131660  1  0.051279  0  0.111393  0.185951  0  0.987049  0
C  C56  1  0.26442884  0.79448962  0.59487156  1  -0.654993  0  -0.238576  -0.712148  0  3.856776  0
C  C57  1  0.26443008  0.80038202  0.20550995  1  -0.667996  0  -0.238571  -0.712135  0  3.856812  0
C  C58  1  0.76442944  0.20550916  0.80038140  1  -0.668756  0  -0.23857  -0.712149  0  3.856837  0
C  C59  1  0.26442952  0.40512714  0.19961893  1  -0.615882  0  -0.238574  -0.71216  0  3.856775  0
C  C60  1  0.76442883  0.59487240  0.79449053  1  -0.655014  0  -0.23857  -0.712157  0  3.856846  0
C  C61  1  0.76442835  0.19961854  0.40512784  1  -0.6159  0  -0.238579  -0.712144  0  3.856726  0
C  C62  1  0.70127615  0.76754959  0.67060711  1  -0.637306  0  -0.238281  -0.698294  0  3.842944  0
C  C63  1  0.70127643  0.90305732  0.23245060  1  -0.57716  0  -0.23825  -0.698188  0  3.842949  0
C  C64  1  0.20127620  0.23245147  0.90305837  1  -0.576926  0  -0.238253  -0.698173  0  3.843045  0
C  C65  1  0.70127681  0.32939316  0.09694265  1  -0.574534  0  -0.238262  -0.698248  0  3.842963  0
C  C66  1  0.20127568  0.67060637  0.76754979  1  -0.637857  0  -0.238259  -0.698234  0  3.842889  0
C  C67  1  0.20127728  0.09694215  0.32939302  1  -0.57344  0  -0.23827  -0.698247  0  3.842868  0
O  O68  1  0.38762259  0.79292414  0.41182029  1  -1.532158  0  -0.290419  -0.823435  0  2.323295  0
O  O69  1  0.38762239  0.61889602  0.20707644  1  -1.530823  0  -0.290414  -0.823447  0  2.323262  0
O  O70  1  0.88762088  0.20707760  0.61889645  1  -1.530783  0  -0.290414  -0.823478  0  2.323269  0
O  O71  1  0.38762115  0.58817929  0.38110339  1  -1.53305  0  -0.290386  -0.823436  0  2.323455  0
O  O72  1  0.88762345  0.41181966  0.79292352  1  -1.532169  0  -0.290425  -0.823462  0  2.323178  0
O  O73  1  0.88762113  0.38110392  0.58817906  1  -1.532924  0  -0.290404  -0.823447  0  2.323415  0
O  O74  1  0.39189364  0.96985845  0.59852030  1  -1.567002  0  -0.306045  -0.857328  0  2.224098  0
O  O75  1  0.39189443  0.62866190  0.03014205  1  -1.565523  0  -0.306057  -0.857343  0  2.22405  0
O  O76  1  0.89189494  0.03014199  0.62866199  1  -1.565511  0  -0.306022  -0.857282  0  2.224064  0
O  O77  1  0.39189520  0.40147982  0.37133849  1  -1.565767  0  -0.306057  -0.857364  0  2.223976  0
O  O78  1  0.89189452  0.59852044  0.96985850  1  -1.567115  0  -0.306037  -0.857368  0  2.22409  0
O  O79  1  0.89189431  0.37133793  0.40147938  1  -1.565795  0  -0.306073  -0.857383  0  2.224003  0
O  O80  1  0.14325831  0.89925842  0.49102785  1  -1.563015  0  -0.298316  -0.859259  0  2.265479  0
O  O81  1  0.14325911  0.59176998  0.10074137  1  -1.564627  0  -0.298304  -0.859301  0  2.265493  0
O  O82  1  0.64325864  0.10074156  0.59177133  1  -1.564608  0  -0.29832  -0.859304  0  2.265477  0
O  O83  1  0.14325778  0.50897096  0.40823029  1  -1.564299  0  -0.298294  -0.859272  0  2.265372  0
O  O84  1  0.64325913  0.49102754  0.89925746  1  -1.563087  0  -0.298332  -0.859326  0  2.265544  0
O  O85  1  0.64325677  0.40822993  0.50897171  1  -1.564294  0  -0.29834  -0.859301  0  2.265336  0
O  O86  1  0.63711282  0.71323754  0.46105672  1  -1.539071  0  -0.28647  -0.844507  0  2.363053  0
O  O87  1  0.63711174  0.74781787  0.28676199  1  -1.541403  0  -0.286486  -0.844536  0  2.362937  0
O  O88  1  0.13710721  0.28676229  0.74781677  1  -1.541113  0  -0.286474  -0.844541  0  2.362709  0
O  O89  1  0.63711029  0.53894299  0.25218171  1  -1.54385  0  -0.286484  -0.844534  0  2.362902  0
O  O90  1  0.13711210  0.46105700  0.71323805  1  -1.539246  0  -0.286476  -0.844568  0  2.363095  0
O  O91  1  0.13710952  0.25218121  0.53894281  1  -1.543905  0  -0.286471  -0.844573  0  2.363024  0
O  O92  1  0.84788627  0.60432198  0.49628630  1  -1.567897  0  -0.296134  -0.846772  0  2.258642  0
O  O93  1  0.84788553  0.89196405  0.39567667  1  -1.568706  0  -0.296074  -0.846639  0  2.258848  0
O  O94  1  0.34787863  0.39567790  0.89196200  1  -1.568744  0  -0.296114  -0.846622  0  2.258976  0
O  O95  1  0.84788388  0.50371248  0.10803649  1  -1.564516  0  -0.296086  -0.84666  0  2.258881  0
O  O96  1  0.34788694  0.49628599  0.60432175  1  -1.567887  0  -0.296134  -0.846774  0  2.258669  0
O  O97  1  0.34788061  0.10803836  0.50371703  1  -1.564521  0  -0.296112  -0.846638  0  2.258841  0
O  O98  1  0.89998583  0.79773514  0.53914389  1  -1.567561  0  -0.30123  -0.870751  0  2.290593  0
O  O99  1  0.89998697  0.74141034  0.20226480  1  -1.573179  0  -0.301205  -0.870787  0  2.290652  0
O  O100  1  0.39998695  0.20226506  0.74141066  1  -1.573183  0  -0.301193  -0.870718  0  2.290724  0
O  O101  1  0.89998772  0.46085582  0.25859099  1  -1.569796  0  -0.301218  -0.870796  0  2.290649  0
O  O102  1  0.39998510  0.53914471  0.79773510  1  -1.567573  0  -0.30122  -0.870731  0  2.290565  0
O  O103  1  0.39998709  0.25859134  0.46085629  1  -1.56979  0  -0.301189  -0.870744  0  2.290629  0
