# generated using pymatgen
data_Zn2H28C40(N2O3)3
_symmetry_space_group_name_H-M   'P 1'
_cell_length_a   9.48666101
_cell_length_b   19.54695161
_cell_length_c   19.54890295
_cell_angle_alpha   117.44236915
_cell_angle_beta   99.31736470
_cell_angle_gamma   99.29132251
_symmetry_Int_Tables_number   1
_chemical_formula_structural   Zn2H28C40(N2O3)3
_chemical_formula_sum   'Zn6 H84 C120 N18 O27'
_cell_volume   3057.18904073
_cell_formula_units_Z   3
loop_
 _symmetry_equiv_pos_site_id
 _symmetry_equiv_pos_as_xyz
  1  'x, y, z'
loop_
 _atom_site_type_symbol
 _atom_site_label
 _atom_site_symmetry_multiplicity
 _atom_site_fract_x
 _atom_site_fract_y
 _atom_site_fract_z
 _atom_site_occupancy
 _atom_site_pbe_bader_charge
 _atom_site_pbe_bader_spin_density
 _atom_site_pbe_cm5_charge
 _atom_site_pbe_ddec_charge
 _atom_site_pbe_ddec_spin_density
 _atom_site_pbe_ddec_sum_bond_order
 _atom_site_pbe_magmom
Zn  Zn0  1  0.62830635  0.62115699  0.46255210  1  1.245469  0  0.710255  0.769012  0  2.392682  0
Zn  Zn1  1  0.16599299  0.53768147  0.15873751  1  1.246773  0  0.709675  0.768275  0  2.392401  0
Zn  Zn2  1  0.00740934  0.84126713  0.37880014  1  1.246628  0  0.710174  0.768752  0  2.393365  0
Zn  Zn3  1  0.07315443  0.25962035  0.12816231  1  1.307403  0  0.667524  0.850091  0  2.247254  0
Zn  Zn4  1  0.94567249  0.87209980  0.13158512  1  1.309597  0  0.667653  0.850385  0  2.246614  0
Zn  Zn5  1  0.81409184  0.86840460  0.74044081  1  1.308283  0  0.667774  0.850245  0  2.248523  0
H  H6  1  0.38401477  0.23547852  0.16056443  1  0.111108  0  0.120041  0.091881  0  0.999875  0
H  H7  1  0.22407769  0.83938233  0.07486531  1  0.109127  0  0.119845  0.09142  0  1.001444  0
H  H8  1  0.14918031  0.92493836  0.76442995  1  0.112632  0  0.12017  0.09203  0  1.000404  0
H  H9  1  0.53347545  0.20920861  0.25774567  1  0.089222  0  0.113734  0.123383  0  0.984763  0
H  H10  1  0.27574983  0.74216130  0.95121649  1  0.060497  0  0.11386  0.123989  0  0.984605  0
H  H11  1  0.32456566  0.04844781  0.79066753  1  0.062029  0  0.113806  0.124043  0  0.984644  0
H  H12  1  0.20026558  0.25704522  0.38846400  1  0.064561  0  0.099359  0.103016  0  1.043811  0
H  H13  1  0.81177328  0.61185021  0.86880281  1  0.085821  0  0.099524  0.103521  0  1.043943  0
H  H14  1  0.94320584  0.13113978  0.74286928  1  0.073261  0  0.099301  0.102897  0  1.044481  0
H  H15  1  0.06897060  0.28557555  0.28708410  1  0.174795  0  0.1218  0.107466  0  1.007763  0
H  H16  1  0.78239213  0.71326595  0.99882945  1  0.164928  0  0.121576  0.107879  0  1.007363  0
H  H17  1  0.78372065  0.00120852  0.71434826  1  0.14905  0  0.121867  0.108251  0  1.00731  0
H  H18  1  0.95710198  0.37350404  0.06177421  1  0.187955  0  0.12033  0.103286  0  1.043409  0
H  H19  1  0.89574683  0.93825020  0.31171485  1  0.201575  0  0.120723  0.104069  0  1.04294  0
H  H20  1  0.58406667  0.68817215  0.62659570  1  0.180834  0  0.120456  0.103507  0  1.042246  0
H  H21  1  0.84445135  0.27591560  0.92084742  1  0.109106  0  0.114769  0.124784  0  0.994467  0
H  H22  1  0.92480141  0.07920468  0.35498310  1  0.082218  0  0.11507  0.125341  0  0.995214  0
H  H23  1  0.56960344  0.64488046  0.72421970  1  0.073637  0  0.115348  0.12545  0  0.995234  0
H  H24  1  0.03180050  0.45611135  0.86524463  1  0.065  0  0.102246  0.106841  0  1.038456  0
H  H25  1  0.16685929  0.13474482  0.59095057  1  0.106214  0  0.102457  0.106812  0  1.038575  0
H  H26  1  0.57653293  0.40898197  0.54394159  1  0.061314  0  0.102494  0.107512  0  1.03809  0
H  H27  1  0.14237400  0.54636713  0.01038902  1  0.13817  0  0.122846  0.096725  0  0.983475  0
H  H28  1  0.13183714  0.98952617  0.53606427  1  0.10042  0  0.122989  0.096609  0  0.983078  0
H  H29  1  0.59660081  0.46390062  0.45368657  1  0.119807  0  0.122517  0.096072  0  0.983274  0
H  H30  1  0.34439634  0.61719576  0.34298161  1  0.128572  0  0.117015  0.113125  0  1.047462  0
H  H31  1  0.00176056  0.65730445  0.27432228  1  0.125491  0  0.116868  0.112475  0  1.047634  0
H  H32  1  0.72797250  0.72583943  0.38301853  1  0.132192  0  0.116964  0.112552  0  1.0469  0
H  H33  1  0.32446139  0.76039526  0.34817461  1  0.170511  0  0.126535  0.13622  0  1.029375  0
H  H34  1  0.97581821  0.65190773  0.41214566  1  0.181287  0  0.126367  0.136044  0  1.030806  0
H  H35  1  0.56423491  0.58792089  0.23995444  1  0.175357  0  0.126316  0.135902  0  1.028742  0
H  H36  1  0.67695048  0.80739292  0.54175195  1  0.232922  0  0.141675  0.122108  0  1.029141  0
H  H37  1  0.13494112  0.45833508  0.26563551  1  0.219651  0  0.141176  0.121888  0  1.028893  0
H  H38  1  0.86916358  0.73425259  0.19248856  1  0.213317  0  0.141596  0.122529  0  1.028116  0
H  H39  1  0.33149478  0.88433748  0.41629392  1  0.140324  0  0.10807  0.125083  0  1.071055  0
H  H40  1  0.91433168  0.58357123  0.46780473  1  0.147955  0  0.108594  0.125512  0  1.07185  0
H  H41  1  0.44699220  0.53181948  0.11598778  1  0.146842  0  0.10775  0.124265  0  1.070508  0
H  H42  1  0.39270853  0.02738599  0.45522891  1  0.070524  0  0.103294  0.112855  0  1.004874  0
H  H43  1  0.93644564  0.54454921  0.57184043  1  0.051692  0  0.102679  0.11164  0  1.005234  0
H  H44  1  0.36472071  0.42784111  0.97290154  1  0.092315  0  0.102913  0.112688  0  1.004254  0
H  H45  1  0.83994538  0.05811407  0.57598933  1  0.078893  0  0.09769  0.100772  0  1.029891  0
H  H46  1  0.26324794  0.42395797  0.48200277  1  0.07908  0  0.097524  0.100339  0  1.029938  0
H  H47  1  0.78056869  0.51799786  0.94174012  1  0.070286  0  0.097734  0.100128  0  1.031473  0
H  H48  1  0.78051823  0.91432242  0.53513379  1  0.163421  0  0.110524  0.135581  0  1.040311  0
H  H49  1  0.24480545  0.46485044  0.37913180  1  0.162899  0  0.110609  0.135912  0  1.040318  0
H  H50  1  0.86534347  0.62083270  0.08554202  1  0.174284  0  0.110407  0.134868  0  1.039754  0
H  H51  1  0.97701516  0.36900471  0.74928835  1  0.071696  0  0.097788  0.093764  0  1.041439  0
H  H52  1  0.22830077  0.25084123  0.61971304  1  0.06888  0  0.097675  0.09352  0  1.04173  0
H  H53  1  0.60850293  0.38017177  0.63127947  1  0.046501  0  0.098058  0.093832  0  1.041935  0
H  H54  1  0.85710345  0.27509062  0.60649523  1  0.085546  0  0.100147  0.108622  0  1.033323  0
H  H55  1  0.25041369  0.39360763  0.66866991  1  0.098337  0  0.100077  0.10879  0  1.033154  0
H  H56  1  0.58133158  0.33128801  0.72510915  1  0.083383  0  0.100225  0.109238  0  1.032129  0
H  H57  1  0.60096813  0.11782301  0.66660388  1  0.107658  0  0.112386  0.128105  0  0.981572  0
H  H58  1  0.93436873  0.33320799  0.45104279  1  0.101351  0  0.112548  0.128414  0  0.981832  0
H  H59  1  0.48287630  0.54899773  0.88214426  1  0.079723  0  0.112511  0.128553  0  0.981933  0
H  H60  1  0.71278985  0.21324508  0.80902276  1  0.063502  0  0.106398  0.105635  0  1.012013  0
H  H61  1  0.90439304  0.19082010  0.40402355  1  0.067512  0  0.106359  0.104669  0  1.011358  0
H  H62  1  0.50021466  0.59595167  0.78676875  1  0.065203  0  0.105918  0.103717  0  1.011375  0
H  H63  1  0.50511758  0.24566822  0.58050925  1  0.056781  0  0.100457  0.106755  0  1.03166  0
H  H64  1  0.92398433  0.41955272  0.66500188  1  0.055374  0  0.100519  0.107086  0  1.030704  0
H  H65  1  0.25845866  0.33483005  0.75435543  1  0.055081  0  0.100741  0.107457  0  1.031371  0
H  H66  1  0.38569858  0.28679731  0.48938614  1  0.053218  0  0.099061  0.097779  0  1.026381  0
H  H67  1  0.89580353  0.51071834  0.79728644  1  0.06349  0  0.099042  0.097404  0  1.026816  0
H  H68  1  0.09843772  0.20243296  0.71315821  1  0.065819  0  0.098452  0.096568  0  1.027471  0
H  H69  1  0.53451168  0.11780841  0.29913437  1  0.06818  0  0.111255  0.113715  0  0.989234  0
H  H70  1  0.23502545  0.70080416  0.81854003  1  0.087573  0  0.111147  0.113409  0  0.990645  0
H  H71  1  0.41685666  0.18127977  0.88193742  1  0.073564  0  0.110809  0.112713  0  0.989871  0
H  H72  1  0.65415409  0.07688947  0.39126610  1  0.08764  0  0.10783  0.115117  0  1.011604  0
H  H73  1  0.26243418  0.60863109  0.68550435  1  0.073945  0  0.1077  0.11535  0  1.009786  0
H  H74  1  0.57680461  0.31447721  0.92299251  1  0.074826  0  0.107597  0.114546  0  1.01059  0
H  H75  1  0.77833730  0.42414826  0.28976786  1  0.107132  0  0.103203  0.111278  0  1.025546  0
H  H76  1  0.48904994  0.71050852  0.13430552  1  0.092778  0  0.103729  0.112258  0  1.025794  0
H  H77  1  0.35474471  0.86561129  0.57599179  1  0.105319  0  0.103549  0.111567  0  1.02577  0
H  H78  1  0.37163999  0.30439677  0.03974401  1  0.076878  0  0.10011  0.107819  0  1.016523  0
H  H79  1  0.33254603  0.96055594  0.26492660  1  0.09701  0  0.100534  0.108787  0  1.016729  0
H  H80  1  0.06793328  0.73488717  0.69533757  1  0.087428  0  0.100029  0.107549  0  1.016782  0
H  H81  1  0.60957677  0.26399323  0.03655181  1  0.095105  0  0.103064  0.106322  0  1.003533  0
H  H82  1  0.57344265  0.96374516  0.22752665  1  0.054622  0  0.103175  0.106753  0  1.003286  0
H  H83  1  0.34623721  0.77234110  0.73594309  1  0.059543  0  0.103059  0.106474  0  1.003304  0
H  H84  1  0.90457386  0.12422541  0.05220247  1  0.657554  0  0.285151  0.36537  0  0.973186  0
H  H85  1  0.85246022  0.94785871  0.07198977  1  0.613446  0  0.285413  0.365456  0  0.972799  0
H  H86  1  0.78044421  0.92791946  0.87576499  1  0.641473  0  0.285391  0.365663  0  0.972735  0
H  H87  1  0.96116312  0.11598345  0.12861895  1  0.649166  0  0.279855  0.367905  0  0.975512  0
H  H88  1  0.83285769  0.87149648  0.98733231  1  0.636767  0  0.280102  0.368955  0  0.974251  0
H  H89  1  0.84511656  0.01259387  0.88404814  1  0.638669  0  0.280152  0.36869  0  0.97433  0
C  C90  1  0.34811159  0.24020773  0.21244751  1  0.470444  0  0.053842  0.104477  0  3.944233  0
C  C91  1  0.13611293  0.78758534  0.02776992  1  0.480695  0  0.055034  0.106849  0  3.946141  0
C  C92  1  0.10837742  0.97207079  0.75972951  1  0.50182  0  0.053669  0.105078  0  3.944238  0
C  C93  1  0.43030505  0.22493273  0.26686000  1  0.004249  0  -0.080769  -0.178505  0  3.948911  0
C  C94  1  0.16359005  0.73313253  0.95799062  1  0.023171  0  -0.081088  -0.179956  0  3.947682  0
C  C95  1  0.20567432  0.04178519  0.77496884  1  -0.029676  0  -0.080865  -0.180649  0  3.95035  0
C  C96  1  0.37903400  0.22937308  0.33193085  1  -0.042418  0  0.011576  0.106916  0  4.011479  0
C  C97  1  0.04701560  0.66814416  0.89741565  1  -0.052072  0  0.01255  0.108878  0  4.00842  0
C  C98  1  0.14980945  0.10239442  0.77051102  1  0.02291  0  0.012312  0.108455  0  4.009266  0
C  C99  1  0.24795473  0.25334786  0.34015956  1  -0.008022  0  -0.087518  -0.179361  0  3.950035  0
C  C100  1  0.90787647  0.66010313  0.91332479  1  -0.038211  0  -0.088521  -0.181553  0  3.9497  0
C  C101  1  0.99474943  0.08659064  0.74660682  1  -0.082141  0  -0.087907  -0.179538  0  3.949666  0
C  C102  1  0.17244318  0.26827977  0.28374709  1  0.457149  0  0.052249  0.109614  0  3.910501  0
C  C103  1  0.88910700  0.71654380  0.98475956  1  0.462828  0  0.052194  0.109218  0  3.908916  0
C  C104  1  0.90449182  0.01520715  0.73165960  1  0.518827  0  0.05179  0.107923  0  3.909229  0
C  C105  1  0.97021553  0.39025261  0.01667953  1  0.438882  0  0.053449  0.111231  0  3.909161  0
C  C106  1  0.95399419  0.98334062  0.37356653  1  0.429634  0  0.052637  0.109355  0  3.910893  0
C  C107  1  0.58057411  0.62632868  0.60984451  1  0.454178  0  0.053123  0.110841  0  3.909516  0
C  C108  1  0.90584198  0.33541295  0.93621003  1  -0.010615  0  -0.079351  -0.170555  0  3.916285  0
C  C109  1  0.97057344  0.06381898  0.39915446  1  0.028887  0  -0.079907  -0.171076  0  3.919069  0
C  C110  1  0.57140936  0.60072619  0.66470504  1  -0.001952  0  -0.080818  -0.172779  0  3.917204  0
C  C111  1  0.92413245  0.35610218  0.87747233  1  -0.009413  0  0.013796  0.117109  0  3.98188  0
C  C112  1  0.04750499  0.12253745  0.47860963  1  -0.039083  0  0.014372  0.118042  0  3.981732  0
C  C113  1  0.56899703  0.52128118  0.64400167  1  -0.011321  0  0.014343  0.118723  0  3.979742  0
C  C114  1  0.01175649  0.43428261  0.90590093  1  -0.017166  0  -0.089277  -0.188557  0  3.955902  0
C  C115  1  0.10631940  0.09408673  0.52842418  1  -0.06513  0  -0.089728  -0.189763  0  3.954894  0
C  C116  1  0.57829484  0.47148138  0.56578444  1  0.011563  0  -0.089028  -0.18964  0  3.955372  0
C  C117  1  0.07401967  0.48580244  0.98723095  1  0.424839  0  0.049388  0.097237  0  3.958634  0
C  C118  1  0.08689681  0.01272463  0.49863169  1  0.477928  0  0.049151  0.098214  0  3.954732  0
C  C119  1  0.58881259  0.50130483  0.51425961  1  0.439742  0  0.049597  0.098808  0  3.957932  0
C  C120  1  0.40836406  0.67829101  0.38509163  1  0.403112  0  -0.00157  -0.02769  0  3.978391  0
C  C121  1  0.02339754  0.61513463  0.29327265  1  0.393905  0  -0.001819  -0.027186  0  3.979361  0
C  C122  1  0.73055020  0.70682821  0.32187271  1  0.387824  0  -0.002173  -0.028114  0  3.979771  0
C  C123  1  0.39919683  0.74796097  0.38645620  1  0.289392  0  0.010397  -0.078094  0  3.864549  0
C  C124  1  0.01242454  0.61366822  0.36147386  1  0.290487  0  0.010886  -0.077892  0  3.865248  0
C  C125  1  0.65137979  0.63855933  0.25226383  1  0.303685  0  0.011186  -0.076244  0  3.861742  0
C  C126  1  0.58518967  0.77452541  0.48823478  1  0.968429  0  0.152996  0.117814  0  3.857412  0
C  C127  1  0.09675988  0.51188301  0.28629085  1  0.942063  0  0.152573  0.117063  0  3.861985  0
C  C128  1  0.81047025  0.71366936  0.22545887  1  0.958112  0  0.153049  0.118072  0  3.859903  0
C  C129  1  0.55025547  0.89092248  0.47504572  1  0.275733  0  0.099825  0.176149  0  3.97913  0
C  C130  1  0.07445281  0.52488504  0.41570265  1  0.281116  0  0.099394  0.175275  0  3.978595  0
C  C131  1  0.65882079  0.58411890  0.10918066  1  0.283506  0  0.098647  0.173792  0  3.979548  0
C  C132  1  0.44258183  0.92239650  0.45143826  1  0.033578  0  -0.089445  -0.147385  0  3.974036  0
C  C133  1  0.99025998  0.54841293  0.47071925  1  0.032454  0  -0.089191  -0.147094  0  3.972041  0
C  C134  1  0.51977754  0.52897666  0.07783284  1  -0.042568  0  -0.088251  -0.145301  0  3.969842  0
C  C135  1  0.47727224  0.00272944  0.47314721  1  -0.034358  0  -0.096276  -0.160522  0  4.003002  0
C  C136  1  0.00316776  0.52664994  0.52931144  1  -0.004301  0  -0.095637  -0.158689  0  4.001845  0
C  C137  1  0.47389529  0.47042102  0.99746450  1  0.000356  0  -0.096693  -0.161719  0  4.003875  0
C  C138  1  0.61994312  0.05219734  0.51906444  1  0.316195  0  0.083848  0.159814  0  4.06279  0
C  C139  1  0.09996869  0.48075011  0.53289717  1  0.287821  0  0.083105  0.158079  0  4.062717  0
C  C140  1  0.56674189  0.46696943  0.94785557  1  0.263792  0  0.084114  0.160149  0  4.06427  0
C  C141  1  0.72803739  0.01987918  0.54161876  1  0.001496  0  -0.096917  -0.161708  0  4.008094  0
C  C142  1  0.18555851  0.45824237  0.47806660  1  -0.055459  0  -0.096351  -0.160417  0  4.004026  0
C  C143  1  0.70708248  0.52184164  0.98006415  1  -0.042389  0  -0.096785  -0.160671  0  4.00858  0
C  C144  1  0.69423175  0.93946713  0.51982476  1  -0.068486  0  -0.085067  -0.143822  0  3.946794  0
C  C145  1  0.17363956  0.48008229  0.41948061  1  -0.019777  0  -0.085439  -0.144173  0  3.94578  0
C  C146  1  0.75393129  0.58039900  0.06049241  1  0.004701  0  -0.083975  -0.141537  0  3.946514  0
C  C147  1  0.85522843  0.29958597  0.79180072  1  -0.033597  0  -0.019542  0.029289  0  4.008196  0
C  C148  1  0.06416724  0.20820621  0.50768776  1  -0.023011  0  -0.020799  0.027793  0  4.008125  0
C  C149  1  0.55632686  0.49222265  0.70055923  1  -0.028891  0  -0.02009  0.028681  0  4.008374  0
C  C150  1  0.89191427  0.31519075  0.73234639  1  -0.052763  0  -0.089667  -0.109765  0  3.991531  0
C  C151  1  0.16003506  0.26772939  0.58280312  1  -0.052545  0  -0.088457  -0.107884  0  3.991752  0
C  C152  1  0.57704046  0.41710524  0.68502369  1  -0.053556  0  -0.090088  -0.110673  0  3.992599  0
C  C153  1  0.82520599  0.26242081  0.65149043  1  -0.051955  0  -0.09847  -0.181188  0  3.992573  0
C  C154  1  0.17371851  0.34856987  0.61094348  1  -0.046277  0  -0.098949  -0.182361  0  3.992113  0
C  C155  1  0.56239376  0.38901401  0.73772776  1  -0.020053  0  -0.09871  -0.18181  0  3.991014  0
C  C156  1  0.71984325  0.19017297  0.62647168  1  0.39977  0  0.098307  0.188559  0  4.039494  0
C  C157  1  0.09319997  0.37347874  0.56363229  1  0.365732  0  0.098111  0.189045  0  4.040266  0
C  C158  1  0.52900635  0.43636233  0.80986952  1  0.333048  0  0.098156  0.189336  0  4.04094  0
C  C159  1  0.68284287  0.17335597  0.68506260  1  -0.143715  0  -0.09301  -0.17456  0  3.982785  0
C  C160  1  0.99784040  0.31480694  0.48816408  1  -0.052861  0  -0.093217  -0.175831  0  3.984033  0
C  C161  1  0.50928768  0.51184489  0.82664690  1  -0.058252  0  -0.093566  -0.176942  0  3.986099  0
C  C162  1  0.74839574  0.22732862  0.76569134  1  0.018979  0  -0.084182  -0.105771  0  3.996252  0
C  C163  1  0.98317083  0.23421086  0.46149051  1  -0.059927  0  -0.083558  -0.103246  0  3.99262  0
C  C164  1  0.52147569  0.53847502  0.77272091  1  -0.004684  0  -0.08312  -0.102037  0  3.994086  0
C  C165  1  0.59229301  0.16076429  0.49289557  1  0.329826  0  0.095659  0.185853  0  4.033769  0
C  C166  1  0.09879483  0.50707058  0.66770332  1  0.335095  0  0.094431  0.185386  0  4.033135  0
C  C167  1  0.43070288  0.33221912  0.83923568  1  0.334317  0  0.095034  0.185586  0  4.035937  0
C  C168  1  0.51550180  0.21971595  0.51948061  1  -0.003431  0  -0.101422  -0.182047  0  4.006802  0
C  C169  1  0.99543392  0.48057031  0.70009717  1  -0.034808  0  -0.101102  -0.182158  0  4.006952  0
C  C170  1  0.29497812  0.29974885  0.78026279  1  -0.042325  0  -0.101843  -0.183581  0  4.007123  0
C  C171  1  0.44782865  0.24231878  0.46758510  1  -0.049813  0  -0.091476  -0.116337  0  4.002216  0
C  C172  1  0.97972636  0.53246978  0.77460169  1  -0.07379  0  -0.091682  -0.116202  0  4.002386  0
C  C173  1  0.20506353  0.22516944  0.75759965  1  -0.054335  0  -0.091115  -0.115227  0  4.001184  0
C  C174  1  0.45515970  0.20740491  0.38767845  1  -0.002395  0  -0.013544  0.046694  0  3.997683  0
C  C175  1  0.06710371  0.61234891  0.81962710  1  0.024092  0  -0.013626  0.047115  0  3.996626  0
C  C176  1  0.24763542  0.18016795  0.79245473  1  0.015812  0  -0.013123  0.047328  0  3.996064  0
C  C177  1  0.53149357  0.14782416  0.36151540  1  -0.053228  0  -0.079838  -0.100896  0  3.957147  0
C  C178  1  0.16957588  0.63844414  0.78617797  1  -0.01076  0  -0.079842  -0.101544  0  3.961702  0
C  C179  1  0.38355217  0.21367266  0.85200714  1  -0.043888  0  -0.079642  -0.100488  0  3.959673  0
C  C180  1  0.59854547  0.12443716  0.41288043  1  -0.027867  0  -0.09107  -0.16888  0  3.988732  0
C  C181  1  0.18515568  0.58705169  0.71140879  1  -0.037426  0  -0.0905  -0.168165  0  3.989253  0
C  C182  1  0.47362793  0.28852028  0.87546847  1  -0.006762  0  -0.090323  -0.167485  0  3.989236  0
C  C183  1  0.70800324  0.34171129  0.16288868  1  -0.038704  0  -0.018664  -0.029877  0  3.985708  0
C  C184  1  0.54553593  0.83738861  0.17877843  1  0.0366  0  -0.018106  -0.028447  0  3.98365  0
C  C185  1  0.36690909  0.82108929  0.65834763  1  0.033123  0  -0.018423  -0.029165  0  3.98435  0
C  C186  1  0.68950391  0.39858598  0.23502194  1  -0.014751  0  -0.078529  -0.104591  0  3.935275  0
C  C187  1  0.45499468  0.76525865  0.16358166  1  -0.098274  0  -0.079388  -0.106044  0  3.9381  0
C  C188  1  0.29150862  0.83628934  0.60143619  1  -0.051002  0  -0.078732  -0.104614  0  3.937498  0
C  C189  1  0.55941100  0.42332417  0.23744769  1  0.027042  0  -0.016474  -0.056629  0  3.962939  0
C  C190  1  0.32266844  0.76281312  0.18604210  1  0.007414  0  -0.01598  -0.056774  0  3.965098  0
C  C191  1  0.13673714  0.81381186  0.57655395  1  0.006704  0  -0.016416  -0.057229  0  3.964414  0
C  C192  1  0.44497786  0.38940693  0.16634193  1  -0.061758  0  -0.005953  -0.03886  0  3.94499  0
C  C193  1  0.27935594  0.83395470  0.22329993  1  0.011315  0  -0.005894  -0.037797  0  3.939873  0
C  C194  1  0.05620088  0.77653262  0.61038540  1  -0.013272  0  -0.006381  -0.038101  0  3.941304  0
C  C195  1  0.46220682  0.33151888  0.09411465  1  -0.046195  0  -0.090334  -0.112814  0  3.992027  0
C  C196  1  0.36873609  0.90617450  0.23762359  1  -0.056976  0  -0.092315  -0.116345  0  3.994426  0
C  C197  1  0.13133318  0.76219047  0.66824767  1  0.035131  0  -0.090229  -0.1126  0  3.991856  0
C  C198  1  0.59360432  0.30842802  0.09230876  1  -0.024328  0  -0.08211  -0.088251  0  3.971531  0
C  C199  1  0.50178147  0.90797950  0.21619939  1  -0.02509  0  -0.082062  -0.088337  0  3.973313  0
C  C200  1  0.28581762  0.78364303  0.69149400  1  -0.108113  0  -0.082501  -0.089462  0  3.972083  0
C  C201  1  0.85039723  0.31811552  0.16188761  1  1.549969  0  0.193691  0.56224  0  4.210123  0
C  C202  1  0.68894148  0.83829954  0.15613448  1  1.559248  0  0.193817  0.561886  0  4.214638  0
C  C203  1  0.53290346  0.84371600  0.68193374  1  1.513914  0  0.194525  0.563305  0  4.211393  0
C  C204  1  0.54169335  0.48449304  0.31540913  1  1.559244  0  0.198073  0.561165  0  4.235634  0
C  C205  1  0.22693430  0.68483140  0.16921394  1  1.524466  0  0.197719  0.560922  0  4.239241  0
C  C206  1  0.05770558  0.83068631  0.51546236  1  1.553835  0  0.198335  0.561265  0  4.236032  0
C  C207  1  0.30898433  0.41889538  0.16404251  1  1.590457  0  0.222466  0.601297  0  4.17514  0
C  C208  1  0.14564653  0.83623475  0.25507125  1  1.580939  0  0.222472  0.601911  0  4.175881  0
C  C209  1  0.89069144  0.74483963  0.58101079  1  1.595604  0  0.221525  0.600115  0  4.172729  0
N  N210  1  0.22016541  0.26068866  0.21987661  1  -1.245811  0  -0.32347  -0.235703  0  3.547059  0
N  N211  1  0.00087434  0.78031344  0.04097753  1  -1.247378  0  -0.3242  -0.236774  0  3.549194  0
N  N212  1  0.95994192  0.95895087  0.73925625  1  -1.257278  0  -0.323213  -0.234774  0  3.544833  0
N  N213  1  0.05397659  0.46460264  0.04233874  1  -1.272924  0  -0.336305  -0.239122  0  3.587513  0
N  N214  1  0.01176689  0.95765114  0.42230591  1  -1.274235  0  -0.335966  -0.238331  0  3.586808  0
N  N215  1  0.58979126  0.57760543  0.53546206  1  -1.271999  0  -0.335893  -0.238914  0  3.588954  0
N  N216  1  0.52433641  0.69559659  0.44881590  1  -1.272725  0  -0.368436  -0.299354  0  3.613766  0
N  N217  1  0.07564835  0.55141045  0.24686860  1  -1.240257  0  -0.3682  -0.299896  0  3.617777  0
N  N218  1  0.82896253  0.75318320  0.30442642  1  -1.251014  0  -0.368315  -0.299983  0  3.618335  0
N  N219  1  0.51260300  0.80842492  0.45176287  1  -1.2703  0  -0.216446  0.018308  0  3.766292  0
N  N220  1  0.06035470  0.54828391  0.35658520  1  -1.260985  0  -0.21593  0.019561  0  3.769332  0
N  N221  1  0.70392080  0.64335105  0.19167452  1  -1.26626  0  -0.216187  0.018098  0  3.767976  0
N  N222  1  0.65500736  0.13527353  0.54473479  1  -1.244328  0  -0.256515  -0.157787  0  3.68535  0
N  N223  1  0.10961008  0.45517134  0.59037463  1  -1.227725  0  -0.255702  -0.157988  0  3.685005  0
N  N224  1  0.51853099  0.40961359  0.86478190  1  -1.210754  0  -0.255324  -0.156661  0  3.686467  0
N  N225  1  0.07597914  0.13861465  0.96061035  1  0.502731  0  -0.057574  0.197713  0  3.472161  0
N  N226  1  0.11574910  0.03949247  0.17795239  1  0.504328  0  -0.05724  0.198385  0  3.473401  0
N  N227  1  0.93804634  0.82211144  0.86152440  1  0.499101  0  -0.056541  0.198053  0  3.471333  0
O  O228  1  0.66404258  0.53507766  0.36783887  1  -1.177291  0  -0.33398  -0.547901  0  2.325631  0
O  O229  1  0.29676753  0.63239060  0.16751472  1  -1.170776  0  -0.334344  -0.54819  0  2.3249  0
O  O230  1  0.12924276  0.83252224  0.46478880  1  -1.165931  0  -0.334594  -0.548777  0  2.325886  0
O  O231  1  0.41565861  0.48495204  0.32704145  1  -1.173264  0  -0.319301  -0.561484  0  2.18887  0
O  O232  1  0.08923330  0.67321225  0.15784506  1  -1.151562  0  -0.319113  -0.560717  0  2.188364  0
O  O233  1  0.93130664  0.84197864  0.51520428  1  -1.184846  0  -0.319137  -0.560792  0  2.188635  0
O  O234  1  0.33264776  0.49128766  0.17793334  1  -1.175613  0  -0.313553  -0.532175  0  2.365286  0
O  O235  1  0.15536626  0.82228720  0.31352633  1  -1.174663  0  -0.313859  -0.532679  0  2.365168  0
O  O236  1  0.84160764  0.68642195  0.50859506  1  -1.181259  0  -0.313408  -0.532432  0  2.365233  0
O  O237  1  0.18114266  0.37367620  0.14433880  1  -1.185515  0  -0.301728  -0.547276  0  2.354892  0
O  O238  1  0.03748896  0.85593265  0.22953206  1  -1.183029  0  -0.301423  -0.548425  0  2.357131  0
O  O239  1  0.80835001  0.77040369  0.62641059  1  -1.193834  0  -0.301018  -0.546967  0  2.352975  0
O  O240  1  0.87853667  0.28260137  0.09332891  1  -1.157124  0  -0.331243  -0.546107  0  2.248169  0
O  O241  1  0.78575384  0.90682217  0.18925469  1  -1.1606  0  -0.331175  -0.545876  0  2.2495  0
O  O242  1  0.59656162  0.81064148  0.71742443  1  -1.157596  0  -0.331686  -0.546451  0  2.248456  0
O  O243  1  0.93790553  0.33425264  0.22649943  1  -1.189911  0  -0.327908  -0.568479  0  2.168474  0
O  O244  1  0.71173837  0.77366121  0.10764581  1  -1.183904  0  -0.32721  -0.568079  0  2.172842  0
O  O245  1  0.60426037  0.89216372  0.66578045  1  -1.176283  0  -0.327513  -0.568692  0  2.170827  0
O  O246  1  0.92372646  0.15160159  0.11100791  1  -1.294623  0  -0.591273  -0.75316  0  2.104083  0
O  O247  1  0.81303572  0.88904817  0.04054939  1  -1.238031  0  -0.591355  -0.75358  0  2.102749  0
O  O248  1  0.77220508  0.95933645  0.84838507  1  -1.267546  0  -0.591705  -0.753913  0  2.102504  0
O  O249  1  0.15050424  0.20138791  0.02683689  1  -0.636319  0  -0.189353  -0.38736  0  2.332544  0
O  O250  1  0.12417636  0.97329041  0.17453504  1  -0.63462  0  -0.189879  -0.387949  0  2.334283  0
O  O251  1  0.94988868  0.82554158  0.79875429  1  -0.640415  0  -0.189789  -0.387149  0  2.335022  0
O  O252  1  0.94637317  0.10775777  0.95866497  1  -0.62863  0  -0.166424  -0.359367  0  2.232135  0
O  O253  1  0.98797736  0.04144416  0.14918754  1  -0.631665  0  -0.16621  -0.359239  0  2.232603  0
O  O254  1  0.83903151  0.85088581  0.89223662  1  -0.621502  0  -0.167047  -0.359999  0  2.230567  0
