# generated using pymatgen
data_CuH6C8(N4Cl)2
_symmetry_space_group_name_H-M   'P 1'
_cell_length_a   7.29774295
_cell_length_b   7.76274273
_cell_length_c   11.91722480
_cell_angle_alpha   109.06757178
_cell_angle_beta   107.87605600
_cell_angle_gamma   89.79066419
_symmetry_Int_Tables_number   1
_chemical_formula_structural   CuH6C8(N4Cl)2
_chemical_formula_sum   'Cu2 H12 C16 N16 Cl4'
_cell_volume   603.75741905
_cell_formula_units_Z   2
loop_
 _symmetry_equiv_pos_site_id
 _symmetry_equiv_pos_as_xyz
  1  'x, y, z'
loop_
 _atom_site_type_symbol
 _atom_site_label
 _atom_site_symmetry_multiplicity
 _atom_site_fract_x
 _atom_site_fract_y
 _atom_site_fract_z
 _atom_site_occupancy
 _atom_site_hle17_ddec_charge
 _atom_site_hle17_ddec_spin_density
 _atom_site_hle17_ddec_sum_bond_order
 _atom_site_hle17_magmom
 _atom_site_hse06_10hf_ddec_charge
 _atom_site_hse06_10hf_ddec_spin_density
 _atom_site_hse06_10hf_ddec_sum_bond_order
 _atom_site_hse06_10hf_magmom
 _atom_site_hse06_ddec_charge
 _atom_site_hse06_ddec_spin_density
 _atom_site_hse06_ddec_sum_bond_order
 _atom_site_hse06_magmom
 _atom_site_pbe_cm5_charge
 _atom_site_pbe_ddec_charge
 _atom_site_pbe_ddec_spin_density
 _atom_site_pbe_ddec_sum_bond_order
 _atom_site_pbe_magmom
Cu  Cu0  1  0.97166643  0.22182012  0.44342977  1  0.73092  0.620122  1.951027  0.45  0.720838  0.728226  2.35376  0.572  0.812888  0.794983  2.275953  0.657  0.594028  0.670257  0.68632  2.401684  0.524
Cu  Cu1  1  0.02833245  0.77817760  0.55656840  1  0.730875  0.620126  1.950994  0.45  0.720782  0.72823  2.353711  0.572  0.812872  0.794976  2.275934  0.657  0.593996  0.670207  0.68632  2.401681  0.524
H  H2  1  0.39188173  0.64219177  0.28389012  1  0.133238  0.000415  0.952236  0.0  0.144307  0.000456  1.011321  0.0  0.148167  0.000341  1.007863  0.0  0.108606  0.141628  0.000536  1.013627  0.0
H  H3  1  0.60811732  0.35780734  0.71611004  1  0.133277  0.000416  0.952192  0.0  0.144314  0.000456  1.011309  0.0  0.148173  0.000341  1.007852  0.0  0.108623  0.141637  0.000536  1.013621  0.0
H  H4  1  0.35015135  0.21767884  0.93230895  1  0.119357  3.1e-05  0.974676  0.0  0.115982  6.4e-05  1.058982  0.0  0.119704  4.2e-05  1.056331  0.0  0.109845  0.113242  8.9e-05  1.061023  0.0
H  H5  1  0.08215367  0.71455007  0.93211720  1  0.11872  3.5e-05  0.975029  0.0  0.115308  6.7e-05  1.059407  0.0  0.119061  4.4e-05  1.056663  0.0  0.109511  0.112552  9.1e-05  1.06148  0.0
H  H6  1  0.64984641  0.78232164  0.06769042  1  0.119357  3.3e-05  0.974649  0.0  0.115989  6.3e-05  1.058948  0.0  0.11971  4.2e-05  1.056299  0.0  0.109843  0.113251  8.9e-05  1.060984  0.0
H  H7  1  0.91785160  0.28545314  0.06788330  1  0.118746  3.7e-05  0.97499  0.0  0.115331  6.7e-05  1.05938  0.0  0.119091  4.4e-05  1.056617  0.0  0.109528  0.112579  9.1e-05  1.061438  0.0
H  H8  1  0.15829520  0.40807967  0.81620338  1  0.098842  -0.000356  0.964983  0.0  0.10818  -0.000137  1.029016  0.0  0.11122  -0.000118  1.027146  0.0  0.093442  0.106033  -0.000146  1.030343  0.0
H  H9  1  0.84170416  0.59192218  0.18379742  1  0.098852  -0.000358  0.964966  0.0  0.108178  -0.000137  1.029013  0.0  0.111218  -0.000118  1.027141  0.0  0.09344  0.106032  -0.000146  1.030337  0.0
H  H10  1  0.68730833  0.51854723  0.35493497  1  0.122807  -0.000907  0.980918  0.0  0.128837  -0.000606  1.050237  0.0  0.132791  -0.000573  1.04458  0.0  0.128962  0.125666  -0.000589  1.054433  0.0
H  H11  1  0.16666341  0.83626774  0.35463233  1  0.122111  -0.000919  0.980415  0.0  0.127601  -0.000616  1.05102  0.0  0.131385  -0.000581  1.045508  0.0  0.128737  0.124562  -0.0006  1.055049  0.0
H  H12  1  0.31269184  0.48144912  0.64506315  1  0.122768  -0.000907  0.980873  0.0  0.128801  -0.000606  1.050174  0.0  0.132756  -0.000573  1.044515  0.0  0.128962  0.125635  -0.000589  1.054364  0.0
H  H13  1  0.83333740  0.16373413  0.64536958  1  0.12204  -0.000919  0.980366  0.0  0.127518  -0.000616  1.051007  0.0  0.131305  -0.000582  1.045487  0.0  0.128701  0.124482  -0.0006  1.055031  0.0
C  C14  1  0.64564344  0.37667963  0.29279963  1  0.1806  -0.006297  3.580504  -0.003  0.114191  -0.001916  3.827371  0.0  0.132205  -0.003286  3.837034  -0.001  0.182625  0.104131  -0.000846  3.821107  0.001
C  C15  1  0.14662607  0.91613756  0.29260077  1  0.182613  -0.006292  3.577921  -0.003  0.116359  -0.001898  3.825617  0.0  0.134758  -0.003284  3.835272  -0.001  0.183367  0.106201  -0.000821  3.819315  0.001
C  C16  1  0.35435608  0.62332360  0.70720148  1  0.180596  -0.006297  3.580651  -0.003  0.11429  -0.001911  3.827492  0.0  0.132298  -0.003286  3.837163  -0.001  0.182627  0.104226  -0.000846  3.821232  0.001
C  C17  1  0.85337443  0.08386157  0.70740136  1  0.182654  -0.006296  3.577785  -0.003  0.116411  -0.001895  3.825533  0.0  0.134805  -0.003285  3.835192  -0.001  0.183415  0.106252  -0.000821  3.819235  0.001
C  C18  1  0.38258167  0.42067818  0.11404919  1  0.181176  0.000972  3.769092  0.001  0.164406  0.000718  4.015271  0.001  0.169821  0.0006  4.038114  0.001  0.103405  0.162003  0.00083  3.999662  0.001
C  C19  1  0.23142586  0.69357335  0.11394886  1  0.181965  0.001014  3.76899  0.001  0.165631  0.000748  4.014371  0.001  0.171261  0.000626  4.037119  0.001  0.103528  0.16322  0.000858  3.998743  0.001
C  C20  1  0.61741898  0.57932232  0.88595241  1  0.18122  0.000992  3.769091  0.001  0.164487  0.000716  4.015275  0.001  0.169898  0.000601  4.038118  0.001  0.103447  0.162081  0.00083  3.999673  0.001
C  C21  1  0.76857751  0.30642577  0.88605295  1  0.181714  0.001031  3.769108  0.001  0.165443  0.000751  4.01445  0.001  0.171063  0.000624  4.037203  0.001  0.103452  0.163035  0.000859  3.998821  0.001
C  C22  1  0.34090176  0.59107883  0.18178229  1  -0.197469  0.000599  3.671192  0.0  -0.224947  0.000664  3.923227  0.0  -0.229156  0.000344  3.940804  0.0  -0.079108  -0.222047  0.000898  3.910423  0.0
C  C23  1  0.65909569  0.40891888  0.81821477  1  -0.197385  0.000572  3.671057  0.0  -0.224838  0.000666  3.923055  0.0  -0.229044  0.000344  3.940635  0.0  -0.079059  -0.221942  0.000898  3.910266  0.0
C  C24  1  0.31596115  0.35146550  0.98299817  1  -0.124448  -0.000216  3.685248  0.0  -0.151593  -4.1e-05  3.946296  0.0  -0.155403  -0.000183  3.967284  0.0  -0.080871  -0.149152  4.9e-05  3.931996  0.0
C  C25  1  0.16705599  0.63158338  0.98289012  1  -0.12403  -0.000346  3.683932  0.0  -0.150598  -0.000106  3.943625  0.0  -0.154412  -0.000232  3.964623  0.0  -0.080386  -0.148141  -1.3e-05  3.929312  0.0
C  C26  1  0.68403805  0.64853495  0.01699978  1  -0.124501  -0.000253  3.685241  0.0  -0.151666  -4e-05  3.94631  0.0  -0.155475  -0.000185  3.967299  0.0  -0.08089  -0.14922  4.9e-05  3.932005  0.0
C  C27  1  0.83294640  0.36841982  0.01710901  1  -0.124009  -0.00038  3.684014  0.0  -0.150589  -0.000111  3.943681  0.0  -0.154404  -0.000229  3.964688  0.0  -0.080378  -0.148129  -1.3e-05  3.929364  0.0
C  C28  1  0.20939193  0.45931492  0.91861029  1  -0.041664  0.000842  3.749316  0.001  -0.052663  0.000505  3.99867  0.001  -0.054601  0.000384  4.021621  0.0  -0.087884  -0.051304  0.000651  3.983248  0.001
C  C29  1  0.79060887  0.54068693  0.08138994  1  -0.04168  0.000869  3.749267  0.001  -0.052658  0.000506  3.998627  0.001  -0.054596  0.000384  4.021579  0.0  -0.08789  -0.051303  0.000651  3.983205  0.001
N  N30  1  0.72941880  0.23072283  0.30851100  1  -0.247986  0.053076  3.264267  0.066  -0.205759  0.046941  3.584235  0.062  -0.235403  0.040359  3.601056  0.057  -0.244343  -0.189041  0.050559  3.574628  0.064
N  N31  1  0.07883993  0.07796519  0.30840362  1  -0.248361  0.053046  3.264607  0.066  -0.205854  0.04684  3.584302  0.062  -0.235612  0.040261  3.601119  0.057  -0.244808  -0.18909  0.050449  3.574686  0.064
N  N32  1  0.27058266  0.76927216  0.69148792  1  -0.247877  0.053073  3.26431  0.066  -0.205738  0.046941  3.58432  0.062  -0.235395  0.040356  3.601171  0.057  -0.244311  -0.189025  0.050558  3.574735  0.064
N  N33  1  0.92115912  0.92203393  0.69159739  1  -0.248369  0.05305  3.264548  0.066  -0.205839  0.046839  3.584198  0.062  -0.235609  0.040261  3.601046  0.057  -0.244811  -0.189078  0.050447  3.574599  0.064
N  N34  1  0.63860291  0.08277875  0.20486758  1  -0.022787  -0.000326  2.913791  0.0  -0.019874  0.001648  3.22393  0.002  -0.015245  0.000507  3.233681  0.0  -0.059446  -0.022556  0.002473  3.217479  0.002
N  N35  1  0.06649294  0.12246484  0.20486601  1  -0.02505  -0.000296  2.914282  0.0  -0.022344  0.001675  3.224828  0.002  -0.017724  0.000544  3.234573  0.0  -0.060798  -0.025048  0.002509  3.218379  0.002
N  N36  1  0.36139599  0.91721898  0.79513144  1  -0.022903  -0.000321  2.913676  0.0  -0.019968  0.00164  3.223833  0.001  -0.015337  0.000518  3.233588  0.0  -0.059477  -0.02265  0.002473  3.217386  0.002
N  N37  1  0.93350612  0.87753429  0.79513584  1  -0.025033  -0.00031  2.914105  0.0  -0.022331  0.001677  3.224642  0.002  -0.017706  0.000537  3.234391  0.0  -0.060792  -0.02503  0.002509  3.218193  0.002
N  N38  1  0.50311299  0.13357340  0.12716794  1  -0.061264  0.00451  2.856671  0.006  -0.082774  0.003616  3.151494  0.005  -0.078735  0.002334  3.159101  0.004  -0.050523  -0.083954  0.004836  3.146322  0.006
N  N39  1  0.12432447  0.99397416  0.12714316  1  -0.059288  0.004539  2.855888  0.006  -0.080507  0.003641  3.150605  0.005  -0.07629  0.002337  3.158219  0.004  -0.049044  -0.081665  0.004894  3.145438  0.006
N  N40  1  0.49688591  0.86642435  0.87283191  1  -0.06123  0.004503  2.85642  0.006  -0.082703  0.003614  3.151254  0.005  -0.078666  0.002335  3.158856  0.004  -0.050505  -0.083877  0.004835  3.146076  0.006
N  N41  1  0.87567490  0.00602772  0.87285932  1  -0.059374  0.004552  2.855722  0.006  -0.080576  0.003638  3.15047  0.005  -0.076366  0.002338  3.15808  0.004  -0.049067  -0.081732  0.004894  3.1453  0.006
N  N42  1  0.50466145  0.31831701  0.18041256  1  -0.001971  0.001553  3.53977  0.002  0.114133  0.001195  3.715189  0.001  0.098586  0.000981  3.740163  0.001  -0.098331  0.121073  0.001367  3.70149  0.002
N  N43  1  0.17553325  0.86226128  0.18025454  1  -0.003156  0.001553  3.53949  0.002  0.112173  0.001193  3.716011  0.001  0.096148  0.000977  3.741348  0.001  -0.099086  0.119092  0.001366  3.702354  0.002
N  N44  1  0.49533585  0.68167934  0.81958502  1  -0.001907  0.001559  3.539597  0.002  0.114068  0.001198  3.715138  0.001  0.09853  0.000974  3.740101  0.001  -0.098347  0.121011  0.001368  3.701442  0.002
N  N45  1  0.82446611  0.13774057  0.81974625  1  -0.002977  0.00155  3.539338  0.002  0.112282  0.001188  3.71591  0.001  0.096274  0.000983  3.741232  0.001  -0.099066  0.1192  0.001366  3.702255  0.002
Cl  Cl46  1  0.22016235  0.15854757  0.58923346  1  -0.507489  0.136812  0.970044  0.167  -0.525655  0.08357  1.259081  0.108  -0.562887  0.061302  1.234881  0.087  -0.305662  -0.503971  0.097137  1.276152  0.119
Cl  Cl47  1  0.86895485  0.43070539  0.58931392  1  -0.507373  0.13685  0.970739  0.167  -0.52536  0.083553  1.259796  0.108  -0.562518  0.061292  1.235608  0.087  -0.305779  -0.50369  0.097103  1.276748  0.119
Cl  Cl48  1  0.77983336  0.84144744  0.41076606  1  -0.507481  0.136815  0.970043  0.167  -0.525638  0.083569  1.259068  0.108  -0.562874  0.061304  1.234878  0.087  -0.305651  -0.503955  0.097138  1.276151  0.119
Cl  Cl49  1  0.13104404  0.56929234  0.41068424  1  -0.507385  0.136851  0.970743  0.167  -0.525368  0.083554  1.259789  0.108  -0.562529  0.061294  1.235606  0.087  -0.305775  -0.50369  0.097105  1.276736  0.119
