# generated using pymatgen
data_Zn2H11C16N2ClO5
_symmetry_space_group_name_H-M   'P 1'
_cell_length_a   10.18229349
_cell_length_b   12.77035775
_cell_length_c   13.04680838
_cell_angle_alpha   89.99984103
_cell_angle_beta   106.05862607
_cell_angle_gamma   89.99984914
_symmetry_Int_Tables_number   1
_chemical_formula_structural   Zn2H11C16N2ClO5
_chemical_formula_sum   'Zn8 H44 C64 N8 Cl4 O20'
_cell_volume   1630.29773833
_cell_formula_units_Z   4
loop_
 _symmetry_equiv_pos_site_id
 _symmetry_equiv_pos_as_xyz
  1  'x, y, z'
loop_
 _atom_site_type_symbol
 _atom_site_label
 _atom_site_symmetry_multiplicity
 _atom_site_fract_x
 _atom_site_fract_y
 _atom_site_fract_z
 _atom_site_occupancy
 _atom_site_hle17_bader_spin_density
 _atom_site_hle17_ddec_charge
 _atom_site_hle17_ddec_spin_density
 _atom_site_hle17_ddec_sum_bond_order
 _atom_site_hle17_magmom
 _atom_site_hse06_10hf_bader_charge
 _atom_site_hse06_10hf_bader_spin_density
 _atom_site_hse06_10hf_ddec_charge
 _atom_site_hse06_10hf_ddec_spin_density
 _atom_site_hse06_10hf_ddec_sum_bond_order
 _atom_site_hse06_10hf_magmom
 _atom_site_hse06_bader_spin_density
 _atom_site_hse06_ddec_charge
 _atom_site_hse06_ddec_spin_density
 _atom_site_hse06_ddec_sum_bond_order
 _atom_site_hse06_magmom
 _atom_site_pbe_bader_spin_density
 _atom_site_pbe_cm5_charge
 _atom_site_pbe_ddec_charge
 _atom_site_pbe_ddec_spin_density
 _atom_site_pbe_ddec_sum_bond_order
 _atom_site_pbe_magmom
Zn  Zn0  1  0.90491014  0.16136849  0.24659022  1  0  1.075547  0  1.893359  0  1.282327  0  0.906577  0  2.394229  0  0  0.953522  0  2.332003  0  0  0.608262  0.87342  0  2.437198  0
Zn  Zn1  1  0.59508838  0.66136968  0.25340961  1  0  1.07555  0  1.893365  0  1.282469  0  0.906579  0  2.394242  0  0  0.953524  0  2.332014  0  0  0.60827  0.87342  0  2.437217  0
Zn  Zn2  1  0.09508988  0.83863235  0.75340981  1  0  1.075561  0  1.893328  0  1.282326  0  0.906591  0  2.394199  0  0  0.953543  0  2.331968  0  0  0.60827  0.873436  0  2.437153  0
Zn  Zn3  1  0.40491062  0.33863038  0.74659018  1  0  1.075552  0  1.893359  0  1.282413  0  0.906579  0  2.394229  0  0  0.953528  0  2.331997  0  0  0.608271  0.87342  0  2.437191  0
Zn  Zn4  1  0.65813951  0.31465211  0.06430857  1  0  1.005949  0  1.847794  0  1.320505  0  0.822012  0  2.299442  0  0  0.870552  0  2.246321  0  0  0.680871  0.788154  0  2.335767  0
Zn  Zn5  1  0.84186035  0.81465226  0.43569114  1  0  1.005935  0  1.847876  0  1.3205  0  0.822001  0  2.299511  0  0  0.870527  0  2.246418  0  0  0.680871  0.788137  0  2.335837  0
Zn  Zn6  1  0.34186051  0.68534951  0.93569145  1  0  1.00595  0  1.847836  0  1.320654  0  0.822016  0  2.299476  0  0  0.870544  0  2.246376  0  0  0.680881  0.788155  0  2.335815  0
Zn  Zn7  1  0.15813865  0.18534780  0.56430865  1  0  1.005934  0  1.847881  0  1.320497  0  0.821993  0  2.29952  0  0  0.87052  0  2.246429  0  0  0.680865  0.788131  0  2.335829  0
H  H8  1  0.90019355  0.40235386  0.28938658  1  0  0.036218  0  0.909662  0  0.037793  0  0.048518  0  0.970683  0  0  0.04987  0  0.96907  0  0  0.09817  0.047508  0  0.972095  0
H  H9  1  0.59980487  0.90235594  0.21061411  1  0  0.036238  0  0.90977  0  0.037755  0  0.048528  0  0.970761  0  0  0.049875  0  0.969156  0  0  0.09816  0.047512  0  0.972177  0
H  H10  1  0.09980547  0.59764542  0.71061245  1  0  0.036181  0  0.909688  0  0.037775  0  0.048477  0  0.970717  0  0  0.049835  0  0.969098  0  0  0.098151  0.047462  0  0.972128  0
H  H11  1  0.40019720  0.09764412  0.78938637  1  0  0.036284  0  0.909783  0  0.037733  0  0.048514  0  0.970761  0  0  0.049862  0  0.96915  0  0  0.098172  0.0475  0  0.972177  0
H  H12  1  0.94144088  0.06564365  0.79875605  1  0  0.103513  0  0.945954  0  0.108146  0  0.112941  0  1.009071  0  0  0.115607  0  1.007587  0  0  0.106781  0.110978  0  1.010115  0
H  H13  1  0.55855914  0.56564350  0.70124361  1  0  0.103523  0  0.945967  0  0.108155  0  0.112946  0  1.009078  0  0  0.115614  0  1.007593  0  0  0.106784  0.110978  0  1.010129  0
H  H14  1  0.05855609  0.93435562  0.20124252  1  0  0.103513  0  0.945944  0  0.108151  0  0.112929  0  1.009068  0  0  0.115601  0  1.007576  0  0  0.10678  0.110964  0  1.01011  0
H  H15  1  0.44144292  0.43435499  0.29875764  1  0  0.103518  0  0.945955  0  0.108166  0  0.11295  0  1.009061  0  0  0.11561  0  1.007586  0  0  0.106787  0.110986  0  1.010111  0
H  H16  1  0.92938338  0.60211803  0.82241481  1  0  0.09977  0  0.950177  0  0.130547  0  0.107504  0  1.0178  0  0  0.110411  0  1.015652  0  0  0.101106  0.105341  0  1.019436  0
H  H17  1  0.57061750  0.10211852  0.67758494  1  0  0.099785  0  0.950211  0  0.130549  0  0.107521  0  1.01783  0  0  0.110429  0  1.015682  0  0  0.101128  0.105356  0  1.019472  0
H  H18  1  0.07061768  0.39788203  0.17758468  1  0  0.099761  0  0.950114  0  0.130569  0  0.107496  0  1.017745  0  0  0.110404  0  1.015597  0  0  0.101106  0.105335  0  1.019387  0
H  H19  1  0.42938151  0.89788232  0.32241485  1  0  0.099765  0  0.950136  0  0.130573  0  0.107496  0  1.017767  0  0  0.110404  0  1.015618  0  0  0.101116  0.105331  0  1.019405  0
H  H20  1  0.00759702  0.24268518  0.73507141  1  0  0.112059  0  0.959594  0  0.109745  0  0.120394  0  1.023858  0  0  0.123422  0  1.022424  0  0  0.105964  0.118137  0  1.025064  0
H  H21  1  0.49240391  0.74268550  0.76492971  1  0  0.112078  0  0.959596  0  0.109759  0  0.120412  0  1.023856  0  0  0.123443  0  1.02242  0  0  0.10597  0.118152  0  1.025078  0
H  H22  1  0.99240403  0.75731488  0.26492885  1  0  0.112059  0  0.959537  0  0.10977  0  0.120379  0  1.023817  0  0  0.123408  0  1.022382  0  0  0.105957  0.118122  0  1.025025  0
H  H23  1  0.50759507  0.25731456  0.23507162  1  0  0.112042  0  0.959559  0  0.109787  0  0.120363  0  1.02383  0  0  0.123393  0  1.022396  0  0  0.105971  0.118096  0  1.025076  0
H  H24  1  0.67736366  0.56199211  0.03636081  1  0  0.087998  0  0.965339  0  0.156808  0  0.095761  0  1.028601  0  0  0.097915  0  1.027015  0  0  0.116502  0.094199  0  1.029662  0
H  H25  1  0.82263639  0.06199283  0.46363733  1  0  0.087987  0  0.965306  0  0.157042  0  0.095759  0  1.028565  0  0  0.097915  0  1.026976  0  0  0.116514  0.094194  0  1.029632  0
H  H26  1  0.32263843  0.43800795  0.96363891  1  0  0.087955  0  0.965355  0  0.156782  0  0.095737  0  1.028599  0  0  0.097888  0  1.02702  0  0  0.116523  0.094172  0  1.029663  0
H  H27  1  0.17736160  0.93800801  0.53636148  1  0  0.087941  0  0.965433  0  0.156773  0  0.095726  0  1.028681  0  0  0.097877  0  1.027101  0  0  0.116523  0.094161  0  1.029746  0
H  H28  1  0.79606755  0.68066475  0.93446142  1  0  0.111495  0  0.949658  0  0.130169  0  0.122431  0  1.006764  0  0  0.125328  0  1.006716  0  0  0.103481  0.12034  0  1.006991  0
H  H29  1  0.70393296  0.18066528  0.56553805  1  0  0.111464  0  0.949673  0  0.130433  0  0.122395  0  1.006784  0  0  0.125291  0  1.006736  0  0  0.10347  0.120302  0  1.007016  0
H  H30  1  0.20393351  0.31933530  0.06553807  1  0  0.111505  0  0.949641  0  0.130452  0  0.122438  0  1.006747  0  0  0.125333  0  1.006699  0  0  0.103487  0.120348  0  1.006976  0
H  H31  1  0.29606501  0.81933477  0.43446228  1  0  0.111459  0  0.949678  0  0.130433  0  0.122396  0  1.006779  0  0  0.125292  0  1.006732  0  0  0.103467  0.120303  0  1.007005  0
H  H32  1  0.81339177  0.96905059  0.90475862  1  0  0.111246  0  0.974979  0  0.120316  0  0.11973  0  1.036148  0  0  0.123219  0  1.035247  0  0  0.096277  0.117275  0  1.036874  0
H  H33  1  0.68660740  0.46905107  0.59524054  1  0  0.111256  0  0.974992  0  0.120311  0  0.119741  0  1.036157  0  0  0.123227  0  1.03526  0  0  0.09628  0.117281  0  1.036887  0
H  H34  1  0.18660620  0.03095025  0.09524171  1  0  0.111239  0  0.974977  0  0.120309  0  0.119725  0  1.036149  0  0  0.123211  0  1.035249  0  0  0.096278  0.117266  0  1.036872  0
H  H35  1  0.31339366  0.53094977  0.40475895  1  0  0.111243  0  0.974992  0  0.120315  0  0.119728  0  1.03616  0  0  0.123214  0  1.035264  0  0  0.096276  0.117273  0  1.036885  0
H  H36  1  0.00538019  0.43454041  0.74460865  1  0  0.099973  0  0.947125  0  0.087461  0  0.111756  0  1.007284  0  0  0.11458  0  1.006093  0  0  0.104235  0.10964  0  1.008308  0
H  H37  1  0.49461987  0.93453997  0.75539099  1  0  0.099976  0  0.947117  0  0.087469  0  0.111761  0  1.007273  0  0  0.114585  0  1.006081  0  0  0.104242  0.109643  0  1.0083  0
H  H38  1  0.99462089  0.56545887  0.25539007  1  0  0.099984  0  0.947129  0  0.087472  0  0.111757  0  1.00731  0  0  0.114582  0  1.006118  0  0  0.10424  0.10964  0  1.008335  0
H  H39  1  0.50537810  0.06545931  0.24460934  1  0  0.099939  0  0.947086  0  0.087481  0  0.111709  0  1.007265  0  0  0.114538  0  1.006072  0  0  0.104209  0.109591  0  1.008295  0
H  H40  1  0.68879222  0.07170359  0.01537980  1  0  0.084336  0  0.947976  0  0.128546  0  0.092892  0  1.01103  0  0  0.096032  0  1.007571  0  0  0.1162  0.090532  0  1.013655  0
H  H41  1  0.81120879  0.57170367  0.48461929  1  0  0.084329  0  0.947961  0  0.128509  0  0.092885  0  1.011013  0  0  0.096027  0  1.007552  0  0  0.116203  0.090529  0  1.013639  0
H  H42  1  0.31120984  0.92829803  0.98462145  1  0  0.084379  0  0.947917  0  0.128539  0  0.092909  0  1.010987  0  0  0.096051  0  1.007525  0  0  0.116195  0.090551  0  1.013615  0
H  H43  1  0.18879125  0.42829796  0.51537997  1  0  0.08436  0  0.947919  0  0.128529  0  0.0929  0  1.010978  0  0  0.096043  0  1.007516  0  0  0.116195  0.090542  0  1.013602  0
H  H44  1  0.70610324  0.28253347  0.38899826  1  0  0.120425  0  0.936717  0  0.079273  0  0.134499  0  0.99812  0  0  0.136667  0  0.998191  0  0  0.105397  0.132949  0  0.998167  0
H  H45  1  0.79389266  0.78253308  0.11100218  1  0  0.120511  0  0.936706  0  0.079217  0  0.134573  0  0.998108  0  0  0.136739  0  0.998181  0  0  0.105408  0.133022  0  0.998152  0
H  H46  1  0.29389574  0.71746737  0.61100306  1  0  0.120444  0  0.936723  0  0.079424  0  0.134512  0  0.998125  0  0  0.136679  0  0.998196  0  0  0.105394  0.132959  0  0.99817  0
H  H47  1  0.20610738  0.21746620  0.88899708  1  0  0.120496  0  0.936725  0  0.07922  0  0.134559  0  0.998121  0  0  0.136727  0  0.998193  0  0  0.105412  0.133007  0  0.998171  0
H  H48  1  0.79318581  0.39899832  0.44561198  1  0  0.121908  0  0.938586  0  0.061634  0  0.136272  0  0.996039  0  0  0.139006  0  0.99449  0  0  0.105721  0.134284  0  0.997243  0
H  H49  1  0.70681262  0.89900062  0.05438872  1  0  0.121928  0  0.938586  0  0.061297  0  0.136325  0  0.995994  0  0  0.13906  0  0.994438  0  0  0.105738  0.134334  0  0.997201  0
H  H50  1  0.20681523  0.60100174  0.55438904  1  0  0.12193  0  0.93859  0  0.061635  0  0.136289  0  0.996039  0  0  0.139022  0  0.99449  0  0  0.105724  0.134298  0  0.997246  0
H  H51  1  0.29318843  0.10100022  0.94561153  1  0  0.12189  0  0.938639  0  0.061184  0  0.136288  0  0.996051  0  0  0.139021  0  0.994504  0  0  0.105733  0.134297  0  0.997259  0
C  C52  1  0.89140716  0.21878813  0.85056233  1  0  0.029379  0  3.784232  0  0.033193  0  0.043443  0  4.017311  0  0  0.04069  0  4.041315  0  0  0.000151  0.045013  0  4.001303  0
C  C53  1  0.60859316  0.71878958  0.64943775  1  0  0.029422  0  3.784225  0  0.033179  0  0.043449  0  4.01732  0  0  0.040695  0  4.041327  0  0  0.000147  0.045009  0  4.001308  0
C  C54  1  0.10859286  0.78121036  0.14943769  1  0  0.029389  0  3.784276  0  0.033156  0  0.043407  0  4.017391  0  0  0.040656  0  4.041396  0  0  0.000141  0.044965  0  4.00139  0
C  C55  1  0.39140584  0.28121048  0.35056204  1  0  0.029425  0  3.784204  0  0.033201  0  0.043449  0  4.017308  0  0  0.040696  0  4.041311  0  0  0.00014  0.045016  0  4.001301  0
C  C56  1  0.69308467  0.45126272  0.24185312  1  0  0.625898  0  3.83963  0  1.593995  0  0.574925  0  4.139225  0  0  0.607572  0  4.133689  0  0  0.211036  0.552751  0  4.142217  0
C  C57  1  0.80691457  0.95126266  0.25814609  1  0  0.625914  0  3.839656  0  1.593999  0  0.575004  0  4.139116  0  0  0.607651  0  4.133574  0  0  0.211053  0.552837  0  4.142097  0
C  C58  1  0.30691638  0.54873734  0.75814713  1  0  0.625816  0  3.839661  0  1.594006  0  0.574909  0  4.139162  0  0  0.607553  0  4.133625  0  0  0.211024  0.552741  0  4.142144  0
C  C59  1  0.19308749  0.04873583  0.74185516  1  0  0.625784  0  3.839776  0  1.594116  0  0.574813  0  4.139225  0  0  0.607457  0  4.133687  0  0  0.210983  0.552636  0  4.142214  0
C  C60  1  0.82080098  0.26896211  0.91654350  1  0  0.13983  0  3.762415  0  0.490793  0  0.131052  0  4.000029  0  0  0.135708  0  4.021419  0  0  0.119032  0.127885  0  3.985836  0
C  C61  1  0.67920014  0.76896282  0.58345663  1  0  0.139759  0  3.762499  0  0.490591  0  0.131023  0  4.000076  0  0  0.135678  0  4.021465  0  0  0.119035  0.127872  0  3.985855  0
C  C62  1  0.17919904  0.73103794  0.08345729  1  0  0.139873  0  3.762428  0  0.490595  0  0.131121  0  4.00003  0  0  0.135777  0  4.02142  0  0  0.119042  0.127964  0  3.985832  0
C  C63  1  0.32079989  0.23103724  0.41654340  1  0  0.139745  0  3.762539  0  0.490592  0  0.130997  0  4.000113  0  0  0.135655  0  4.021497  0  0  0.119034  0.127835  0  3.985908  0
C  C64  1  0.88650918  0.44145925  0.86017177  1  0  0.024014  0  3.798826  0  0.018375  0  0.040276  0  4.030207  0  0  0.037224  0  4.055659  0  0  -0.001256  0.042116  0  4.013105  0
C  C65  1  0.61349216  0.94145994  0.63982871  1  0  0.023985  0  3.798885  0  0.018405  0  0.04032  0  4.030185  0  0  0.037266  0  4.055638  0  0  -0.001237  0.042162  0  4.013073  0
C  C66  1  0.11349190  0.55854081  0.13982696  1  0  0.023997  0  3.79885  0  0.018365  0  0.040269  0  4.030221  0  0  0.037216  0  4.055676  0  0  -0.001274  0.042107  0  4.013127  0
C  C67  1  0.38650684  0.05854090  0.36017185  1  0  0.024079  0  3.798701  0  0.01831  0  0.04025  0  4.030192  0  0  0.037195  0  4.055646  0  0  -0.001268  0.042092  0  4.013079  0
C  C68  1  0.81834535  0.38158151  0.92150463  1  0  0.136308  0  3.749422  0  0.500122  0  0.12921  0  3.984113  0  0  0.133644  0  4.005884  0  0  0.119541  0.126091  0  3.969597  0
C  C69  1  0.68165523  0.88158222  0.57849584  1  0  0.136381  0  3.749389  0  0.500104  0  0.129233  0  3.984089  0  0  0.133669  0  4.005854  0  0  0.119532  0.126111  0  3.969559  0
C  C70  1  0.18165571  0.61841777  0.07849486  1  0  0.136249  0  3.749446  0  0.500124  0  0.129142  0  3.984137  0  0  0.133576  0  4.005907  0  0  0.119533  0.126021  0  3.969621  0
C  C71  1  0.31834274  0.11841783  0.42150449  1  0  0.136391  0  3.749343  0  0.500207  0  0.129311  0  3.984045  0  0  0.133746  0  4.005813  0  0  0.119608  0.126197  0  3.969512  0
C  C72  1  0.79983277  0.36451870  0.28301906  1  0  0.148605  0  3.731579  0  0.550794  0  0.126555  0  3.976659  0  0  0.130123  0  3.987367  0  0  -0.013041  0.123808  0  3.969446  0
C  C73  1  0.70016377  0.86452055  0.21698131  1  0  0.148542  0  3.731836  0  0.550766  0  0.126549  0  3.976746  0  0  0.130117  0  3.987461  0  0  -0.013017  0.123806  0  3.96953  0
C  C74  1  0.20016622  0.63548136  0.71698150  1  0  0.148705  0  3.731561  0  0.550807  0  0.126636  0  3.97661  0  0  0.130202  0  3.987326  0  0  -0.013013  0.123891  0  3.969388  0
C  C75  1  0.29983727  0.13547951  0.78301894  1  0  0.148394  0  3.732045  0  0.550663  0  0.126613  0  3.976617  0  0  0.130196  0  3.987307  0  0  -0.013039  0.123874  0  3.969399  0
C  C76  1  0.88863071  0.10822819  0.84804388  1  0  -0.032439  0  3.659494  0  -0.063774  0  -0.055933  0  3.904796  0  0  -0.05325  0  3.923304  0  0  -0.05867  -0.057318  0  3.891991  0
C  C77  1  0.61136912  0.60822885  0.65195562  1  0  -0.032427  0  3.659451  0  -0.063737  0  -0.055898  0  3.904733  0  0  -0.053214  0  3.923241  0  0  -0.058659  -0.057275  0  3.891923  0
C  C78  1  0.11136831  0.89177108  0.15195515  1  0  -0.032435  0  3.659425  0  -0.063747  0  -0.055898  0  3.904724  0  0  -0.053219  0  3.923227  0  0  -0.058659  -0.05728  0  3.891914  0
C  C79  1  0.38863089  0.39177121  0.34804517  1  0  -0.032429  0  3.659406  0  -0.063772  0  -0.055912  0  3.904701  0  0  -0.053226  0  3.923215  0  0  -0.058665  -0.057299  0  3.891906  0
C  C80  1  0.92151855  0.26584137  0.45203656  1  0  0.706878  0  3.801016  0  1.568798  0  0.658096  0  4.095478  0  0  0.691847  0  4.089397  0  0  0.212963  0.634993  0  4.099162  0
C  C81  1  0.57847847  0.76584474  0.04796342  1  0  0.706977  0  3.801162  0  1.569636  0  0.658266  0  4.095487  0  0  0.692016  0  4.089407  0  0  0.213006  0.635177  0  4.099155  0
C  C82  1  0.07848045  0.73415712  0.54796400  1  0  0.706906  0  3.801017  0  1.569659  0  0.658127  0  4.095465  0  0  0.691876  0  4.089387  0  0  0.212972  0.635027  0  4.099146  0
C  C83  1  0.42152258  0.23415531  0.95203684  1  0  0.706942  0  3.801126  0  1.569644  0  0.65823  0  4.095462  0  0  0.69198  0  4.089384  0  0  0.21299  0.635133  0  4.099144  0
C  C84  1  0.87870884  0.55150471  0.86712023  1  0  -0.036688  0  3.678141  0  -0.112888  0  -0.063335  0  3.930609  0  0  -0.060446  0  3.948935  0  0  -0.061648  -0.064835  0  3.91798  0
C  C85  1  0.62129125  0.05150523  0.63287948  1  0  -0.036804  0  3.678245  0  -0.112886  0  -0.063478  0  3.930707  0  0  -0.060589  0  3.949038  0  0  -0.061737  -0.064979  0  3.91808  0
C  C86  1  0.12129224  0.44849534  0.13287850  1  0  -0.03673  0  3.678123  0  -0.112869  0  -0.063385  0  3.930608  0  0  -0.060495  0  3.948934  0  0  -0.061691  -0.064888  0  3.917994  0
C  C87  1  0.37870672  0.94849561  0.36712084  1  0  -0.036802  0  3.678121  0  -0.112856  0  -0.063418  0  3.930617  0  0  -0.06053  0  3.948951  0  0  -0.061741  -0.064923  0  3.917987  0
C  C88  1  0.95773605  0.28143322  0.78860057  1  0  -0.091513  0  3.719007  0  -0.036628  0  -0.113356  0  3.973494  0  0  -0.115971  0  3.995426  0  0  -0.081254  -0.11141  0  3.958664  0
C  C89  1  0.54226602  0.78143385  0.71140051  1  0  -0.091514  0  3.718972  0  -0.036619  0  -0.113351  0  3.973474  0  0  -0.115962  0  3.995395  0  0  -0.08124  -0.111412  0  3.958652  0
C  C90  1  0.04226603  0.71856684  0.21139915  1  0  -0.091522  0  3.718979  0  -0.036623  0  -0.113337  0  3.973476  0  0  -0.115949  0  3.995398  0  0  -0.081228  -0.111386  0  3.958643  0
C  C91  1  0.45773297  0.21856621  0.28860005  1  0  -0.091523  0  3.718933  0  -0.036632  0  -0.113341  0  3.973422  0  0  -0.115952  0  3.995342  0  0  -0.081254  -0.111403  0  3.958602  0
C  C92  1  0.73882961  0.53042228  0.98722242  1  0  0.154877  0  3.665849  0  0.431236  0  0.123027  0  3.918029  0  0  0.131822  0  3.934649  0  0  0.05709  0.11745  0  3.906536  0
C  C93  1  0.76117060  0.03042362  0.51277585  1  0  0.154903  0  3.665585  0  0.430964  0  0.123023  0  3.917804  0  0  0.13182  0  3.934417  0  0  0.057069  0.117449  0  3.90631  0
C  C94  1  0.26117247  0.46957778  0.01277730  1  0  0.154988  0  3.665692  0  0.431221  0  0.123109  0  3.917911  0  0  0.131905  0  3.934527  0  0  0.057094  0.117538  0  3.906415  0
C  C95  1  0.23882636  0.96957722  0.48722349  1  0  0.154982  0  3.665715  0  0.431373  0  0.123086  0  3.91796  0  0  0.131885  0  3.934573  0  0  0.057062  0.117509  0  3.906463  0
C  C96  1  0.80430018  0.59581513  0.93008451  1  0  -0.112845  0  3.717265  0  0.03561  0  -0.127564  0  3.973711  0  0  -0.134951  0  3.995283  0  0  -0.083794  -0.12283  0  3.959112  0
C  C97  1  0.69569972  0.09581645  0.56991428  1  0  -0.112762  0  3.717156  0  0.035323  0  -0.127469  0  3.973606  0  0  -0.134856  0  3.995178  0  0  -0.083746  -0.122737  0  3.959013  0
C  C98  1  0.19570090  0.40418493  0.06991422  1  0  -0.112861  0  3.717162  0  0.03532  0  -0.127567  0  3.973613  0  0  -0.134954  0  3.995186  0  0  -0.08377  -0.122836  0  3.959024  0
C  C99  1  0.30429826  0.90418361  0.43008529  1  0  -0.112796  0  3.717146  0  0.035329  0  -0.127498  0  3.973597  0  0  -0.134885  0  3.995167  0  0  -0.083709  -0.122758  0  3.958991  0
C  C100  1  0.81637912  0.05430487  0.90675022  1  0  -0.1159  0  3.72828  0  0.003649  0  -0.129531  0  3.981428  0  0  -0.137151  0  4.003008  0  0  -0.084826  -0.124602  0  3.966825  0
C  C101  1  0.68362097  0.55430476  0.59324872  1  0  -0.115959  0  3.728328  0  0.003655  0  -0.1296  0  3.98147  0  0  -0.13722  0  4.00305  0  0  -0.084863  -0.124669  0  3.966867  0
C  C102  1  0.18361989  0.94569519  0.09324958  1  0  -0.115863  0  3.728283  0  0.00364  0  -0.129508  0  3.981391  0  0  -0.137133  0  4.002988  0  0  -0.084837  -0.124578  0  3.966792  0
C  C103  1  0.31637907  0.44569530  0.40675054  1  0  -0.115936  0  3.7283  0  0.003642  0  -0.129582  0  3.981434  0  0  -0.137204  0  4.003018  0  0  -0.084858  -0.124655  0  3.966841  0
C  C104  1  0.95568103  0.38833390  0.79352458  1  0  -0.091043  0  3.730456  0  -0.008511  0  -0.115592  0  3.98684  0  0  -0.118959  0  4.009894  0  0  -0.082029  -0.113186  0  3.97114  0
C  C105  1  0.54432056  0.88833454  0.70647534  1  0  -0.091009  0  3.730419  0  -0.008517  0  -0.115578  0  3.986784  0  0  -0.118945  0  4.00984  0  0  -0.082018  -0.113173  0  3.971086  0
C  C106  1  0.04432002  0.61166538  0.20647568  1  0  -0.090986  0  3.730391  0  -0.0085  0  -0.115529  0  3.986749  0  0  -0.118896  0  4.009805  0  0  -0.081995  -0.113117  0  3.971048  0
C  C107  1  0.45567845  0.11166551  0.29352445  1  0  -0.090929  0  3.730259  0  -0.00851  0  -0.115424  0  3.986622  0  0  -0.118795  0  4.009681  0  0  -0.081951  -0.113015  0  3.970924  0
C  C108  1  0.74719225  0.11082246  0.96803448  1  0  0.14516  0  3.692474  0  0.44815  0  0.111265  0  3.949493  0  0  0.119453  0  3.965789  0  0  0.054208  0.10596  0  3.938514  0
C  C109  1  0.75280756  0.61082316  0.53196502  1  0  0.145223  0  3.692499  0  0.448032  0  0.111336  0  3.949502  0  0  0.119525  0  3.965795  0  0  0.054219  0.106018  0  3.938535  0
C  C110  1  0.25280777  0.88917760  0.03196555  1  0  0.145093  0  3.69247  0  0.448013  0  0.111252  0  3.949454  0  0  0.11944  0  3.965743  0  0  0.054225  0.105938  0  3.938479  0
C  C111  1  0.24719145  0.38917690  0.46803401  1  0  0.145196  0  3.692463  0  0.44813  0  0.11134  0  3.949436  0  0  0.119529  0  3.965726  0  0  0.054255  0.106027  0  3.938458  0
C  C112  1  0.79819102  0.33047329  0.39647137  1  0  -0.321893  0  3.646685  0  -0.041853  0  -0.36398  0  3.888481  0  0  -0.370577  0  3.89453  0  0  -0.166882  -0.359439  0  3.884511  0
C  C113  1  0.70180467  0.83047546  0.10352813  1  0  -0.322071  0  3.646765  0  -0.041539  0  -0.364197  0  3.888484  0  0  -0.370789  0  3.894525  0  0  -0.166937  -0.359669  0  3.884527  0
C  C114  1  0.20180900  0.66952677  0.60352865  1  0  -0.322016  0  3.646693  0  -0.042133  0  -0.364076  0  3.888448  0  0  -0.370672  0  3.894497  0  0  -0.166918  -0.359538  0  3.884479  0
C  C115  1  0.29819536  0.16952460  0.89647190  1  0  -0.321963  0  3.646802  0  -0.041425  0  -0.364127  0  3.888441  0  0  -0.37073  0  3.894488  0  0  -0.166928  -0.359595  0  3.88448  0
N  N116  1  0.74705835  0.42631242  0.98378825  1  0  -0.348298  0  3.274952  0  -1.251599  0  -0.274932  0  3.542881  0  0  -0.293934  0  3.558504  0  0  -0.318811  -0.262174  0  3.532245  0
N  N117  1  0.75294204  0.92631239  0.51621129  1  0  -0.348324  0  3.274782  0  -1.251579  0  -0.274943  0  3.542728  0  0  -0.293942  0  3.558345  0  0  -0.318817  -0.262184  0  3.532084  0
N  N118  1  0.25294373  0.57368763  0.01621147  1  0  -0.34832  0  3.274849  0  -1.251684  0  -0.274954  0  3.542794  0  0  -0.293952  0  3.55841  0  0  -0.318839  -0.26219  0  3.532149  0
N  N119  1  0.24705593  0.07368689  0.48378904  1  0  -0.348384  0  3.274892  0  -1.251784  0  -0.275015  0  3.542849  0  0  -0.294015  0  3.558466  0  0  -0.318873  -0.262258  0  3.532204  0
N  N120  1  0.75071968  0.21499024  0.97359096  1  0  -0.358003  0  3.311619  0  -1.261834  0  -0.286393  0  3.58178  0  0  -0.305389  0  3.598958  0  0  -0.322046  -0.273604  0  3.57015  0
N  N121  1  0.74928069  0.71499097  0.52640761  1  0  -0.358054  0  3.311624  0  -1.261517  0  -0.286453  0  3.581775  0  0  -0.305445  0  3.598948  0  0  -0.322068  -0.273666  0  3.570144  0
N  N122  1  0.24928139  0.78501060  0.02640776  1  0  -0.358061  0  3.311636  0  -1.261484  0  -0.286475  0  3.581783  0  0  -0.30547  0  3.598958  0  0  -0.322079  -0.273686  0  3.570152  0
N  N123  1  0.25071729  0.28500987  0.47359195  1  0  -0.358095  0  3.311709  0  -1.261625  0  -0.286488  0  3.581837  0  0  -0.305482  0  3.59901  0  0  -0.322113  -0.273699  0  3.570203  0
Cl  Cl124  1  0.07953123  0.17850054  0.17863481  1  0  -0.587043  0  0.933059  0  -0.666663  0  -0.524499  0  1.212353  0  0  -0.542041  0  1.190503  0  0  -0.303084  -0.511935  0  1.227534  0
Cl  Cl125  1  0.42046694  0.67850006  0.32136431  1  0  -0.587047  0  0.933078  0  -0.666676  0  -0.524489  0  1.212362  0  0  -0.542032  0  1.190512  0  0  -0.303082  -0.511929  0  1.227555  0
Cl  Cl126  1  0.92046880  0.82150109  0.82136521  1  0  -0.587042  0  0.93305  0  -0.666659  0  -0.5245  0  1.212347  0  0  -0.542047  0  1.190498  0  0  -0.303088  -0.511948  0  1.22754  0
Cl  Cl127  1  0.57953208  0.32150078  0.67863472  1  0  -0.587054  0  0.933077  0  -0.666679  0  -0.524492  0  1.212357  0  0  -0.542037  0  1.190506  0  0  -0.303084  -0.511938  0  1.227551  0
O  O128  1  0.59997455  0.43692974  0.15617815  1  0  -0.592054  0  2.007399  0  -1.19633  0  -0.528145  0  2.258124  0  0  -0.553579  0  2.245687  0  0  -0.30375  -0.51042  0  2.26611  0
O  O129  1  0.90002475  0.93692847  0.34382112  1  0  -0.5921  0  2.007494  0  -1.196293  0  -0.5282  0  2.258136  0  0  -0.55365  0  2.245735  0  0  -0.3038  -0.510478  0  2.266118  0
O  O130  1  0.40002549  0.56307188  0.84382111  1  0  -0.592063  0  2.007485  0  -1.196428  0  -0.528147  0  2.258124  0  0  -0.553601  0  2.245728  0  0  -0.303772  -0.510429  0  2.26611  0
O  O131  1  0.09997525  0.06307002  0.65618044  1  0  -0.592005  0  2.007463  0  -1.196252  0  -0.528122  0  2.258143  0  0  -0.553567  0  2.245728  0  0  -0.30375  -0.510396  0  2.266122  0
O  O132  1  0.77681519  0.28041781  0.21138241  1  0  -0.711619  0  2.175834  0  -1.190121  0  -0.618034  0  2.48925  0  0  -0.645892  0  2.472299  0  0  -0.402719  -0.597805  0  2.499912  0
O  O133  1  0.72318175  0.78041863  0.28861751  1  0  -0.711566  0  2.175897  0  -1.190091  0  -0.618013  0  2.4893  0  0  -0.645862  0  2.47233  0  0  -0.402717  -0.597784  0  2.499957  0
O  O134  1  0.22318278  0.71958146  0.78861792  1  0  -0.711589  0  2.175836  0  -1.190116  0  -0.618027  0  2.489287  0  0  -0.64588  0  2.472325  0  0  -0.402704  -0.597797  0  2.499939  0
O  O135  1  0.27681829  0.21958065  0.71138175  1  0  -0.711477  0  2.175938  0  -1.190023  0  -0.617973  0  2.489236  0  0  -0.645828  0  2.472263  0  0  -0.402683  -0.597745  0  2.499889  0
O  O136  1  0.70883634  0.53472308  0.29820054  1  0  -0.62886  0  2.08449  0  -1.198073  0  -0.559139  0  2.363905  0  0  -0.588118  0  2.348384  0  0  -0.317679  -0.538801  0  2.373785  0
O  O137  1  0.79116177  0.03472383  0.20179800  1  0  -0.628811  0  2.084451  0  -1.197989  0  -0.559125  0  2.363838  0  0  -0.588101  0  2.348318  0  0  -0.317636  -0.538796  0  2.373716  0
O  O138  1  0.29116265  0.46527619  0.70180002  1  0  -0.628817  0  2.084482  0  -1.19808  0  -0.559121  0  2.363865  0  0  -0.588099  0  2.348344  0  0  -0.317649  -0.538789  0  2.373741  0
O  O139  1  0.20884440  0.96527466  0.79820264  1  0  -0.6288  0  2.084494  0  -1.198036  0  -0.55908  0  2.363855  0  0  -0.588059  0  2.348337  0  0  -0.31765  -0.538751  0  2.373734  0
O  O140  1  0.99155736  0.28993368  0.54535066  1  0  -0.591967  0  1.959359  0  -1.186578  0  -0.526041  0  2.199799  0  0  -0.552749  0  2.188777  0  0  -0.303248  -0.507568  0  2.206831  0
O  O141  1  0.50843854  0.78993761  0.95464901  1  0  -0.592004  0  1.959379  0  -1.187367  0  -0.526093  0  2.199778  0  0  -0.552801  0  2.188756  0  0  -0.303269  -0.50762  0  2.206805  0
O  O142  1  0.00844163  0.71006559  0.45464990  1  0  -0.591991  0  1.959345  0  -1.187319  0  -0.526076  0  2.199794  0  0  -0.552783  0  2.188771  0  0  -0.303272  -0.507611  0  2.206838  0
O  O143  1  0.49156047  0.21006323  0.04535079  1  0  -0.592008  0  1.95942  0  -1.187362  0  -0.526109  0  2.199825  0  0  -0.552819  0  2.188804  0  0  -0.303267  -0.507636  0  2.206861  0
O  O144  1  0.95618630  0.18559150  0.40532220  1  0  -0.661188  0  2.084279  0  -1.213257  0  -0.58265  0  2.366452  0  0  -0.611188  0  2.348196  0  0  -0.318233  -0.562849  0  2.378592  0
O  O145  1  0.54381007  0.68559403  0.09467708  1  0  -0.661218  0  2.08437  0  -1.213203  0  -0.582728  0  2.366532  0  0  -0.611264  0  2.348273  0  0  -0.318253  -0.562934  0  2.378676  0
O  O146  1  0.04381272  0.81440856  0.59467683  1  0  -0.661165  0  2.084235  0  -1.213245  0  -0.582638  0  2.366421  0  0  -0.611173  0  2.348163  0  0  -0.318226  -0.562836  0  2.378557  0
O  O147  1  0.45618995  0.31440681  0.90532295  1  0  -0.661207  0  2.084306  0  -1.213217  0  -0.582725  0  2.366486  0  0  -0.611255  0  2.34821  0  0  -0.318255  -0.562919  0  2.378622  0
