# generated using pymatgen
data_AgH8C11N3O4
_symmetry_space_group_name_H-M   'P 1'
_cell_length_a   7.54089721
_cell_length_b   8.72068911
_cell_length_c   8.92503022
_cell_angle_alpha   90.00048272
_cell_angle_beta   90.00006388
_cell_angle_gamma   101.71181201
_symmetry_Int_Tables_number   1
_chemical_formula_structural   AgH8C11N3O4
_chemical_formula_sum   'Ag2 H16 C22 N6 O8'
_cell_volume   574.70700581
_cell_formula_units_Z   2
loop_
 _symmetry_equiv_pos_site_id
 _symmetry_equiv_pos_as_xyz
  1  'x, y, z'
loop_
 _atom_site_type_symbol
 _atom_site_label
 _atom_site_symmetry_multiplicity
 _atom_site_fract_x
 _atom_site_fract_y
 _atom_site_fract_z
 _atom_site_occupancy
 _atom_site_hle17_bader_spin_density
 _atom_site_hle17_ddec_charge
 _atom_site_hle17_ddec_spin_density
 _atom_site_hle17_ddec_sum_bond_order
 _atom_site_hle17_magmom
 _atom_site_hse06_10hf_bader_spin_density
 _atom_site_hse06_10hf_ddec_charge
 _atom_site_hse06_10hf_ddec_spin_density
 _atom_site_hse06_10hf_ddec_sum_bond_order
 _atom_site_hse06_10hf_magmom
 _atom_site_hse06_bader_spin_density
 _atom_site_hse06_ddec_charge
 _atom_site_hse06_ddec_spin_density
 _atom_site_hse06_ddec_sum_bond_order
 _atom_site_hse06_magmom
 _atom_site_pbe_bader_spin_density
 _atom_site_pbe_cm5_charge
 _atom_site_pbe_ddec_charge
 _atom_site_pbe_ddec_spin_density
 _atom_site_pbe_ddec_sum_bond_order
 _atom_site_pbe_magmom
Ag  Ag0  1  0.51894534  0.84883620  0.26823141  1  0  0.526811  0  1.393885  0  0  0.378683  0  1.832349  0  0  0.40743  0  1.787608  0  0  0.468908  0.358503  0  1.863144  0
Ag  Ag1  1  0.48105501  0.15116236  0.76823019  1  0  0.526807  0  1.393931  0  0  0.37869  0  1.832387  0  0  0.407431  0  1.787667  0  0  0.468907  0.35851  0  1.863179  0
H  H2  1  0.19111258  0.91193055  0.06877337  1  0  0.093867  0  0.939139  0  0  0.102186  0  1.002119  0  0  0.104419  0  1.000801  0  0  0.118699  0.100366  0  1.003287  0
H  H3  1  0.80888470  0.08806733  0.56877418  1  0  0.093877  0  0.939102  0  0  0.10217  0  1.002129  0  0  0.104404  0  1.00081  0  0  0.118683  0.100359  0  1.003288  0
H  H4  1  0.07451902  0.85478003  0.81176216  1  0  0.11755  0  0.96107  0  0  0.123245  0  1.02778  0  0  0.12678  0  1.025937  0  0  0.111496  0.120407  0  1.02978  0
H  H5  1  0.92548148  0.14521892  0.31176469  1  0  0.117527  0  0.961033  0  0  0.123219  0  1.027754  0  0  0.126754  0  1.025909  0  0  0.111488  0.120379  0  1.029754  0
H  H6  1  0.41248667  0.50984097  0.78056100  1  0  0.103648  0  0.95893  0  0  0.110498  0  1.028375  0  0  0.114043  0  1.026033  0  0  0.109269  0.107724  0  1.030516  0
H  H7  1  0.58751611  0.49015653  0.28056606  1  0  0.103612  0  0.958938  0  0  0.110428  0  1.028422  0  0  0.113973  0  1.026081  0  0  0.109242  0.107653  0  1.030562  0
H  H8  1  0.52153102  0.58570012  0.03804399  1  0  0.084516  0  0.97791  0  0  0.089307  0  1.050554  0  0  0.092722  0  1.046504  0  0  0.110943  0.086792  0  1.053649  0
H  H9  1  0.47846483  0.41429748  0.53804717  1  0  0.084522  0  0.977853  0  0  0.089289  0  1.050523  0  0  0.09271  0  1.046476  0  0  0.110956  0.086776  0  1.053621  0
H  H10  1  0.60176097  0.77246612  0.60022329  1  0  0.095594  0  0.938401  0  0  0.103998  0  1.00175  0  0  0.106383  0  0.999963  0  0  0.118681  0.102089  0  1.003495  0
H  H11  1  0.39824492  0.22753441  0.10021816  1  0  0.095578  0  0.938376  0  0  0.103986  0  1.001726  0  0  0.106372  0  0.999938  0  0  0.118673  0.102076  0  1.003471  0
H  H12  1  0.83904198  0.67710653  0.74437378  1  0  0.120241  0  0.940201  0  0  0.130141  0  0.998997  0  0  0.133523  0  0.997479  0  0  0.114783  0.127655  0  1.000388  0
H  H13  1  0.16096067  0.32289063  0.24437257  1  0  0.12024  0  0.940197  0  0  0.130142  0  0.998981  0  0  0.133522  0  0.997469  0  0  0.114773  0.127656  0  1.000366  0
H  H14  1  0.14227057  0.68820009  0.33123764  1  0  0.103399  0  0.964913  0  0  0.106097  0  1.04221  0  0  0.110575  0  1.038514  0  0  0.104589  0.103152  0  1.044356  0
H  H15  1  0.85772524  0.31180137  0.83123810  1  0  0.103473  0  0.964836  0  0  0.106143  0  1.042163  0  0  0.110627  0  1.038455  0  0  0.104598  0.1032  0  1.044308  0
H  H16  1  0.89146836  0.78962095  0.20388983  1  0  0.092201  0  0.973699  0  0  0.099516  0  1.040668  0  0  0.102537  0  1.037683  0  0  0.114868  0.09707  0  1.043217  0
H  H17  1  0.10852915  0.21038286  0.70388649  1  0  0.092193  0  0.973673  0  0  0.099537  0  1.040613  0  0  0.102569  0  1.037621  0  0  0.11485  0.097092  0  1.043161  0
C  C18  1  0.23614924  0.82285030  0.00138053  1  0  0.128982  0  3.662787  0  0  0.098751  0  3.915917  0  0  0.104988  0  3.933185  0  0  0.047637  0.094999  0  3.903331  0
C  C19  1  0.76384780  0.17714696  0.50138203  1  0  0.128968  0  3.662655  0  0  0.098737  0  3.915832  0  0  0.104975  0  3.933098  0  0  0.04767  0.094981  0  3.903243  0
C  C20  1  0.17014545  0.78876327  0.85672536  1  0  -0.110915  0  3.676533  0  0  -0.135488  0  3.932161  0  0  -0.13942  0  3.949896  0  0  -0.070957  -0.132546  0  3.919786  0
C  C21  1  0.82985548  0.21123727  0.35672723  1  0  -0.110817  0  3.676341  0  0  -0.135394  0  3.931969  0  0  -0.139321  0  3.949702  0  0  -0.07093  -0.132452  0  3.919595  0
C  C22  1  0.23012405  0.67197048  0.77495264  1  0  0.011451  0  3.729367  0  0  0.027463  0  3.958075  0  0  0.025542  0  3.980379  0  0  0.002522  0.029072  0  3.942269  0
C  C23  1  0.76987582  0.32803164  0.27495541  1  0  0.011338  0  3.729397  0  0  0.027378  0  3.958085  0  0  0.025447  0  3.980395  0  0  0.002502  0.02899  0  3.942275  0
C  C24  1  0.35993047  0.59921584  0.84129055  1  0  -0.106416  0  3.701111  0  0  -0.127782  0  3.944968  0  0  -0.133407  0  3.968795  0  0  -0.074841  -0.12434  0  3.929518  0
C  C25  1  0.64007014  0.40078338  0.34129604  1  0  -0.106346  0  3.701067  0  0  -0.127686  0  3.944891  0  0  -0.133311  0  3.968723  0  0  -0.074823  -0.124244  0  3.929438  0
C  C26  1  0.41982360  0.64052165  0.98537766  1  0  0.104479  0  3.705451  0  0  0.07575  0  3.955747  0  0  0.080285  0  3.975848  0  0  0.035114  0.072163  0  3.942819  0
C  C27  1  0.58017617  0.35947890  0.48538163  1  0  0.104423  0  3.705477  0  0  0.075727  0  3.955733  0  0  0.080253  0  3.975841  0  0  0.035098  0.072138  0  3.94281  0
C  C28  1  0.72350364  0.75220435  0.54465146  1  0  0.128183  0  3.682448  0  0  0.095473  0  3.937847  0  0  0.102927  0  3.954644  0  0  0.049465  0.090622  0  3.926524  0
C  C29  1  0.27649703  0.24779683  0.04464974  1  0  0.12825  0  3.682485  0  0  0.095524  0  3.937901  0  0  0.102978  0  3.954697  0  0  0.049464  0.090668  0  3.926572  0
C  C30  1  0.85831994  0.69962921  0.62481799  1  0  -0.122315  0  3.674197  0  0  -0.141755  0  3.919894  0  0  -0.147325  0  3.939672  0  0  -0.071173  -0.138238  0  3.906888  0
C  C31  1  0.14167913  0.30037036  0.12481433  1  0  -0.122329  0  3.674265  0  0  -0.141756  0  3.919958  0  0  -0.147327  0  3.939738  0  0  -0.071157  -0.138238  0  3.90695  0
C  C32  1  0.01351316  0.67761324  0.54864968  1  0  0.022864  0  3.724016  0  0  0.036587  0  3.953431  0  0  0.0362  0  3.974939  0  0  0.002468  0.036944  0  3.938821  0
C  C33  1  0.98648643  0.32238329  0.04864702  1  0  0.022803  0  3.724162  0  0  0.036525  0  3.953567  0  0  0.036131  0  3.975082  0  0  0.002457  0.036886  0  3.938957  0
C  C34  1  0.02393175  0.70565204  0.39389851  1  0  -0.109893  0  3.701576  0  0  -0.13232  0  3.953063  0  0  -0.138641  0  3.975095  0  0  -0.076753  -0.128597  0  3.938176  0
C  C35  1  0.97606560  0.29435000  0.89390006  1  0  -0.109942  0  3.701522  0  0  -0.132346  0  3.952998  0  0  -0.138667  0  3.975036  0  0  -0.076727  -0.12862  0  3.938109  0
C  C36  1  0.88629593  0.76121157  0.32296269  1  0  0.110384  0  3.68509  0  0  0.079012  0  3.935359  0  0  0.084929  0  3.954126  0  0  0.038307  0.075189  0  3.923242  0
C  C37  1  0.11370836  0.23879217  0.82296072  1  0  0.110343  0  3.685055  0  0  0.078939  0  3.935308  0  0  0.084843  0  3.954092  0  0  0.038229  0.075097  0  3.923213  0
C  C38  1  0.16976194  0.62364507  0.61928347  1  0  0.394714  0  3.687684  0  0  0.375946  0  3.942362  0  0  0.397049  0  3.943211  0  0  0.173771  0.361614  0  3.941108  0
C  C39  1  0.83023762  0.37635094  0.11928558  1  0  0.39487  0  3.687466  0  0  0.37607  0  3.942182  0  0  0.397186  0  3.943029  0  0  0.173761  0.361728  0  3.94094  0
N  N40  1  0.35764946  0.74988665  0.06575654  1  0  -0.291846  0  3.286913  0  0  -0.213938  0  3.566496  0  0  -0.231001  0  3.582879  0  0  -0.335631  -0.201518  0  3.553833  0
N  N41  1  0.64234809  0.25011238  0.56575853  1  0  -0.291855  0  3.287053  0  0  -0.213953  0  3.56663  0  0  -0.231018  0  3.583015  0  0  -0.335665  -0.201538  0  3.553976  0
N  N42  1  0.73756604  0.78463739  0.39715967  1  0  -0.298014  0  3.345053  0  0  -0.21387  0  3.632995  0  0  -0.231868  0  3.648228  0  0  -0.343345  -0.201441  0  3.622578  0
N  N43  1  0.26243663  0.21536469  0.89715652  1  0  -0.298019  0  3.345128  0  0  -0.213874  0  3.63309  0  0  -0.231874  0  3.648327  0  0  -0.343296  -0.201422  0  3.622652  0
N  N44  1  0.27860396  0.02331805  0.44980823  1  0  0.68126  0  4.178522  0  0  0.711727  0  4.466286  0  0  0.739893  0  4.475512  0  0  0.088135  0.692706  0  4.459407  0
N  N45  1  0.72139437  0.97668217  0.94980956  1  0  0.681288  0  4.178429  0  0  0.711753  0  4.466207  0  0  0.739917  0  4.475438  0  0  0.088189  0.69273  0  4.459328  0
O  O46  1  0.25128439  0.53980250  0.54559041  1  0  -0.441167  0  1.928312  0  0  -0.398822  0  2.137674  0  0  -0.414263  0  2.132573  0  0  -0.243589  -0.387867  0  2.140992  0
O  O47  1  0.74872056  0.46020571  0.04559986  1  0  -0.441186  0  1.928185  0  0  -0.398839  0  2.13757  0  0  -0.41429  0  2.132466  0  0  -0.243544  -0.38788  0  2.140893  0
O  O48  1  0.31250058  0.02488282  0.30920257  1  0  -0.481148  0  1.825143  0  0  -0.451595  0  2.069454  0  0  -0.471862  0  2.063351  0  0  -0.204867  -0.437601  0  2.073755  0
O  O49  1  0.68749859  0.97511611  0.80920273  1  0  -0.481197  0  1.825108  0  0  -0.451652  0  2.069406  0  0  -0.471922  0  2.063305  0  0  -0.204911  -0.437662  0  2.073719  0
O  O50  1  0.16673493  0.09968237  0.49931421  1  0  -0.46  0  1.763153  0  0  -0.450621  0  1.981988  0  0  -0.465758  0  1.977469  0  0  -0.189393  -0.439541  0  1.985034  0
O  O51  1  0.83326384  0.90031948  0.99931389  1  0  -0.459935  0  1.76313  0  0  -0.450562  0  1.981969  0  0  -0.465692  0  1.977447  0  0  -0.189349  -0.439488  0  1.985027  0
O  O52  1  0.35911831  0.94426372  0.53694230  1  0  -0.498419  0  1.814918  0  0  -0.478178  0  2.061211  0  0  -0.496662  0  2.054548  0  0  -0.199097  -0.465362  0  2.065602  0
O  O53  1  0.64087968  0.05573738  0.03694495  1  0  -0.498496  0  1.814982  0  0  -0.478206  0  2.061213  0  0  -0.496688  0  2.054545  0  0  -0.199149  -0.46539  0  2.065603  0
