# generated using pymatgen
data_AlH4C10SBrO6
_symmetry_space_group_name_H-M   'P 1'
_cell_length_a   6.70278761
_cell_length_b   11.17166697
_cell_length_c   12.55413674
_cell_angle_alpha   81.33246503
_cell_angle_beta   78.35404012
_cell_angle_gamma   71.78277822
_symmetry_Int_Tables_number   1
_chemical_formula_structural   AlH4C10SBrO6
_chemical_formula_sum   'Al2 H8 C20 S2 Br2 O12'
_cell_volume   870.68432742
_cell_formula_units_Z   2
loop_
 _symmetry_equiv_pos_site_id
 _symmetry_equiv_pos_as_xyz
  1  'x, y, z'
loop_
 _atom_site_type_symbol
 _atom_site_label
 _atom_site_symmetry_multiplicity
 _atom_site_fract_x
 _atom_site_fract_y
 _atom_site_fract_z
 _atom_site_occupancy
 _atom_site_pbe_bader_charge
 _atom_site_pbe_bader_spin_density
 _atom_site_pbe_cm5_charge
 _atom_site_pbe_ddec_charge
 _atom_site_pbe_ddec_spin_density
 _atom_site_pbe_ddec_sum_bond_order
 _atom_site_pbe_magmom
Al  Al0  1  0.50218969  0.49548349  0.50180759  1  2.503862  0  0.393702  1.644274  0  2.587353  0
Al  Al1  1  0.00130464  0.49640862  0.50311248  1  2.504672  0  0.399174  1.635811  0  2.563173  0
H  H2  1  0.24359510  0.42217995  0.63063203  1  0.619071  0  0.35043  0.430791  0  0.859901  0
H  H3  1  0.70080712  0.65005089  0.44132946  1  0.634325  0  0.338108  0.413442  0  0.892912  0
H  H4  1  0.26196387  0.23620001  0.35661618  1  0.126973  0  0.112559  0.136898  0  1.017116  0
H  H5  1  0.45729692  0.77021867  0.35135529  1  0.083337  0  0.109594  0.12546  0  1.031627  0
H  H6  1  0.75771647  0.88148281  0.56421714  1  0.101745  0  0.11268  0.120767  0  0.978302  0
H  H7  1  0.64758015  0.11808441  0.55436629  1  0.102561  0  0.115194  0.125004  0  0.97856  0
H  H8  1  0.10537823  0.53253084  0.87673536  1  0.61363  0  0.299516  0.319231  0  0.991277  0
H  H9  1  0.69775688  0.48750184  0.25602528  1  0.665487  0  0.321258  0.372947  0  0.921175  0
C  C10  1  0.87550604  0.27252337  0.48157136  1  1.554474  0  0.270367  0.644982  0  4.087716  0
C  C11  1  0.67973235  0.48598142  0.69997778  1  1.556219  0  0.256176  0.667927  0  4.14284  0
C  C12  1  0.13458855  0.72589029  0.49609100  1  1.590757  0  0.269526  0.651849  0  4.0771  0
C  C13  1  0.32058506  0.50431380  0.30311329  1  1.528845  0  0.247162  0.647625  0  4.15806  0
C  C14  1  0.40588673  0.50497408  0.87459293  1  0.622724  0  0.093317  0.296936  0  4.064324  0
C  C15  1  0.58615146  0.49077231  0.13010902  1  0.606135  0  0.085574  0.287383  0  4.118456  0
C  C16  1  0.61353443  0.48867117  0.81778390  1  -0.124646  0  -0.037724  -0.249675  0  3.914874  0
C  C17  1  0.37741222  0.50582580  0.18566672  1  -0.12089  0  -0.050844  -0.300423  0  4.021183  0
C  C18  1  0.59659894  0.48836962  0.01661833  1  -0.132973  0  -0.0308  -0.098516  0  4.081824  0
C  C19  1  0.39734839  0.50413206  0.98880721  1  -0.110741  0  -0.03364  -0.140114  0  4.116382  0
C  C20  1  0.95016628  0.13354434  0.47056195  1  0.008945  0  -0.005231  -0.081021  0  3.930703  0
C  C21  1  0.15799304  0.06924114  0.41670223  1  -0.004382  0  0.003313  0.071114  0  3.941625  0
C  C22  1  0.80731773  0.06617461  0.51788887  1  0.033194  0  -0.076064  -0.085339  0  3.983661  0
C  C23  1  0.30394457  0.13397414  0.35754168  1  0.060469  0  -0.08886  -0.163983  0  3.926495  0
C  C24  1  0.49801526  0.06987291  0.30100148  1  -0.09274  0  -0.021431  0.061597  0  3.985419  0
C  C25  1  0.07187885  0.86693573  0.47723079  1  -0.078198  0  -0.007394  -0.079765  0  3.926428  0
C  C26  1  0.86831682  0.93369166  0.52233716  1  -0.058219  0  -0.078255  -0.086303  0  3.985243  0
C  C27  1  0.21748404  0.93366643  0.41807927  1  0.034085  0  0.002509  0.07322  0  3.944277  0
C  C28  1  0.41529653  0.87145305  0.35639723  1  0.044911  0  -0.097456  -0.180953  0  3.967237  0
C  C29  1  0.55389351  0.93670291  0.29978071  1  -0.097141  0  -0.023634  0.063398  0  3.991396  0
S  S30  1  0.79620886  0.46926160  0.90501332  1  0.215708  0  0.083956  0.124235  0  2.892104  0
S  S31  1  0.19605895  0.51755835  0.10011633  1  0.300708  0  0.081584  0.168129  0  2.890864  0
Br  Br32  1  0.68411632  0.16294580  0.22402002  1  -0.035619  0  0.043212  -0.034057  0  1.520623  0
Br  Br33  1  0.81507061  0.84348706  0.22071043  1  -0.042701  0  0.028118  -0.057539  0  1.47725  0
O  O34  1  0.67725598  0.32640163  0.48410154  1  -1.249623  0  -0.232029  -0.587085  0  2.367693  0
O  O35  1  0.86944427  0.48817023  0.65734374  1  -1.258814  0  -0.24801  -0.60416  0  2.287511  0
O  O36  1  0.98916604  0.67239643  0.50283651  1  -1.264374  0  -0.239495  -0.606345  0  2.346179  0
O  O37  1  0.47213893  0.50609757  0.35225386  1  -1.260183  0  -0.239422  -0.60605  0  2.394914  0
O  O38  1  0.32829972  0.66967174  0.50574750  1  -1.256453  0  -0.238477  -0.598771  0  2.363384  0
O  O39  1  0.13580257  0.50137551  0.35069287  1  -1.254869  0  -0.235609  -0.564724  0  2.323849  0
O  O40  1  0.01167267  0.32618444  0.49183079  1  -1.256496  0  -0.229613  -0.578676  0  2.357279  0
O  O41  1  0.53713153  0.48127732  0.64836480  1  -1.262148  0  -0.238055  -0.595282  0  2.383644  0
O  O42  1  0.26245929  0.43872626  0.55147099  1  -1.421971  0  -0.448293  -0.980999  0  2.154795  0
O  O43  1  0.73772502  0.55851223  0.45587711  1  -1.443754  0  -0.453717  -0.989432  0  2.189616  0
O  O44  1  0.23852538  0.52070498  0.82438305  1  -1.125782  0  -0.327016  -0.391952  0  2.370301  0
O  O45  1  0.75530008  0.47818851  0.17653837  1  -1.160117  0  -0.335959  -0.421859  0  2.350161  0
