# generated using pymatgen
data_Cu2H4C8IN5
_symmetry_space_group_name_H-M   'P 1'
_cell_length_a   8.72757994
_cell_length_b   11.27738893
_cell_length_c   11.80594825
_cell_angle_alpha   109.18006851
_cell_angle_beta   89.99980952
_cell_angle_gamma   112.77738602
_symmetry_Int_Tables_number   1
_chemical_formula_structural   Cu2H4C8IN5
_chemical_formula_sum   'Cu8 H16 C32 I4 N20'
_cell_volume   1001.05294693
_cell_formula_units_Z   4
loop_
 _symmetry_equiv_pos_site_id
 _symmetry_equiv_pos_as_xyz
  1  'x, y, z'
loop_
 _atom_site_type_symbol
 _atom_site_label
 _atom_site_symmetry_multiplicity
 _atom_site_fract_x
 _atom_site_fract_y
 _atom_site_fract_z
 _atom_site_occupancy
 _atom_site_hle17_bader_spin_density
 _atom_site_hle17_ddec_charge
 _atom_site_hle17_ddec_spin_density
 _atom_site_hle17_ddec_sum_bond_order
 _atom_site_hle17_magmom
 _atom_site_hse06_10hf_bader_spin_density
 _atom_site_hse06_10hf_ddec_charge
 _atom_site_hse06_10hf_ddec_spin_density
 _atom_site_hse06_10hf_ddec_sum_bond_order
 _atom_site_hse06_10hf_magmom
 _atom_site_hse06_bader_spin_density
 _atom_site_hse06_ddec_charge
 _atom_site_hse06_ddec_spin_density
 _atom_site_hse06_ddec_sum_bond_order
 _atom_site_hse06_magmom
 _atom_site_pbe_bader_spin_density
 _atom_site_pbe_cm5_charge
 _atom_site_pbe_ddec_charge
 _atom_site_pbe_ddec_spin_density
 _atom_site_pbe_ddec_sum_bond_order
 _atom_site_pbe_magmom
Cu  Cu0  1  0.34636193  0.69053048  0.26498069  1  0  0.450347  0  2.087342  0  0  0.341681  0  2.596687  0  0  0.334514  0  2.55497  0  0  0.528991  0.350146  0  2.622064  0
Cu  Cu1  1  0.65561796  0.30918542  0.23480834  1  0  0.450252  0  2.086415  0  0  0.341949  0  2.595422  0  0  0.334834  0  2.553475  0  0  0.528503  0.349589  0  2.621051  0
Cu  Cu2  1  0.65363635  0.30946916  0.73501979  1  0  0.450228  0  2.08725  0  0  0.341521  0  2.59658  0  0  0.334381  0  2.554872  0  0  0.528893  0.349986  0  2.621901  0
Cu  Cu3  1  0.34437917  0.69081420  0.76519130  1  0  0.450226  0  2.086542  0  0  0.341923  0  2.595549  0  0  0.334808  0  2.55361  0  0  0.528542  0.349577  0  2.621224  0
Cu  Cu4  1  0.08183053  0.49585213  0.90773730  1  0  0.267463  0  2.167669  0  0  0.174685  0  2.660898  0  0  0.182273  0  2.608221  0  0  0.350582  0.171558  0  2.695437  0
Cu  Cu5  1  0.58604528  0.50415385  0.59221377  1  0  0.267132  0  2.167018  0  0  0.174168  0  2.660431  0  0  0.181951  0  2.607478  0  0  0.35033  0.171352  0  2.694735  0
Cu  Cu6  1  0.91816711  0.50414852  0.09226180  1  0  0.267477  0  2.167641  0  0  0.174705  0  2.66086  0  0  0.182272  0  2.608209  0  0  0.35058  0.171576  0  2.695392  0
Cu  Cu7  1  0.41395248  0.49584475  0.40778555  1  0  0.267121  0  2.166997  0  0  0.174144  0  2.660409  0  0  0.181967  0  2.607466  0  0  0.350309  0.171325  0  2.694723  0
H  H8  1  0.80440247  0.60064144  0.93684016  1  0  0.08782  0  0.988642  0  0  0.085521  0  1.077473  0  0  0.092132  0  1.068692  0  0  0.091196  0.080125  0  1.084605  0
H  H9  1  0.20329045  0.39936707  0.56327847  1  0  0.087385  0  0.987616  0  0  0.084963  0  1.076996  0  0  0.09158  0  1.068245  0  0  0.091036  0.079743  0  1.083786  0
H  H10  1  0.19559912  0.39936025  0.06316011  1  0  0.087814  0  0.988626  0  0  0.08551  0  1.077464  0  0  0.092122  0  1.068684  0  0  0.091191  0.080113  0  1.084599  0
H  H11  1  0.79670833  0.60063357  0.43671894  1  0  0.087351  0  0.987618  0  0  0.084935  0  1.076997  0  0  0.091563  0  1.068236  0  0  0.091049  0.079715  0  1.083782  0
H  H12  1  0.89056867  0.76704596  0.82946098  1  0  0.097881  0  0.950845  0  0  0.108296  0  1.008385  0  0  0.110745  0  1.008842  0  0  0.101437  0.106566  0  1.008309  0
H  H13  1  0.12310392  0.23285672  0.67056484  1  0  0.098699  0  0.950596  0  0  0.108501  0  1.008722  0  0  0.110952  0  1.009141  0  0  0.101289  0.106616  0  1.008738  0
H  H14  1  0.10943855  0.23295781  0.17054332  1  0  0.097868  0  0.950939  0  0  0.108287  0  1.008463  0  0  0.110736  0  1.008923  0  0  0.10146  0.106556  0  1.008385  0
H  H15  1  0.87689819  0.76714600  0.32943575  1  0  0.098688  0  0.950634  0  0  0.108498  0  1.008744  0  0  0.110948  0  1.009164  0  0  0.101284  0.106612  0  1.00876  0
H  H16  1  0.82290412  0.97268720  0.89617675  1  0  0.105081  0  0.94807  0  0  0.114365  0  1.009367  0  0  0.118012  0  1.007161  0  0  0.100336  0.11163  0  1.010849  0
H  H17  1  0.84970235  0.02718525  0.60375062  1  0  0.104514  0  0.949379  0  0  0.113985  0  1.010655  0  0  0.117546  0  1.008605  0  0  0.100014  0.111483  0  1.011545  0
H  H18  1  0.17710476  0.02731760  0.10382787  1  0  0.105064  0  0.948066  0  0  0.11435  0  1.009364  0  0  0.117998  0  1.007152  0  0  0.100339  0.111611  0  1.010854  0
H  H19  1  0.15029862  0.97281747  0.39625081  1  0  0.104537  0  0.949443  0  0  0.114014  0  1.010712  0  0  0.117542  0  1.008695  0  0  0.099995  0.111497  0  1.011616  0
H  H20  1  0.57803475  0.84268984  0.17842207  1  0  0.093846  0  1.016679  0  0  0.100799  0  1.086666  0  0  0.10499  0  1.083155  0  0  0.095542  0.097795  0  1.089281  0
H  H21  1  0.73464694  0.15741206  0.32173420  1  0  0.09329  0  1.016623  0  0  0.100552  0  1.086338  0  0  0.104722  0  1.082842  0  0  0.095458  0.097265  0  1.089528  0
H  H22  1  0.42196352  0.15730978  0.82157672  1  0  0.093847  0  1.01668  0  0  0.100795  0  1.086675  0  0  0.104986  0  1.083164  0  0  0.095549  0.097787  0  1.089299  0
H  H23  1  0.26534915  0.84258550  0.67826395  1  0  0.093272  0  1.016651  0  0  0.100533  0  1.086371  0  0  0.104699  0  1.08288  0  0  0.095455  0.097252  0  1.089554  0
C  C24  1  0.68552155  0.71036769  0.06530315  1  0  0.006976  0  3.780793  0  0  0.026054  0  4.014579  0  0  0.022598  0  4.036506  0  0  -0.007543  0.028017  0  4.000051  0
C  C25  1  0.97452168  0.28976986  0.43495043  1  0  0.006771  0  3.781526  0  0  0.026434  0  4.014914  0  0  0.022966  0  4.036821  0  0  -0.006361  0.028378  0  4.00032  0
C  C26  1  0.31447953  0.28963297  0.93469680  1  0  0.00695  0  3.780782  0  0  0.026052  0  4.014549  0  0  0.022597  0  4.036475  0  0  -0.007548  0.028013  0  4.00002  0
C  C27  1  0.02547545  0.71022977  0.56504920  1  0  0.006602  0  3.781686  0  0  0.026317  0  4.015012  0  0  0.022847  0  4.036924  0  0  -0.006457  0.028262  0  4.000417  0
C  C28  1  0.77507558  0.69066818  0.96683063  1  0  -0.047688  0  3.673652  0  0  -0.075594  0  3.927  0  0  -0.072125  0  3.943119  0  0  -0.080201  -0.076156  0  3.91526  0
C  C29  1  0.08383991  0.30937539  0.53336493  1  0  -0.046207  0  3.673765  0  0  -0.074233  0  3.92678  0  0  -0.071051  0  3.943205  0  0  -0.080284  -0.075527  0  3.915431  0
C  C30  1  0.22492614  0.30933147  0.03317155  1  0  -0.047656  0  3.673649  0  0  -0.075553  0  3.926976  0  0  -0.072085  0  3.943094  0  0  -0.080192  -0.076117  0  3.915237  0
C  C31  1  0.91616002  0.69062526  0.46663418  1  0  -0.046088  0  3.673855  0  0  -0.074146  0  3.926868  0  0  -0.070977  0  3.943289  0  0  -0.080267  -0.075438  0  3.915514  0
C  C32  1  0.82369193  0.78450108  0.90676126  1  0  -0.056965  0  3.736073  0  0  -0.07169  0  3.997224  0  0  -0.076019  0  4.016973  0  0  -0.088988  -0.069491  0  3.983099  0
C  C33  1  0.03868229  0.21545689  0.59333673  1  0  -0.057957  0  3.738129  0  0  -0.072157  0  3.999124  0  0  -0.076481  0  4.019072  0  0  -0.088337  -0.069297  0  3.984614  0
C  C34  1  0.17631477  0.21550165  0.09324103  1  0  -0.056981  0  3.736254  0  0  -0.071699  0  3.997381  0  0  -0.076028  0  4.017128  0  0  -0.088987  -0.069496  0  3.98325  0
C  C35  1  0.96131713  0.78454274  0.40666290  1  0  -0.058001  0  3.738265  0  0  -0.072199  0  3.999259  0  0  -0.076518  0  4.019198  0  0  -0.088341  -0.069336  0  3.984739  0
C  C36  1  0.78608349  0.89944301  0.94306974  1  0  -0.067482  0  3.699788  0  0  -0.095285  0  3.9518  0  0  -0.091251  0  3.965411  0  0  -0.072051  -0.096212  0  3.941335  0
C  C37  1  0.88608913  0.10049898  0.55696296  1  0  -0.067373  0  3.700823  0  0  -0.09493  0  3.952371  0  0  -0.091105  0  3.966268  0  0  -0.072464  -0.09694  0  3.941406  0
C  C38  1  0.21392322  0.10055973  0.05693424  1  0  -0.06748  0  3.699704  0  0  -0.095271  0  3.95174  0  0  -0.091231  0  3.965346  0  0  -0.072069  -0.096198  0  3.941274  0
C  C39  1  0.11391132  0.89950270  0.44303646  1  0  -0.067353  0  3.700801  0  0  -0.09493  0  3.952315  0  0  -0.091074  0  3.966226  0  0  -0.07242  -0.09692  0  3.94134  0
C  C40  1  0.69789575  0.92008512  0.04246764  1  0  0.016138  0  3.891583  0  0  0.04121  0  4.122499  0  0  0.036818  0  4.141375  0  0  -0.001946  0.043617  0  4.110501  0
C  C41  1  0.77720584  0.07992573  0.45762068  1  0  0.01689  0  3.890019  0  0  0.042064  0  4.120731  0  0  0.037605  0  4.139591  0  0  -0.001906  0.044418  0  4.108877  0
C  C42  1  0.30210814  0.07991658  0.95753433  1  0  0.016236  0  3.891448  0  0  0.041239  0  4.122466  0  0  0.036846  0  4.14134  0  0  -0.001962  0.043642  0  4.110482  0
C  C43  1  0.22279090  0.92007082  0.54237885  1  0  0.016872  0  3.889832  0  0  0.042079  0  4.120505  0  0  0.037622  0  4.139357  0  0  -0.0019  0.044436  0  4.108625  0
C  C44  1  0.64714136  0.82554203  0.10261343  1  0  -0.097795  0  3.673928  0  0  -0.129665  0  3.912537  0  0  -0.127803  0  3.928545  0  0  -0.075927  -0.132325  0  3.903086  0
C  C45  1  0.82088279  0.17457675  0.39758952  1  0  -0.097926  0  3.672263  0  0  -0.130251  0  3.910588  0  0  -0.128192  0  3.926519  0  0  -0.076979  -0.132397  0  3.901282  0
C  C46  1  0.35285806  0.17445760  0.89738705  1  0  -0.097807  0  3.673888  0  0  -0.129659  0  3.912518  0  0  -0.127796  0  3.928525  0  0  -0.075928  -0.132319  0  3.903068  0
C  C47  1  0.17911560  0.82542082  0.60240948  1  0  -0.097852  0  3.672456  0  0  -0.130196  0  3.910742  0  0  -0.128138  0  3.92668  0  0  -0.076949  -0.132342  0  3.901434  0
C  C48  1  0.63483293  0.61538797  0.13134685  1  0  0.272448  0  3.745134  0  0  0.250755  0  4.005887  0  0  0.258664  0  4.024752  0  0  0.219249  0.245503  0  3.993204  0
C  C49  1  0.01916966  0.38467168  0.36882451  1  0  0.271627  0  3.747857  0  0  0.249113  0  4.009198  0  0  0.257022  0  4.0281  0  0  0.219425  0.244284  0  3.996275  0
C  C50  1  0.36516482  0.38461063  0.86865247  1  0  0.27252  0  3.74512  0  0  0.250775  0  4.005903  0  0  0.258683  0  4.02477  0  0  0.219239  0.245524  0  3.993216  0
C  C51  1  0.98082695  0.61532691  0.63117311  1  0  0.271618  0  3.747961  0  0  0.24911  0  4.009279  0  0  0.257019  0  4.028179  0  0  0.219433  0.244281  0  3.996358  0
C  C52  1  0.65902842  0.03640985  0.08644813  1  0  0.315317  0  3.685174  0  0  0.29725  0  3.94083  0  0  0.310441  0  3.956026  0  0  0.200874  0.287922  0  3.93168  0
C  C53  1  0.62214691  0.96345967  0.41356782  1  0  0.315446  0  3.684129  0  0  0.297585  0  3.939153  0  0  0.310898  0  3.954336  0  0  0.201224  0.288335  0  3.930646  0
C  C54  1  0.34097421  0.96359390  0.91355362  1  0  0.315179  0  3.684888  0  0  0.29713  0  3.940587  0  0  0.310325  0  3.955788  0  0  0.20078  0.287805  0  3.931458  0
C  C55  1  0.37786272  0.03654203  0.58643500  1  0  0.315316  0  3.684246  0  0  0.297439  0  3.939262  0  0  0.310747  0  3.954445  0  0  0.201141  0.288192  0  3.930721  0
I  I56  1  0.17634303  0.72652718  0.09866964  1  0  -0.383174  0  1.694096  0  0  -0.332574  0  2.1652  0  0  -0.350347  0  2.12549  0  0  -0.168512  -0.319802  0  2.190381  0
I  I57  1  0.44954124  0.27342594  0.40125454  1  0  -0.383843  0  1.693761  0  0  -0.333159  0  2.164339  0  0  -0.350939  0  2.124841  0  0  -0.168441  -0.319537  0  2.189271  0
I  I58  1  0.82365691  0.27347348  0.90133031  1  0  -0.383167  0  1.694097  0  0  -0.332557  0  2.165196  0  0  -0.350337  0  2.125491  0  0  -0.168517  -0.31979  0  2.190361  0
I  I59  1  0.55045423  0.72657266  0.59874562  1  0  -0.3838  0  1.693741  0  0  -0.333131  0  2.164338  0  0  -0.350906  0  2.12485  0  0  -0.168419  -0.319508  0  2.189292  0
N  N60  1  0.51843383  0.60860648  0.20743112  1  0  -0.277236  0  3.193433  0  0  -0.228331  0  3.500478  0  0  -0.237127  0  3.507353  0  0  -0.250753  -0.222347  0  3.495711  0
N  N61  1  0.90964462  0.39134751  0.29258968  1  0  -0.277364  0  3.195229  0  0  -0.227947  0  3.501992  0  0  -0.236759  0  3.508836  0  0  -0.250817  -0.221978  0  3.497056  0
N  N62  1  0.48156444  0.39139313  0.79256681  1  0  -0.277254  0  3.193319  0  0  -0.228302  0  3.500367  0  0  -0.237103  0  3.507244  0  0  -0.250736  -0.222315  0  3.495582  0
N  N63  1  0.09035250  0.60865211  0.70740910  1  0  -0.277343  0  3.195197  0  0  -0.227938  0  3.501968  0  0  -0.236752  0  3.508814  0  0  -0.250836  -0.221972  0  3.497048  0
N  N64  1  0.51624897  0.51490055  0.25454174  1  0  -0.041509  0  3.231212  0  0  -0.000851  0  3.537934  0  0  0.000392  0  3.539633  0  0  -0.141212  -0.002536  0  3.537638  0
N  N65  1  0.00131182  0.48489408  0.24536574  1  0  -0.042266  0  3.233637  0  0  -0.001833  0  3.540312  0  0  -0.000496  0  3.541944  0  0  -0.141696  -0.003396  0  3.53986  0
N  N66  1  0.48374867  0.48510010  0.74545737  1  0  -0.041506  0  3.231153  0  0  -0.000871  0  3.537873  0  0  0.00038  0  3.539553  0  0  -0.141195  -0.002557  0  3.537582  0
N  N67  1  0.99868697  0.51510658  0.75463506  1  0  -0.042298  0  3.233576  0  0  -0.00186  0  3.540245  0  0  -0.000525  0  3.541883  0  0  -0.141716  -0.003425  0  3.539796  0
N  N68  1  0.62312576  0.46248803  0.20630776  1  0  -0.067749  0  3.252103  0  0  -0.026548  0  3.573819  0  0  -0.022557  0  3.574303  0  0  -0.153422  -0.02997  0  3.574141  0
N  N69  1  0.16060210  0.53728697  0.29363933  1  0  -0.066893  0  3.251422  0  0  -0.025047  0  3.572209  0  0  -0.021187  0  3.572799  0  0  -0.153189  -0.029088  0  3.573072  0
N  N70  1  0.37687086  0.53751058  0.79369241  1  0  -0.067682  0  3.252053  0  0  -0.026474  0  3.573756  0  0  -0.022482  0  3.57424  0  0  -0.153398  -0.029901  0  3.574102  0
N  N71  1  0.83939618  0.46271266  0.70636115  1  0  -0.066849  0  3.25134  0  0  -0.024977  0  3.572109  0  0  -0.021126  0  3.572706  0  0  -0.15316  -0.029016  0  3.572949  0
N  N72  1  0.70159564  0.52509657  0.13038176  1  0  -0.250125  0  3.205406  0  0  -0.201562  0  3.515429  0  0  -0.211519  0  3.521336  0  0  -0.258091  -0.19642  0  3.512618  0
N  N73  1  0.17633398  0.47483042  0.36973589  1  0  -0.249842  0  3.205976  0  0  -0.201421  0  3.516521  0  0  -0.211436  0  3.522599  0  0  -0.258262  -0.196601  0  3.51384  0
N  N74  1  0.29840224  0.47489997  0.86961692  1  0  -0.250191  0  3.205427  0  0  -0.201624  0  3.51547  0  0  -0.211584  0  3.521382  0  0  -0.258122  -0.196482  0  3.512663  0
N  N75  1  0.82366429  0.52516920  0.63026290  1  0  -0.249833  0  3.206045  0  0  -0.201451  0  3.516629  0  0  -0.211454  0  3.522684  0  0  -0.258267  -0.196631  0  3.513947  0
N  N76  1  0.62668786  0.13187733  0.12898215  1  0  -0.422607  0  3.124199  0  0  -0.378075  0  3.455185  0  0  -0.382309  0  3.451981  0  0  -0.388917  -0.376815  0  3.457736  0
N  N77  1  0.49442090  0.86784927  0.37095245  1  0  -0.423341  0  3.124027  0  0  -0.378788  0  3.454821  0  0  -0.382984  0  3.451575  0  0  -0.389178  -0.377524  0  3.457875  0
N  N78  1  0.37331701  0.86811715  0.87101674  1  0  -0.422546  0  3.123854  0  0  -0.377998  0  3.454823  0  0  -0.382233  0  3.451629  0  0  -0.388853  -0.376747  0  3.457414  0
N  N79  1  0.50556983  0.13214214  0.62904719  1  0  -0.423083  0  3.124217  0  0  -0.378506  0  3.454963  0  0  -0.382707  0  3.451722  0  0  -0.389011  -0.377236  0  3.45797  0
