# generated using pymatgen
data_GdH8(C3O2)4
_symmetry_space_group_name_H-M   'P 1'
_cell_length_a   8.30369972
_cell_length_b   9.20927210
_cell_length_c   18.98746356
_cell_angle_alpha   90.00035661
_cell_angle_beta   89.99972677
_cell_angle_gamma   104.99824959
_symmetry_Int_Tables_number   1
_chemical_formula_structural   GdH8(C3O2)4
_chemical_formula_sum   'Gd4 H32 C48 O32'
_cell_volume   1402.52698776
_cell_formula_units_Z   4
loop_
 _symmetry_equiv_pos_site_id
 _symmetry_equiv_pos_as_xyz
  1  'x, y, z'
loop_
 _atom_site_type_symbol
 _atom_site_label
 _atom_site_symmetry_multiplicity
 _atom_site_fract_x
 _atom_site_fract_y
 _atom_site_fract_z
 _atom_site_occupancy
 _atom_site_pbe_bader_charge
 _atom_site_pbe_bader_spin_density
 _atom_site_pbe_cm5_charge
 _atom_site_pbe_ddec_charge
 _atom_site_pbe_ddec_spin_density
 _atom_site_pbe_ddec_sum_bond_order
 _atom_site_pbe_magmom
Gd  Gd0  1  0.20754848  0.47519252  0.55662776  1  2.187186  0  1.465271  2.064485  0  2.148196  0
Gd  Gd1  1  0.79245349  0.02480604  0.05662867  1  2.187198  0  1.465243  2.064513  0  2.148036  0
Gd  Gd2  1  0.79246032  0.52480521  0.44337249  1  2.187069  0  1.46528  2.06447  0  2.14819  0
Gd  Gd3  1  0.20754695  0.97519194  0.94337106  1  2.187128  0  1.465296  2.064571  0  2.148054  0
H  H4  1  0.25697620  0.23062597  0.66906627  1  0.643662  0  0.339572  0.42677  0  0.853021  0
H  H5  1  0.74300751  0.26938344  0.16906538  1  0.643704  0  0.339666  0.426817  0  0.852998  0
H  H6  1  0.74300862  0.76937588  0.33093504  1  0.643761  0  0.339575  0.426812  0  0.852967  0
H  H7  1  0.25696413  0.73059610  0.83093224  1  0.643582  0  0.339602  0.426809  0  0.853045  0
H  H8  1  0.26635672  0.16398279  0.59312395  1  0.639714  0  0.331136  0.418247  0  0.876621  0
H  H9  1  0.73362779  0.33601896  0.09312327  1  0.639548  0  0.331143  0.418196  0  0.876685  0
H  H10  1  0.73362880  0.83600996  0.40687894  1  0.639602  0  0.331128  0.418251  0  0.876629  0
H  H11  1  0.26635140  0.66397284  0.90687856  1  0.639531  0  0.331074  0.418187  0  0.876745  0
H  H12  1  0.41513438  0.62699336  0.43165162  1  0.639639  0  0.321254  0.415225  0  0.894524  0
H  H13  1  0.58486760  0.87299815  0.93165330  1  0.639992  0  0.321186  0.415069  0  0.894719  0
H  H14  1  0.58485602  0.37299585  0.56834652  1  0.639619  0  0.321206  0.415178  0  0.894595  0
H  H15  1  0.41512962  0.12700106  0.06834800  1  0.639767  0  0.321167  0.41516  0  0.894607  0
H  H16  1  0.22689594  0.64131227  0.41768368  1  0.652271  0  0.303634  0.407904  0  0.924593  0
H  H17  1  0.77310412  0.85868028  0.91767912  1  0.652407  0  0.303655  0.407858  0  0.924631  0
H  H18  1  0.77309267  0.35867132  0.58231604  1  0.652536  0  0.303619  0.40796  0  0.92451  0
H  H19  1  0.22689287  0.14132574  0.08231797  1  0.652496  0  0.303609  0.407869  0  0.924596  0
H  H20  1  0.23540206  0.92451244  0.44300449  1  0.047897  0  0.111005  0.123548  0  0.989093  0
H  H21  1  0.76459624  0.57546796  0.94301016  1  0.048096  0  0.111001  0.12353  0  0.98912  0
H  H22  1  0.76460722  0.07548302  0.55699366  1  0.048061  0  0.111009  0.123553  0  0.989125  0
H  H23  1  0.23541508  0.42453764  0.05699641  1  0.048185  0  0.11096  0.123484  0  0.989095  0
H  H24  1  0.07046562  0.99323929  0.68783684  1  0.068435  0  0.101516  0.098233  0  1.032364  0
H  H25  1  0.92952462  0.50677484  0.18784214  1  0.068467  0  0.101446  0.098185  0  1.032464  0
H  H26  1  0.92954918  0.00678096  0.31215920  1  0.068654  0  0.101503  0.098312  0  1.032473  0
H  H27  1  0.07046925  0.49321766  0.81216549  1  0.068468  0  0.10143  0.09816  0  1.032485  0
H  H28  1  0.71705643  0.68037161  0.81531927  1  0.090504  0  0.106881  0.11052  0  1.004489  0
H  H29  1  0.28293906  0.81963696  0.31532372  1  0.090225  0  0.106858  0.11049  0  1.004501  0
H  H30  1  0.28296314  0.31963716  0.18467519  1  0.089782  0  0.106809  0.110419  0  1.004545  0
H  H31  1  0.71703717  0.18037193  0.68467864  1  0.09039  0  0.106833  0.110469  0  1.004523  0
H  H32  1  0.54748146  0.58785816  0.70742022  1  0.122921  0  0.11526  0.123933  0  0.990263  0
H  H33  1  0.45251554  0.91214011  0.20742090  1  0.122922  0  0.115275  0.123937  0  0.990322  0
H  H34  1  0.45254310  0.41214365  0.29257687  1  0.123097  0  0.115299  0.123983  0  0.990237  0
H  H35  1  0.54746558  0.08786524  0.79258040  1  0.12322  0  0.115301  0.123915  0  0.990374  0
C  C36  1  0.10929027  0.74963834  0.55347093  1  1.549997  0  0.209349  0.618302  0  4.190475  0
C  C37  1  0.89071815  0.75036019  0.05346704  1  1.550412  0  0.209319  0.618207  0  4.190194  0
C  C38  1  0.89071806  0.25036169  0.44652932  1  1.549969  0  0.209343  0.618354  0  4.190442  0
C  C39  1  0.10928360  0.24963436  0.94653532  1  1.5498  0  0.209342  0.618291  0  4.190369  0
C  C40  1  0.06114803  0.88711133  0.52932578  1  -0.072062  0  -0.010363  -0.079882  0  3.973031  0
C  C41  1  0.93886141  0.61288576  0.02932085  1  -0.072024  0  -0.010365  -0.079955  0  3.97312  0
C  C42  1  0.93885373  0.11288321  0.47067183  1  -0.071998  0  -0.01038  -0.080033  0  3.972988  0
C  C43  1  0.06114667  0.38710973  0.97067993  1  -0.072017  0  -0.010431  -0.080085  0  3.973032  0
C  C44  1  0.13349069  0.95965208  0.46795058  1  0.048436  0  -0.078572  -0.139408  0  3.948368  0
C  C45  1  0.86651735  0.54034078  0.96795224  1  0.04775  0  -0.078567  -0.139284  0  3.948468  0
C  C46  1  0.86651262  0.04034355  0.53204651  1  0.047896  0  -0.078534  -0.139241  0  3.948564  0
C  C47  1  0.13349061  0.45965811  0.03205012  1  0.047941  0  -0.078548  -0.139285  0  3.948429  0
C  C48  1  0.92688667  0.92654929  0.56224823  1  0.041093  0  0.000435  0.048565  0  4.012627  0
C  C49  1  0.07312337  0.57345836  0.06225186  1  0.040739  0  0.000498  0.048733  0  4.012347  0
C  C50  1  0.07312870  0.07345393  0.43774570  1  0.040582  0  0.000377  0.048634  0  4.012389  0
C  C51  1  0.92687994  0.42653727  0.93774997  1  0.041375  0  0.00056  0.048798  0  4.012106  0
C  C52  1  0.86116965  0.85516044  0.63062330  1  -0.054029  0  0.008902  0.067422  0  3.938401  0
C  C53  1  0.13882567  0.64484498  0.13062648  1  -0.054271  0  0.008915  0.067394  0  3.938263  0
C  C54  1  0.13884489  0.14484394  0.36937642  1  -0.053909  0  0.008902  0.067378  0  3.938195  0
C  C55  1  0.86116343  0.35514766  0.86937693  1  -0.054281  0  0.00886  0.067224  0  3.938468  0
C  C56  1  0.95403955  0.90563801  0.69139970  1  0.018029  0  -0.076493  -0.13072  0  3.926216  0
C  C57  1  0.04594754  0.59436265  0.19140134  1  0.018054  0  -0.076389  -0.130556  0  3.92612  0
C  C58  1  0.04596605  0.09437230  0.30859950  1  0.01785  0  -0.076424  -0.130693  0  3.926222  0
C  C59  1  0.95404455  0.40563558  0.80859680  1  0.018036  0  -0.076381  -0.130438  0  3.925964  0
C  C60  1  0.90329948  0.84389127  0.75753593  1  -0.073855  0  -0.013471  -0.016738  0  3.982463  0
C  C61  1  0.09670538  0.65611073  0.25753712  1  -0.074163  0  -0.013494  -0.01682  0  3.982608  0
C  C62  1  0.09671102  0.15612684  0.24246274  1  -0.074231  0  -0.013458  -0.01682  0  3.982741  0
C  C63  1  0.90328767  0.34389428  0.74246155  1  -0.073863  0  -0.013537  -0.016962  0  3.982696  0
C  C64  1  0.75506329  0.73011430  0.76393593  1  -0.0266  0  -0.081587  -0.096211  0  3.978328  0
C  C65  1  0.24494033  0.76988780  0.26393925  1  -0.025824  0  -0.081602  -0.096249  0  3.978519  0
C  C66  1  0.24495927  0.26990005  0.23605958  1  -0.025323  0  -0.081616  -0.096218  0  3.978422  0
C  C67  1  0.75504340  0.23011067  0.73606310  1  -0.026213  0  -0.081587  -0.096223  0  3.978566  0
C  C68  1  0.66144492  0.67852219  0.70424341  1  -0.073526  0  -0.074223  -0.07732  0  3.955753  0
C  C69  1  0.33855867  0.82148153  0.20424774  1  -0.073872  0  -0.074269  -0.077277  0  3.955826  0
C  C70  1  0.33858347  0.32148405  0.29575105  1  -0.074014  0  -0.074388  -0.077467  0  3.955733  0
C  C71  1  0.66143091  0.17852017  0.79575303  1  -0.07433  0  -0.074319  -0.077317  0  3.955838  0
C  C72  1  0.71389733  0.73815491  0.63754838  1  0.053382  0  -0.000983  -0.067726  0  3.885179  0
C  C73  1  0.28610366  0.76184588  0.13755107  1  0.053613  0  -0.000976  -0.067715  0  3.88498  0
C  C74  1  0.28612879  0.26184799  0.36244871  1  0.05324  0  -0.000841  -0.067478  0  3.884892  0
C  C75  1  0.71389811  0.23816000  0.86245023  1  0.053532  0  -0.000796  -0.067386  0  3.885171  0
C  C76  1  0.61752975  0.66178893  0.57532626  1  1.598352  0  0.242961  0.657993  0  4.148493  0
C  C77  1  0.38247099  0.83820892  0.07532845  1  1.597832  0  0.242705  0.657584  0  4.148735  0
C  C78  1  0.38248430  0.33820639  0.42466820  1  1.598001  0  0.242832  0.657704  0  4.148492  0
C  C79  1  0.61752313  0.16178811  0.92467233  1  1.598118  0  0.242808  0.657615  0  4.148805  0
C  C80  1  0.00953824  0.89464333  0.82057855  1  1.540397  0  0.197173  0.568418  0  4.226281  0
C  C81  1  0.99044836  0.60535648  0.32057769  1  1.540673  0  0.197173  0.568393  0  4.226512  0
C  C82  1  0.99046152  0.10537508  0.17942381  1  1.540644  0  0.197116  0.56828  0  4.226862  0
C  C83  1  0.00954062  0.39463957  0.67942150  1  1.540495  0  0.197142  0.56839  0  4.226264  0
O  O84  1  0.28620090  0.25698650  0.62022826  1  -1.246048  0  -0.58335  -0.797537  0  2.03952  0
O  O85  1  0.71378318  0.24302235  0.12022841  1  -1.24595  0  -0.58346  -0.797528  0  2.03948  0
O  O86  1  0.71379322  0.74301053  0.37977304  1  -1.246037  0  -0.583337  -0.797588  0  2.039432  0
O  O87  1  0.28615625  0.75696947  0.87977184  1  -1.24577  0  -0.583316  -0.797565  0  2.039541  0
O  O88  1  0.31021509  0.63052686  0.45390958  1  -1.27199  0  -0.62601  -0.839727  0  2.070718  0
O  O89  1  0.68978983  0.86946708  0.95390839  1  -1.272563  0  -0.625996  -0.839543  0  2.070857  0
O  O90  1  0.68978440  0.36947569  0.54609067  1  -1.272255  0  -0.625961  -0.839752  0  2.070644  0
O  O91  1  0.31020594  0.13051630  0.04609186  1  -1.272346  0  -0.625893  -0.839641  0  2.070747  0
O  O92  1  0.00785085  0.62284145  0.53477325  1  -1.195975  0  -0.430286  -0.730305  0  2.371982  0
O  O93  1  0.99215510  0.87716374  0.03476794  1  -1.196048  0  -0.430412  -0.730397  0  2.371904  0
O  O94  1  0.99214816  0.37715204  0.46523174  1  -1.195932  0  -0.430313  -0.730329  0  2.372169  0
O  O95  1  0.00785442  0.12283624  0.96523231  1  -1.196087  0  -0.430329  -0.73032  0  2.372076  0
O  O96  1  0.24025467  0.75242254  0.58677330  1  -1.154519  0  -0.338578  -0.569352  0  2.118973  0
O  O97  1  0.75975373  0.74756954  0.08677178  1  -1.154703  0  -0.338475  -0.569238  0  2.118807  0
O  O98  1  0.75974972  0.24757646  0.41322485  1  -1.154422  0  -0.338558  -0.569379  0  2.118846  0
O  O99  1  0.24025937  0.25243034  0.91323321  1  -1.154156  0  -0.338515  -0.569293  0  2.118756  0
O  O100  1  0.15539314  0.98105902  0.81467357  1  -1.172345  0  -0.363343  -0.603383  0  2.139802  0
O  O101  1  0.84460175  0.51894389  0.31466750  1  -1.172485  0  -0.363365  -0.603361  0  2.139966  0
O  O102  1  0.84461043  0.01895248  0.18533458  1  -1.172356  0  -0.363243  -0.60328  0  2.139861  0
O  O103  1  0.15539415  0.48104742  0.68533064  1  -1.172283  0  -0.363304  -0.603287  0  2.139884  0
O  O104  1  0.95236788  0.84450824  0.88161511  1  -1.197498  0  -0.375778  -0.662746  0  2.328309  0
O  O105  1  0.04761301  0.65549468  0.38161641  1  -1.197581  0  -0.375724  -0.662723  0  2.328351  0
O  O106  1  0.04761158  0.15551077  0.11838777  1  -1.197605  0  -0.375772  -0.662665  0  2.328543  0
O  O107  1  0.95238027  0.34450351  0.61838068  1  -1.197731  0  -0.375757  -0.662778  0  2.328111  0
O  O108  1  0.68139542  0.68570353  0.51421538  1  -1.195654  0  -0.390011  -0.659919  0  2.334623  0
O  O109  1  0.31860566  0.81429704  0.01422027  1  -1.195537  0  -0.389875  -0.659723  0  2.334716  0
O  O110  1  0.31859869  0.31429350  0.48577644  1  -1.195447  0  -0.389929  -0.659817  0  2.33445  0
O  O111  1  0.68138669  0.18571705  0.98578209  1  -1.195619  0  -0.389897  -0.659771  0  2.334662  0
O  O112  1  0.47898387  0.56779978  0.58813314  1  -1.207301  0  -0.411314  -0.678661  0  2.375041  0
O  O113  1  0.52102608  0.93219340  0.08813900  1  -1.206974  0  -0.411205  -0.678513  0  2.374909  0
O  O114  1  0.52103435  0.43218974  0.41186659  1  -1.207268  0  -0.411252  -0.678483  0  2.374931  0
O  O115  1  0.47898390  0.06779296  0.91186336  1  -1.207082  0  -0.411265  -0.678589  0  2.375042  0
