# generated using pymatgen
data_CuH30C30(NO)6
_symmetry_space_group_name_H-M   'P 1'
_cell_length_a   6.89577555
_cell_length_b   7.81408337
_cell_length_c   15.60621440
_cell_angle_alpha   79.36348262
_cell_angle_beta   77.90316976
_cell_angle_gamma   68.57091254
_symmetry_Int_Tables_number   1
_chemical_formula_structural   CuH30C30(NO)6
_chemical_formula_sum   'Cu1 H30 C30 N6 O6'
_cell_volume   760.00418102
_cell_formula_units_Z   1
loop_
 _symmetry_equiv_pos_site_id
 _symmetry_equiv_pos_as_xyz
  1  'x, y, z'
loop_
 _atom_site_type_symbol
 _atom_site_label
 _atom_site_symmetry_multiplicity
 _atom_site_fract_x
 _atom_site_fract_y
 _atom_site_fract_z
 _atom_site_occupancy
 _atom_site_hle17_ddec_charge
 _atom_site_hle17_ddec_spin_density
 _atom_site_hle17_ddec_sum_bond_order
 _atom_site_hle17_magmom
 _atom_site_hse06_10hf_ddec_charge
 _atom_site_hse06_10hf_ddec_spin_density
 _atom_site_hse06_10hf_ddec_sum_bond_order
 _atom_site_hse06_10hf_magmom
 _atom_site_hse06_ddec_charge
 _atom_site_hse06_ddec_spin_density
 _atom_site_hse06_ddec_sum_bond_order
 _atom_site_hse06_magmom
 _atom_site_pbe_cm5_charge
 _atom_site_pbe_ddec_charge
 _atom_site_pbe_ddec_spin_density
 _atom_site_pbe_ddec_sum_bond_order
 _atom_site_pbe_magmom
Cu  Cu0  1  0.49999903  0.50000368  0.49999831  1  0.878596  0.685704  1.746752  0.501  0.860905  0.768923  2.119542  0.61  0.946017  0.8343  2.057142  0.693  0.760809  0.810674  0.72469  2.161415  0.558
H  H1  1  0.50823943  0.41400722  0.32581822  1  0.085124  0.000734  0.967  0.002  0.089965  0.000701  1.036916  0.001  0.09245  0.000504  1.033494  0.001  0.11634  0.087886  0.000862  1.039654  0.001
H  H2  1  0.49176214  0.58599878  0.67417885  1  0.085189  0.000734  0.966974  0.002  0.090018  0.000701  1.036884  0.001  0.092503  0.000505  1.033466  0.001  0.116383  0.08794  0.000862  1.039621  0.001
H  H3  1  0.76448087  0.35646123  0.18600293  1  0.112967  0.000402  0.976867  0.0  0.121587  0.000386  1.038755  0.0  0.123738  0.000288  1.040693  0.0  0.105831  0.119992  0.000467  1.037642  0.0
H  H4  1  0.23552857  0.64353233  0.81399390  1  0.113018  0.000405  0.976898  0.0  0.121646  0.000386  1.038772  0.0  0.123812  0.000288  1.040697  0.0  0.105841  0.120031  0.000467  1.037677  0.0
H  H5  1  0.20286684  0.46253277  0.31425601  1  0.127539  0.000461  0.954737  0.0  0.138005  0.00045  1.012943  0.0  0.141628  0.000325  1.011272  0.0  0.114718  0.135312  0.000569  1.014416  0.0
H  H6  1  0.79714128  0.53745661  0.68574454  1  0.127469  0.000462  0.954668  0.0  0.137892  0.00045  1.012938  0.0  0.141514  0.000325  1.011271  0.0  0.114649  0.135198  0.000569  1.014411  0.0
H  H7  1  0.92657494  0.52095286  0.44504681  1  0.103423  0.000869  0.950867  0.002  0.109757  0.000775  1.016157  0.001  0.112361  0.000556  1.012541  0.001  0.125363  0.107565  0.000956  1.01903  0.002
H  H8  1  0.07343739  0.47902961  0.55495078  1  0.103489  0.000868  0.950852  0.002  0.109807  0.000775  1.016158  0.001  0.112408  0.000556  1.012547  0.001  0.125351  0.107615  0.000957  1.019027  0.002
H  H9  1  0.31567594  0.11168929  0.29894219  1  0.119282  -1e-06  0.989669  0.0  0.127487  -1.6e-05  1.053213  0.0  0.130908  -7e-06  1.052842  0.0  0.10795  0.124975  -2.1e-05  1.053742  0.0
H  H10  1  0.68433007  0.88831674  0.70105574  1  0.119279  1e-06  0.989552  0.0  0.127483  -1.6e-05  1.053111  0.0  0.130903  -7e-06  1.052743  0.0  0.107955  0.12496  -2.1e-05  1.053658  0.0
H  H11  1  0.67847910  0.90059620  0.29361081  1  0.076906  -3.8e-05  0.933698  0.0  0.087068  -2.9e-05  0.99323  0.0  0.089082  -2.7e-05  0.992025  0.0  0.113097  0.085498  -3e-05  0.994235  0.0
H  H12  1  0.32152372  0.09940287  0.70638741  1  0.076834  -4.1e-05  0.933689  0.0  0.087064  -2.9e-05  0.99317  0.0  0.089081  -2.7e-05  0.991962  0.0  0.113111  0.085494  -3e-05  0.994176  0.0
H  H13  1  0.85034754  0.11536827  0.03752042  1  0.061985  -4e-06  0.952778  0.0  0.072023  2e-06  1.016413  0.0  0.074017  0.0  1.014712  0.0  0.104166  0.070567  1e-06  1.017661  0.0
H  H14  1  0.14964991  0.88462936  0.96248228  1  0.06197  -2e-06  0.952726  0.0  0.072022  2e-06  1.01634  0.0  0.074013  0.0  1.01465  0.0  0.104166  0.070567  1e-06  1.017587  0.0
H  H15  1  0.49203429  0.33847063  0.03060544  1  0.11082  4e-06  0.962131  0.0  0.121941  -1e-06  1.019609  0.0  0.125488  -2e-06  1.018801  0.0  0.104006  0.119425  -1e-06  1.020316  0.0
H  H16  1  0.50797194  0.66154233  0.96939697  1  0.110823  6e-06  0.962198  0.0  0.121951  -1e-06  1.019659  0.0  0.125498  -2e-06  1.018849  0.0  0.104005  0.119418  -1e-06  1.020393  0.0
H  H17  1  0.21764931  0.16781652  0.02666607  1  0.104699  2e-06  0.942908  0.0  0.116334  -1e-06  0.999934  0.0  0.118941  -1e-06  0.99932  0.0  0.107688  0.114445  -3e-06  1.000497  0.0
H  H18  1  0.78234697  0.83217278  0.97333558  1  0.104732  2e-06  0.942821  0.0  0.116351  -1e-06  0.99988  0.0  0.118957  -1e-06  0.999264  0.0  0.107695  0.11446  -3e-06  1.000439  0.0
H  H19  1  0.92849366  0.71157857  0.11309406  1  0.112096  -1.8e-05  0.98843  0.0  0.113386  -1.5e-05  1.062007  0.0  0.1176  -1.5e-05  1.059046  0.0  0.101756  0.110313  -1.5e-05  1.064217  0.0
H  H20  1  0.07150651  0.28841215  0.88690582  1  0.112171  -1.8e-05  0.988459  0.0  0.113437  -1.5e-05  1.062064  0.0  0.117632  -1.5e-05  1.059124  0.0  0.101787  0.110364  -1.5e-05  1.064275  0.0
H  H21  1  0.04509215  0.92776860  0.61931337  1  0.131289  0.0012  0.961964  0.002  0.146367  0.001045  1.026195  0.001  0.14698  0.000693  1.028578  0.001  0.09053  0.145908  0.001338  1.024569  0.002
H  H22  1  0.95488886  0.07223309  0.38069175  1  0.131326  0.0012  0.96215  0.002  0.146366  0.001045  1.026377  0.001  0.146983  0.000693  1.028757  0.001  0.090548  0.14591  0.001338  1.024751  0.002
H  H23  1  0.93420429  0.08606035  0.70018362  1  0.134768  -0.000785  0.938137  -0.001  0.149791  -0.000337  1.00348  0.0  0.152645  -0.000302  1.001995  0.0  0.094108  0.147872  -0.000357  1.004408  0.0
H  H24  1  0.06577415  0.91394410  0.29982276  1  0.134772  -0.000782  0.938089  -0.001  0.149736  -0.000337  1.003483  0.0  0.152594  -0.000302  1.001995  0.0  0.094046  0.147817  -0.000356  1.004415  0.0
H  H25  1  0.09905013  0.13958950  0.60290183  1  0.136992  -0.000631  0.959801  -0.001  0.153876  -0.000131  1.023932  0.0  0.156491  -0.000117  1.022282  0.0  0.095866  0.151874  -0.000137  1.025267  0.0
H  H26  1  0.90092644  0.86041216  0.39710627  1  0.136977  -0.000632  0.959726  -0.001  0.153868  -0.000132  1.023829  0.0  0.156483  -0.000117  1.022183  0.0  0.095848  0.15186  -0.000137  1.025169  0.0
H  H27  1  0.48119947  0.17157482  0.50290868  1  0.390395  -0.000258  0.93126  0.0  0.355416  -0.000272  1.005344  0.0  0.366712  -0.00029  0.988352  0.0  0.26821  0.347296  -0.000232  1.017561  0.0
H  H28  1  0.51877811  0.82843936  0.49708857  1  0.390339  -0.000258  0.931335  0.0  0.355384  -0.000272  1.005379  0.0  0.366683  -0.00029  0.988384  0.0  0.268203  0.347263  -0.000232  1.017597  0.0
H  H29  1  0.32209606  0.14139870  0.45333615  1  0.41441  -3.9e-05  0.889513  0.0  0.390684  -7e-05  0.942988  0.0  0.401879  -6.4e-05  0.926615  0.0  0.279641  0.383018  -6.5e-05  0.954185  0.0
H  H30  1  0.67788947  0.85861414  0.54666048  1  0.414157  -4e-05  0.889824  0.0  0.390414  -7e-05  0.943327  0.0  0.40161  -6.4e-05  0.926955  0.0  0.279515  0.382746  -6.6e-05  0.954524  0.0
C  C31  1  0.66280797  0.42669392  0.31850296  1  0.137594  -0.009456  3.717936  -0.006  0.110187  -0.002299  3.970658  -0.001  0.120807  -0.003842  3.987341  -0.003  0.04623  0.10341  -0.0011  3.959921  -0.001
C  C32  1  0.33720170  0.57330658  0.68149258  1  0.137615  -0.00945  3.717855  -0.006  0.110224  -0.002302  3.970567  -0.001  0.120836  -0.00384  3.987253  -0.003  0.046245  0.103444  -0.001101  3.959824  -0.001
C  C33  1  0.80659985  0.39335285  0.24173257  1  -0.204495  0.00815  3.716876  0.009  -0.220817  0.003484  3.961989  0.004  -0.230694  0.003252  3.982432  0.004  -0.088783  -0.214472  0.003595  3.9484  0.004
C  C34  1  0.19339969  0.60665452  0.75826583  1  -0.204498  0.008141  3.716839  0.009  -0.220873  0.003486  3.961929  0.004  -0.230764  0.003252  3.982358  0.004  -0.088759  -0.214515  0.003596  3.94834  0.004
C  C35  1  0.00833314  0.40122547  0.23833050  1  0.245043  -0.010329  3.768665  -0.007  0.233696  -0.004055  4.016571  -0.002  0.247361  -0.004613  4.033802  -0.003  0.115698  0.224553  -0.003562  4.004747  -0.002
C  C36  1  0.99167389  0.59876668  0.76166861  1  0.244827  -0.010321  3.769019  -0.007  0.233571  -0.004058  4.016811  -0.002  0.247235  -0.00461  4.034042  -0.003  0.115654  0.224431  -0.003562  4.004968  -0.002
C  C37  1  0.05268292  0.44856223  0.31258014  1  -0.190499  0.008449  3.675767  0.009  -0.206627  0.003629  3.921558  0.004  -0.216095  0.003355  3.939496  0.004  -0.079656  -0.200605  0.003771  3.909823  0.004
C  C38  1  0.94732636  0.55143549  0.68741889  1  -0.190189  0.008439  3.675795  0.009  -0.206316  0.003629  3.921523  0.004  -0.21578  0.003354  3.939458  0.004  -0.079517  -0.200291  0.003771  3.909772  0.004
C  C39  1  0.89918632  0.48111526  0.38675789  1  0.156236  -0.009989  3.666622  -0.007  0.127404  -0.002544  3.919021  -0.002  0.138662  -0.004073  3.935254  -0.003  0.055972  0.120148  -0.001359  3.908721  -0.001
C  C40  1  0.10082546  0.51886860  0.61324154  1  0.155936  -0.009979  3.666862  -0.007  0.127133  -0.002546  3.919182  -0.002  0.138388  -0.00407  3.935417  -0.003  0.055888  0.119878  -0.001359  3.908874  -0.001
C  C41  1  0.36696769  0.24595126  0.16424575  1  0.245681  2.4e-05  3.789557  0.0  0.232005  -3.1e-05  4.040278  0.0  0.245318  -1.5e-05  4.058776  0.0  0.109924  0.223229  -3.4e-05  4.027438  0.0
C  C42  1  0.63304641  0.75404926  0.83575257  1  0.245642  1.8e-05  3.789777  0.0  0.232006  -3.2e-05  4.040443  0.0  0.245321  -1.6e-05  4.058938  0.0  0.109883  0.223228  -3.4e-05  4.027591  0.0
C  C43  1  0.42689254  0.12018499  0.23894818  1  -0.225984  -0.000568  3.710815  0.0  -0.241747  -0.00023  3.957005  0.0  -0.252149  -0.00027  3.978025  0.0  -0.097987  -0.235072  -0.000188  3.943129  0.0
C  C44  1  0.57311690  0.87980856  0.76105442  1  -0.226026  -0.000565  3.710669  0.0  -0.241818  -0.00023  3.956881  0.0  -0.252221  -0.000269  3.977896  0.0  -0.097987  -0.235142  -0.000188  3.942988  0.0
C  C45  1  0.63408328  0.99974810  0.23579194  1  0.138933  0.000205  3.745092  0.0  0.116657  6.3e-05  4.00039  0.0  0.124232  7.4e-05  4.01736  0.0  0.041546  0.111808  5.6e-05  3.988854  0.0
C  C46  1  0.36591510  0.00025094  0.76420862  1  0.139113  0.000205  3.744977  0.0  0.116771  6.3e-05  4.000294  0.0  0.124349  7.3e-05  4.017255  0.0  0.041592  0.111921  5.6e-05  3.988749  0.0
C  C47  1  0.72778752  0.11698112  0.09478706  1  0.114721  0.000173  3.803324  0.0  0.090628  3.8e-05  4.066661  0.0  0.098143  4.9e-05  4.083231  0.0  0.028186  0.085818  2.6e-05  4.055279  0.0
C  C48  1  0.27222176  0.88301660  0.90521390  1  0.114717  0.000168  3.803289  0.0  0.090616  3.7e-05  4.066639  0.0  0.098128  4.9e-05  4.083211  0.0  0.028144  0.085808  2.6e-05  4.055252  0.0
C  C49  1  0.52589554  0.24433932  0.09067677  1  -0.240508  -0.000502  3.749772  0.0  -0.256271  -0.000197  3.999783  0.0  -0.265723  -0.000234  4.019287  0.0  -0.105665  -0.250077  -0.000145  3.9866  0.0
C  C50  1  0.47411007  0.75566392  0.90932401  1  -0.24051  -0.000499  3.749808  0.0  -0.256281  -0.000196  3.99978  0.0  -0.265732  -0.000233  4.019284  0.0  -0.10564  -0.250077  -0.000145  3.986613  0.0
C  C51  1  0.08256336  0.43137833  0.07883633  1  0.174926  -0.000156  3.796362  0.0  0.168253  -8.9e-05  4.045756  0.0  0.174186  -8.9e-05  4.068041  0.0  0.086406  0.16418  -7.8e-05  4.030501  0.0
C  C52  1  0.91745177  0.56860832  0.92116382  1  0.174664  -0.000161  3.796582  0.0  0.168238  -9e-05  4.04565  0.0  0.174173  -8.9e-05  4.067927  0.0  0.086504  0.164167  -7.9e-05  4.030385  0.0
C  C53  1  0.12373242  0.31375450  0.01457754  1  -0.135884  -0.000172  3.761295  0.0  -0.155935  -9.7e-05  4.013704  0.0  -0.159001  -9.4e-05  4.034268  0.0  -0.089891  -0.15375  -0.0001  3.999664  0.0
C  C54  1  0.87627554  0.68623905  0.98542072  1  -0.135889  -0.00017  3.76147  0.0  -0.156014  -9.6e-05  4.013836  0.0  -0.159081  -9.4e-05  4.034404  0.0  -0.089959  -0.153821  -0.0001  3.999782  0.0
C  C55  1  0.95834963  0.61815308  0.06393633  1  -0.141335  -0.000166  3.744286  0.0  -0.158982  -0.0001  3.994968  0.0  -0.162547  -0.000102  4.015021  0.0  -0.092703  -0.156395  -9.3e-05  3.981324  0.0
C  C56  1  0.04166589  0.38183635  0.93605840  1  -0.141377  -0.000161  3.744464  0.0  -0.159087  -9.9e-05  3.995085  0.0  -0.162637  -0.000103  4.015148  0.0  -0.092795  -0.1565  -9.3e-05  3.981443  0.0
C  C57  1  0.78752419  0.17116232  0.58330550  1  0.7465  -0.007859  3.818478  -0.008  0.709466  -0.001911  4.11774  -0.003  0.746779  -0.002515  4.109853  -0.003  0.212876  0.684233  -0.001312  4.122076  -0.003
C  C58  1  0.21246165  0.82884218  0.41669892  1  0.746452  -0.007858  3.818362  -0.008  0.709436  -0.001909  4.117596  -0.003  0.74675  -0.002514  4.10971  -0.003  0.212742  0.684202  -0.001312  4.121935  -0.003
C  C59  1  0.97889274  0.07434523  0.62901672  1  -0.455531  0.01025  3.651458  0.011  -0.530143  0.006229  3.887227  0.007  -0.538135  0.004273  3.891125  0.005  -0.251975  -0.52431  0.007775  3.884141  0.008
C  C60  1  0.02108406  0.92566337  0.37098879  1  -0.455523  0.010247  3.651442  0.011  -0.530039  0.006228  3.88715  0.007  -0.538023  0.004273  3.891009  0.005  -0.251856  -0.524193  0.007775  3.884066  0.008
N  N61  1  0.70777660  0.46900977  0.39020131  1  -0.313279  0.071406  3.344646  0.092  -0.264456  0.049948  3.636835  0.068  -0.294222  0.041637  3.656496  0.061  -0.35728  -0.247059  0.054421  3.625615  0.071
N  N62  1  0.29222699  0.53099485  0.60979825  1  -0.313244  0.07141  3.344968  0.092  -0.26442  0.04995  3.637113  0.068  -0.294174  0.041636  3.656761  0.061  -0.357292  -0.247023  0.054426  3.625887  0.071
N  N63  1  0.15858944  0.36337033  0.16120036  1  -0.234992  -0.000938  3.439391  0.0  -0.15651  -0.000601  3.657992  0.0  -0.177264  -0.000684  3.678027  0.0  -0.244073  -0.142093  -0.000547  3.643715  0.0
N  N64  1  0.84141377  0.63663152  0.83879565  1  -0.234878  -0.000934  3.439455  0.0  -0.156513  -0.000601  3.657971  0.0  -0.177268  -0.000683  3.678005  0.0  -0.24416  -0.142093  -0.000547  3.643676  0.0
N  N65  1  0.78614023  0.99390052  0.16530887  1  -0.34996  -0.000522  3.081977  0.0  -0.31672  -0.000234  3.354189  0.0  -0.328138  -0.000265  3.366348  0.0  -0.343176  -0.308989  -0.000194  3.345761  0.0
N  N66  1  0.21386758  0.00609719  0.83468902  1  -0.350023  -0.000521  3.082064  0.0  -0.316793  -0.000233  3.354324  0.0  -0.328208  -0.000265  3.366477  0.0  -0.343207  -0.309062  -0.000193  3.345892  0.0
O  O67  1  0.73274508  0.34879514  0.56916655  1  -0.610072  0.098611  2.041228  0.134  -0.58393  0.064029  2.32341  0.096  -0.628937  0.048392  2.318679  0.078  -0.322576  -0.553882  0.074455  2.326244  0.105
O  O68  1  0.26726132  0.65121367  0.43082852  1  -0.610056  0.098586  2.041254  0.134  -0.583894  0.064014  2.323395  0.096  -0.628899  0.048383  2.31867  0.078  -0.322531  -0.553848  0.074438  2.326227  0.105
O  O69  1  0.69154368  0.07823677  0.56262557  1  -0.657322  -0.000287  1.99573  0.002  -0.593749  -0.000622  2.2132  0.001  -0.622101  -0.001436  2.202387  0.0  -0.312987  -0.574178  8.9e-05  2.220173  0.002
O  O70  1  0.30842704  0.92177594  0.43738975  1  -0.657312  -0.000283  1.99555  0.002  -0.593844  -0.00062  2.213096  0.001  -0.622196  -0.001436  2.202281  0.0  -0.312979  -0.574274  8.9e-05  2.220073  0.002
O  O71  1  0.36154220  0.23860204  0.46974473  1  -0.861667  -0.001071  1.791893  0.0  -0.826418  -0.001351  1.969078  0.0  -0.844296  -0.001491  1.934497  0.0  -0.61969  -0.813649  -0.001147  1.993316  0.0
O  O72  1  0.63846178  0.76140539  0.53024173  1  -0.861381  -0.001069  1.792183  0.0  -0.826123  -0.001351  1.969352  0.0  -0.843994  -0.00149  1.934753  0.0  -0.619549  -0.813351  -0.001146  1.993585  0.0
