# generated using pymatgen
data_Zn2H36C35(NO3)4
_symmetry_space_group_name_H-M   'P 1'
_cell_length_a   7.85054217
_cell_length_b   16.72748032
_cell_length_c   18.38599588
_cell_angle_alpha   90.00013166
_cell_angle_beta   90.00015038
_cell_angle_gamma   90.00019088
_symmetry_Int_Tables_number   1
_chemical_formula_structural   Zn2H36C35(NO3)4
_chemical_formula_sum   'Zn4 H72 C70 N8 O24'
_cell_volume   2414.44510968
_cell_formula_units_Z   2
loop_
 _symmetry_equiv_pos_site_id
 _symmetry_equiv_pos_as_xyz
  1  'x, y, z'
loop_
 _atom_site_type_symbol
 _atom_site_label
 _atom_site_symmetry_multiplicity
 _atom_site_fract_x
 _atom_site_fract_y
 _atom_site_fract_z
 _atom_site_occupancy
 _atom_site_pbe_bader_charge
 _atom_site_pbe_bader_spin_density
 _atom_site_pbe_cm5_charge
 _atom_site_pbe_ddec_charge
 _atom_site_pbe_ddec_spin_density
 _atom_site_pbe_ddec_sum_bond_order
 _atom_site_pbe_magmom
Zn  Zn0  1  0.70555416  0.17221930  0.74274305  1  1.259976  0  0.66261  0.741095  0  2.371301  0
Zn  Zn1  1  0.70554991  0.82777827  0.25725357  1  1.260279  0  0.662634  0.741054  0  2.371385  0
Zn  Zn2  1  0.29444654  0.32777614  0.24274667  1  1.2605  0  0.66262  0.741043  0  2.371293  0
Zn  Zn3  1  0.29444807  0.67222019  0.75725275  1  1.260318  0  0.66261  0.741028  0  2.371386  0
H  H4  1  0.30966143  0.14918979  0.24538872  1  0.127487  0  0.120508  0.090654  0  0.998743  0
H  H5  1  0.30966421  0.85080298  0.75460908  1  0.127447  0  0.1205  0.090629  0  0.998794  0
H  H6  1  0.69033675  0.35080268  0.74539415  1  0.127351  0  0.120462  0.090589  0  0.998791  0
H  H7  1  0.69034012  0.64919248  0.25461169  1  0.127505  0  0.120497  0.090637  0  0.998756  0
H  H8  1  0.46727670  0.03817670  0.18183761  1  0.137632  0  0.111753  0.13197  0  1.023095  0
H  H9  1  0.46727047  0.96181931  0.81816309  1  0.13771  0  0.111717  0.131878  0  1.02318  0
H  H10  1  0.53271471  0.46181919  0.68184745  1  0.137643  0  0.11178  0.131947  0  1.023045  0
H  H11  1  0.53272915  0.53817871  0.31816584  1  0.137975  0  0.111737  0.131887  0  1.023191  0
H  H12  1  0.69137482  0.21888233  0.04297028  1  0.094328  0  0.118028  0.137561  0  0.995213  0
H  H13  1  0.69137962  0.78111641  0.95703013  1  0.094279  0  0.118047  0.137631  0  0.995193  0
H  H14  1  0.30861702  0.28111858  0.54297241  1  0.094302  0  0.118002  0.137532  0  0.995211  0
H  H15  1  0.30862341  0.71888554  0.45702974  1  0.094287  0  0.118057  0.13765  0  0.995221  0
H  H16  1  0.52451685  0.32022332  0.11120374  1  0.125733  0  0.127641  0.103616  0  0.969144  0
H  H17  1  0.52452306  0.67977337  0.88879648  1  0.12564  0  0.127699  0.10367  0  0.969104  0
H  H18  1  0.47548560  0.17977598  0.61119878  1  0.125663  0  0.127694  0.103685  0  0.969088  0
H  H19  1  0.47548082  0.82022721  0.38879540  1  0.125615  0  0.127688  0.103685  0  0.969154  0
H  H20  1  0.59909844  0.21239881  0.89719047  1  0.107671  0  0.118953  0.095843  0  0.995685  0
H  H21  1  0.59909040  0.78759441  0.10280657  1  0.107464  0  0.118952  0.095861  0  0.99564  0
H  H22  1  0.40089939  0.28760002  0.39719087  1  0.107659  0  0.118937  0.09586  0  0.995618  0
H  H23  1  0.40090026  0.71240126  0.60280650  1  0.107614  0  0.118958  0.095887  0  0.995596  0
H  H24  1  0.36535039  0.17438763  0.98500441  1  0.107679  0  0.108532  0.127976  0  1.016437  0
H  H25  1  0.36534845  0.82560821  0.01499182  1  0.107713  0  0.108585  0.12797  0  1.016389  0
H  H26  1  0.63464544  0.32561381  0.48500624  1  0.107616  0  0.108535  0.127973  0  1.016494  0
H  H27  1  0.63464167  0.67438903  0.51499084  1  0.107538  0  0.108539  0.127911  0  1.01643  0
H  H28  1  0.11871548  0.05108173  0.80635078  1  0.166733  0  0.117166  0.149837  0  1.021757  0
H  H29  1  0.11872698  0.94891970  0.19364572  1  0.166856  0  0.117192  0.149818  0  1.021824  0
H  H30  1  0.88127670  0.44891926  0.30635478  1  0.166816  0  0.117173  0.149783  0  1.02185  0
H  H31  1  0.88127061  0.55107799  0.69364258  1  0.166857  0  0.117202  0.149802  0  1.021874  0
H  H32  1  0.36431243  0.09132698  0.72883762  1  0.112658  0  0.122731  0.094108  0  0.978347  0
H  H33  1  0.36432539  0.90867305  0.27115644  1  0.112193  0  0.122764  0.094158  0  0.978453  0
H  H34  1  0.63568436  0.40867381  0.22884071  1  0.112199  0  0.122742  0.094096  0  0.978439  0
H  H35  1  0.63567776  0.59132425  0.77115474  1  0.112267  0  0.122761  0.094137  0  0.978479  0
H  H36  1  0.07488006  0.96608755  0.91724589  1  0.062552  0  0.108834  0.083427  0  0.980274  0
H  H37  1  0.07488183  0.03391262  0.08275491  1  0.062544  0  0.108856  0.083457  0  0.980241  0
H  H38  1  0.92512654  0.53391131  0.41724418  1  0.06208  0  0.108846  0.083468  0  0.98014  0
H  H39  1  0.92512554  0.46608720  0.58275540  1  0.062194  0  0.108882  0.083515  0  0.980165  0
H  H40  1  0.91897633  0.03664753  0.88686086  1  0.136779  0  0.113591  0.105769  0  1.017231  0
H  H41  1  0.91897597  0.96335217  0.11313871  1  0.136802  0  0.113607  0.105807  0  1.017262  0
H  H42  1  0.08103036  0.46334888  0.38686181  1  0.134632  0  0.113569  0.105728  0  1.017279  0
H  H43  1  0.08102240  0.53665310  0.61313791  1  0.136757  0  0.113562  0.105767  0  1.017262  0
H  H44  1  0.86821318  0.12418559  0.02917989  1  0.07405  0  0.113192  0.086179  0  0.981693  0
H  H45  1  0.86821874  0.87581642  0.97081691  1  0.074078  0  0.113191  0.08621  0  0.981663  0
H  H46  1  0.13178367  0.37581530  0.52918148  1  0.074089  0  0.113195  0.08619  0  0.981661  0
H  H47  1  0.13178692  0.62418437  0.47081884  1  0.074089  0  0.113197  0.086193  0  0.981684  0
H  H48  1  0.70728820  0.09016539  0.96722087  1  0.111497  0  0.108147  0.079969  0  1.007936  0
H  H49  1  0.70729588  0.90983218  0.03277846  1  0.111457  0  0.108226  0.079984  0  1.007945  0
H  H50  1  0.29272025  0.40983421  0.46722739  1  0.111561  0  0.108188  0.080001  0  1.007909  0
H  H51  1  0.29271345  0.59016749  0.53277964  1  0.111476  0  0.108205  0.079966  0  1.007954  0
H  H52  1  0.24397379  0.27423376  0.78397808  1  0.054477  0  0.090189  0.104732  0  1.004562  0
H  H53  1  0.24397493  0.72576488  0.21602346  1  0.054438  0  0.090204  0.104765  0  1.004523  0
H  H54  1  0.75603226  0.22576837  0.28398147  1  0.054527  0  0.090143  0.104597  0  1.004655  0
H  H55  1  0.75603044  0.77423407  0.71601955  1  0.054535  0  0.090167  0.104637  0  1.004577  0
H  H56  1  0.12373400  0.29253180  0.86476887  1  0.053181  0  0.090917  0.104858  0  0.985802  0
H  H57  1  0.12373069  0.70746904  0.13523308  1  0.053249  0  0.090915  0.104843  0  0.985789  0
H  H58  1  0.87626745  0.20746754  0.36477344  1  0.053081  0  0.090887  0.104789  0  0.985851  0
H  H59  1  0.87627163  0.79253329  0.63522826  1  0.053104  0  0.090912  0.104844  0  0.98585  0
H  H60  1  0.97248831  0.40576761  0.79665023  1  0.009873  0  0.087538  0.078462  0  0.978555  0
H  H61  1  0.97248079  0.59423457  0.20334832  1  0.009817  0  0.087579  0.078479  0  0.978637  0
H  H62  1  0.02751909  0.09423575  0.29665252  1  0.009812  0  0.08757  0.078471  0  0.978637  0
H  H63  1  0.02751048  0.90577212  0.70334768  1  0.00984  0  0.087591  0.078503  0  0.978656  0
H  H64  1  0.11054883  0.38921922  0.72248893  1  0.011831  0  0.086406  0.082229  0  0.996903  0
H  H65  1  0.11053551  0.61078101  0.27751191  1  0.011907  0  0.086384  0.082124  0  0.997014  0
H  H66  1  0.88946194  0.11078275  0.22249060  1  0.011919  0  0.086334  0.082056  0  0.996885  0
H  H67  1  0.88945367  0.88922048  0.77751003  1  0.011866  0  0.086407  0.082212  0  0.996926  0
H  H68  1  0.21477032  0.44257122  0.87652313  1  0.046471  0  0.101227  0.119073  0  0.961412  0
H  H69  1  0.21476332  0.55742857  0.12347783  1  0.046526  0  0.10122  0.11905  0  0.961347  0
H  H70  1  0.78524012  0.05742636  0.37652457  1  0.046445  0  0.101219  0.119034  0  0.961406  0
H  H71  1  0.78523001  0.94257134  0.62347485  1  0.046433  0  0.101224  0.119035  0  0.961371  0
H  H72  1  0.36190762  0.41342759  0.80985124  1  0.028482  0  0.095417  0.105138  0  0.992238  0
H  H73  1  0.36189997  0.58657422  0.19015314  1  0.028321  0  0.095411  0.105114  0  0.992335  0
H  H74  1  0.63810114  0.08657460  0.30985203  1  0.028386  0  0.095384  0.105128  0  0.992299  0
H  H75  1  0.63809378  0.91342526  0.69014559  1  0.028491  0  0.095386  0.105112  0  0.992274  0
C  C76  1  0.39507963  0.16123166  0.19987262  1  0.409007  0  0.048047  0.10578  0  3.964179  0
C  C77  1  0.39507624  0.83876244  0.80012800  1  0.408707  0  0.047949  0.105743  0  3.964278  0
C  C78  1  0.60491826  0.33876368  0.69987575  1  0.409155  0  0.048159  0.105904  0  3.964389  0
C  C79  1  0.60492455  0.66123373  0.30013000  1  0.408651  0  0.048039  0.105808  0  3.96414  0
C  C80  1  0.48147462  0.10020635  0.16516956  1  -6.4e-05  0  -0.093395  -0.238608  0  3.954741  0
C  C81  1  0.48147314  0.89979147  0.83483061  1  0.000478  0  -0.093331  -0.238459  0  3.95454  0
C  C82  1  0.51852052  0.39978950  0.66517653  1  0.000884  0  -0.093367  -0.238481  0  3.954648  0
C  C83  1  0.51852786  0.60020838  0.33483456  1  0.00068  0  -0.093352  -0.238485  0  3.954586  0
C  C84  1  0.59061601  0.11936167  0.10726525  1  0.460169  0  0.109462  0.302866  0  4.055057  0
C  C85  1  0.59061349  0.88063572  0.89273559  1  0.459711  0  0.109426  0.302832  0  4.054918  0
C  C86  1  0.40937622  0.38063702  0.60727260  1  0.459111  0  0.109435  0.302753  0  4.054936  0
C  C87  1  0.40938660  0.61936547  0.39273674  1  0.45951  0  0.109429  0.302878  0  4.054941  0
C  C88  1  0.60820356  0.19985436  0.08698904  1  0.020472  0  -0.097693  -0.266858  0  3.975131  0
C  C89  1  0.60820695  0.80014247  0.91301128  1  0.020471  0  -0.097667  -0.266929  0  3.975055  0
C  C90  1  0.39178982  0.30014608  0.58699076  1  0.020709  0  -0.097678  -0.266821  0  3.974962  0
C  C91  1  0.39179708  0.69985758  0.41301257  1  0.020527  0  -0.097685  -0.266977  0  3.975163  0
C  C92  1  0.51577841  0.25696036  0.12524044  1  0.486186  0  0.057223  0.121478  0  3.950106  0
C  C93  1  0.51577989  0.74303691  0.87475977  1  0.486176  0  0.057266  0.121692  0  3.949866  0
C  C94  1  0.48422539  0.24303778  0.62523943  1  0.486243  0  0.057221  0.121503  0  3.949889  0
C  C95  1  0.48422135  0.75696304  0.37475857  1  0.486232  0  0.057212  0.121529  0  3.950091  0
C  C96  1  0.49103183  0.17568785  0.88048526  1  0.45867  0  0.043195  0.097036  0  3.984426  0
C  C97  1  0.49103435  0.82431058  0.11951166  1  0.458696  0  0.043273  0.097042  0  3.984455  0
C  C98  1  0.50896335  0.32431512  0.38048749  1  0.459057  0  0.043213  0.097026  0  3.984263  0
C  C99  1  0.50896023  0.67568394  0.61950999  1  0.459007  0  0.043207  0.096969  0  3.984275  0
C  C100  1  0.36269045  0.15488731  0.92848746  1  0.016399  0  -0.097731  -0.248459  0  3.965525  0
C  C101  1  0.36269027  0.84511032  0.07150877  1  0.016259  0  -0.097761  -0.248401  0  3.965411  0
C  C102  1  0.63730884  0.34511399  0.42849042  1  0.016011  0  -0.097729  -0.248437  0  3.965452  0
C  C103  1  0.63730784  0.65488706  0.57150775  1  0.015977  0  -0.097721  -0.248321  0  3.965283  0
C  C104  1  0.22978346  0.10586784  0.90349984  1  0.444218  0  0.109625  0.312545  0  4.038048  0
C  C105  1  0.22978633  0.89413078  0.09649787  1  0.443949  0  0.109702  0.312518  0  4.03816  0
C  C106  1  0.77021569  0.39413519  0.40350197  1  0.443923  0  0.109681  0.312494  0  4.038158  0
C  C107  1  0.77020811  0.60586428  0.59649472  1  0.444217  0  0.109621  0.312388  0  4.038256  0
C  C108  1  0.22526372  0.08402584  0.82987150  1  -0.010085  0  -0.094594  -0.256159  0  3.927223  0
C  C109  1  0.22527484  0.91597636  0.17012567  1  -0.010231  0  -0.09466  -0.256068  0  3.927233  0
C  C110  1  0.77472987  0.41597700  0.32987476  1  -0.010242  0  -0.094697  -0.256094  0  3.927304  0
C  C111  1  0.77472387  0.58402187  0.67012357  1  -0.010229  0  -0.094665  -0.255995  0  3.927179  0
C  C112  1  0.36015754  0.10808929  0.78614702  1  0.489258  0  0.051743  0.116888  0  3.96211  0
C  C113  1  0.36016621  0.89190954  0.21384976  1  0.48988  0  0.051719  0.116713  0  3.962487  0
C  C114  1  0.63983833  0.39191225  0.28614899  1  0.48995  0  0.051772  0.116862  0  3.962211  0
C  C115  1  0.63983277  0.60808761  0.71384919  1  0.48985  0  0.051773  0.116798  0  3.962327  0
C  C116  1  0.99928806  0.01873103  0.93304223  1  0.363549  0  -0.062497  -0.045511  0  3.819003  0
C  C117  1  0.99928245  0.98127119  0.06695689  1  0.363426  0  -0.062479  -0.045541  0  3.818909  0
C  C118  1  0.00071637  0.48126730  0.43304259  1  0.366084  0  -0.062461  -0.045445  0  3.818758  0
C  C119  1  0.00071054  0.51873336  0.56695759  1  0.363843  0  -0.062456  -0.045521  0  3.819063  0
C  C120  1  0.89055733  0.99999888  0.99999991  1  0.061412  0  -0.019476  0.051623  0  3.83846  0
C  C121  1  0.10944161  0.49999952  0.50000124  1  0.061584  0  -0.019529  0.05144  0  3.838589  0
C  C122  1  0.78302139  0.07421025  0.01543019  1  0.362985  0  -0.057537  -0.029045  0  3.836641  0
C  C123  1  0.78301975  0.92578684  0.98456596  1  0.363017  0  -0.057624  -0.029138  0  3.836772  0
C  C124  1  0.21697792  0.42578940  0.51543634  1  0.362841  0  -0.057526  -0.029044  0  3.836498  0
C  C125  1  0.21697962  0.57421100  0.48456789  1  0.362925  0  -0.05758  -0.029016  0  3.836676  0
C  C126  1  0.97866942  0.24638853  0.77547308  1  1.539505  0  0.184644  0.613326  0  4.172191  0
C  C127  1  0.97868100  0.75361306  0.22452765  1  1.538669  0  0.184699  0.613405  0  4.172155  0
C  C128  1  0.02132894  0.25361537  0.27548223  1  1.538912  0  0.184717  0.61352  0  4.171604  0
C  C129  1  0.02133334  0.74638771  0.72452015  1  1.539034  0  0.184771  0.61357  0  4.171996  0
C  C130  1  0.12246131  0.29708830  0.80515285  1  -0.051286  0  -0.171859  -0.292572  0  3.936426  0
C  C131  1  0.12246597  0.70290955  0.19484855  1  -0.050887  0  -0.171849  -0.292587  0  3.936444  0
C  C132  1  0.87753978  0.20291029  0.30515687  1  -0.050893  0  -0.171737  -0.292312  0  3.936312  0
C  C133  1  0.87754054  0.79709173  0.69484320  1  -0.051235  0  -0.171802  -0.292426  0  3.936466  0
C  C134  1  0.10089998  0.38466451  0.78197442  1  0.023029  0  -0.164519  -0.098511  0  3.955819  0
C  C135  1  0.10089143  0.61533571  0.21802642  1  0.023271  0  -0.164564  -0.098404  0  3.956083  0
C  C136  1  0.89910860  0.11533702  0.28197774  1  0.022928  0  -0.164449  -0.09829  0  3.955825  0
C  C137  1  0.89910758  0.88466444  0.71802399  1  0.022899  0  -0.164576  -0.098551  0  3.955991  0
C  C138  1  0.23333827  0.43880789  0.81730198  1  -0.036333  0  -0.164872  -0.287165  0  3.94219  0
C  C139  1  0.23333166  0.56119372  0.18270064  1  -0.035814  0  -0.164826  -0.287133  0  3.942464  0
C  C140  1  0.76667053  0.06119312  0.31730232  1  -0.035404  0  -0.164833  -0.287155  0  3.942485  0
C  C141  1  0.76666203  0.93880873  0.68269763  1  -0.036268  0  -0.164832  -0.287088  0  3.942105  0
C  C142  1  0.23851392  0.52319056  0.78694527  1  1.556447  0  0.194549  0.618145  0  4.156818  0
C  C143  1  0.23851072  0.47681405  0.21305953  1  1.555396  0  0.194446  0.618048  0  4.157151  0
C  C144  1  0.76149571  0.97681275  0.28694157  1  1.555465  0  0.194471  0.618085  0  4.15712  0
C  C145  1  0.76146943  0.02319148  0.71304749  1  1.556484  0  0.194428  0.618013  0  4.156839  0
N  N146  1  0.41087494  0.23875558  0.18052755  1  -1.241482  0  -0.335098  -0.246769  0  3.568674  0
N  N147  1  0.41088003  0.76123795  0.81947091  1  -1.241209  0  -0.335121  -0.247011  0  3.568886  0
N  N148  1  0.58912793  0.26124091  0.68052779  1  -1.241599  0  -0.33529  -0.247087  0  3.568946  0
N  N149  1  0.58912597  0.73875768  0.31947251  1  -1.241553  0  -0.335156  -0.24692  0  3.56877  0
N  N150  1  0.49309763  0.15124535  0.81053689  1  -1.264881  0  -0.338034  -0.262427  0  3.573415  0
N  N151  1  0.49310075  0.84875069  0.18945948  1  -1.264747  0  -0.338173  -0.262433  0  3.573864  0
N  N152  1  0.50690221  0.34875505  0.31053808  1  -1.26489  0  -0.33803  -0.262399  0  3.573498  0
N  N153  1  0.50689681  0.65124580  0.68945886  1  -1.264744  0  -0.338114  -0.262417  0  3.573744  0
O  O154  1  0.98536420  0.21763517  0.71218031  1  -1.178789  0  -0.347712  -0.568284  0  2.072596  0
O  O155  1  0.98537510  0.78237001  0.28781988  1  -1.178642  0  -0.347637  -0.568248  0  2.072651  0
O  O156  1  0.01464396  0.28237993  0.21219550  1  -1.178903  0  -0.34779  -0.568497  0  2.072386  0
O  O157  1  0.01464090  0.71763151  0.78781013  1  -1.178685  0  -0.347827  -0.568575  0  2.072642  0
O  O158  1  0.84537554  0.23689273  0.81647866  1  -1.189959  0  -0.35832  -0.590292  0  2.1965  0
O  O159  1  0.84537801  0.76310805  0.18352899  1  -1.189654  0  -0.358453  -0.59041  0  2.196588  0
O  O160  1  0.15463581  0.26309873  0.31648634  1  -1.189842  0  -0.358337  -0.590308  0  2.196254  0
O  O161  1  0.15463225  0.73689500  0.68351618  1  -1.189612  0  -0.358335  -0.590233  0  2.196372  0
O  O162  1  0.16288463  0.54071369  0.72856929  1  -1.192627  0  -0.325723  -0.565002  0  2.167924  0
O  O163  1  0.16288803  0.45928841  0.27143814  1  -1.192534  0  -0.325705  -0.564967  0  2.167876  0
O  O164  1  0.83711827  0.95929187  0.22856075  1  -1.192637  0  -0.325719  -0.565048  0  2.167831  0
O  O165  1  0.83709374  0.04072146  0.77142405  1  -1.192362  0  -0.325832  -0.56507  0  2.167751  0
O  O166  1  0.32696033  0.57522840  0.82277264  1  -1.175715  0  -0.352936  -0.582321  0  2.221226  0
O  O167  1  0.32693871  0.42477097  0.17723280  1  -1.175512  0  -0.352898  -0.582286  0  2.22145  0
O  O168  1  0.67306225  0.92477201  0.32276710  1  -1.175487  0  -0.352879  -0.582223  0  2.221449  0
O  O169  1  0.67303739  0.07522730  0.67721588  1  -1.175797  0  -0.35272  -0.582162  0  2.22133  0
O  O170  1  0.11399789  0.08255468  0.95337141  1  -1.078082  0  -0.168446  -0.186186  0  2.546088  0
O  O171  1  0.11399553  0.91744556  0.04662563  1  -1.077713  0  -0.168503  -0.186214  0  2.545848  0
O  O172  1  0.88600410  0.41744489  0.45337479  1  -1.077837  0  -0.1685  -0.186205  0  2.54602  0
O  O173  1  0.88599606  0.58255296  0.54662257  1  -1.078143  0  -0.168467  -0.186163  0  2.546147  0
O  O174  1  0.67082799  0.05733801  0.07527784  1  -1.070596  0  -0.161192  -0.17214  0  2.553378  0
O  O175  1  0.67082482  0.94266130  0.92472255  1  -1.070597  0  -0.161167  -0.172126  0  2.55344  0
O  O176  1  0.32916404  0.44266299  0.57528740  1  -1.070614  0  -0.161163  -0.172011  0  2.553148  0
O  O177  1  0.32917545  0.55733937  0.42472239  1  -1.070541  0  -0.161158  -0.172152  0  2.553397  0
