# generated using pymatgen
data_CuH10C10(NO)3
_symmetry_space_group_name_H-M   'P 1'
_cell_length_a   6.96869084
_cell_length_b   9.02478456
_cell_length_c   11.22558099
_cell_angle_alpha   93.00623099
_cell_angle_beta   96.12004936
_cell_angle_gamma   106.07871571
_symmetry_Int_Tables_number   1
_chemical_formula_structural   CuH10C10(NO)3
_chemical_formula_sum   'Cu2 H20 C20 N6 O6'
_cell_volume   672.01711495
_cell_formula_units_Z   2
loop_
 _symmetry_equiv_pos_site_id
 _symmetry_equiv_pos_as_xyz
  1  'x, y, z'
loop_
 _atom_site_type_symbol
 _atom_site_label
 _atom_site_symmetry_multiplicity
 _atom_site_fract_x
 _atom_site_fract_y
 _atom_site_fract_z
 _atom_site_occupancy
 _atom_site_hle17_ddec_charge
 _atom_site_hle17_ddec_spin_density
 _atom_site_hle17_ddec_sum_bond_order
 _atom_site_hle17_magmom
 _atom_site_hse06_10hf_ddec_charge
 _atom_site_hse06_10hf_ddec_spin_density
 _atom_site_hse06_10hf_ddec_sum_bond_order
 _atom_site_hse06_10hf_magmom
 _atom_site_hse06_ddec_charge
 _atom_site_hse06_ddec_spin_density
 _atom_site_hse06_ddec_sum_bond_order
 _atom_site_hse06_magmom
 _atom_site_pbe_cm5_charge
 _atom_site_pbe_ddec_charge
 _atom_site_pbe_ddec_spin_density
 _atom_site_pbe_ddec_sum_bond_order
 _atom_site_pbe_magmom
Cu  Cu0  1  0.00286411  0.20895684  0.04891312  1  0.786385  -0.698581  1.950219  -0.502  0.746408  -0.792008  2.36095  -0.623  0.831746  -0.877186  2.2983  -0.715  0.763158  0.694879  -0.699715  2.403213  -0.539
Cu  Cu1  1  0.99713254  0.79104557  0.95108695  1  0.786336  0.69858  1.950251  0.502  0.746423  0.792021  2.360995  0.623  0.831727  0.877186  2.298337  0.715  0.763179  0.6949  0.699708  2.403224  0.539
H  H2  1  0.57000946  0.65232607  0.69057103  1  0.102814  -0.00013  0.943507  0.0  0.122354  -8e-05  1.003794  0.0  0.123446  -8e-05  1.00426  0.0  0.084575  0.122011  -8.1e-05  1.00305  0.0
H  H3  1  0.42998851  0.34766823  0.30942866  1  0.102838  0.00013  0.943492  0.0  0.122379  8.1e-05  1.003773  0.0  0.123471  8e-05  1.004239  0.0  0.084595  0.122037  8e-05  1.003028  0.0
H  H4  1  0.36564785  0.63922649  0.77472571  1  0.113919  -0.000226  0.96752  0.0  0.134375  -0.000175  1.027477  0.0  0.13497  -0.000146  1.029313  0.0  0.088781  0.134172  -0.000181  1.02602  0.0
H  H5  1  0.63435616  0.36077240  0.22527641  1  0.113918  0.000226  0.967477  0.0  0.134366  0.000175  1.027462  0.0  0.134962  0.000146  1.029296  0.0  0.088779  0.134165  0.000181  1.026005  0.0
H  H6  1  0.58308556  0.59389222  0.83906466  1  0.125773  0.000185  0.969862  0.0  0.139593  6e-05  1.039512  0.0  0.142074  1e-06  1.037439  0.0  0.093992  0.137628  0.000109  1.041257  0.0
H  H7  1  0.41691572  0.40610320  0.16093709  1  0.125753  -0.000184  0.969933  0.0  0.139607  -6e-05  1.039534  0.0  0.142086  -1e-06  1.037462  0.0  0.093982  0.137639  -0.000109  1.04128  0.0
H  H8  1  0.37381451  0.94917219  0.77152442  1  0.118671  -2e-05  0.979629  0.0  0.124775  4.2e-05  1.049634  0.0  0.127498  4.1e-05  1.048378  0.0  0.098645  0.122637  2.5e-05  1.050774  0.0
H  H9  1  0.62618765  0.05082566  0.22847217  1  0.118696  1.9e-05  0.979553  0.0  0.124808  -4.2e-05  1.049553  0.0  0.12753  -4.1e-05  1.048298  0.0  0.098659  0.122671  -2.5e-05  1.05069  0.0
H  H10  1  0.99174754  0.11453882  0.29792936  1  0.086194  -0.00065  0.917614  -0.001  0.096285  -0.00061  0.973848  -0.001  0.098942  -0.000425  0.971117  -0.001  0.124956  0.093855  -0.00073  0.976531  -0.001
H  H11  1  0.00824520  0.88546466  0.70207408  1  0.086169  0.00065  0.917567  0.001  0.096276  0.000611  0.973792  0.001  0.098931  0.000425  0.971062  0.001  0.124946  0.093844  0.00073  0.976481  0.001
H  H12  1  0.96899457  0.22961734  0.49889135  1  0.107274  -0.000319  0.947006  0.0  0.121072  -0.000367  0.998144  0.0  0.124162  -0.000269  0.997382  0.0  0.113372  0.118574  -0.000432  0.999278  0.0
H  H13  1  0.03100683  0.77038616  0.50111175  1  0.107291  0.00032  0.947033  0.0  0.121054  0.000367  0.998207  0.0  0.12417  0.000269  0.997413  0.0  0.11338  0.118557  0.000432  0.999342  0.0
H  H14  1  0.05083052  0.66901690  0.34219378  1  0.111682  -0.000188  0.939676  0.0  0.125387  -0.000267  0.990509  0.0  0.128554  -0.000193  0.989399  0.0  0.116119  0.122824  -0.000306  0.991931  0.0
H  H15  1  0.94918013  0.33098431  0.65780800  1  0.111662  0.000187  0.939683  0.0  0.125372  0.000268  0.990513  0.0  0.128542  0.000192  0.9894  0.0  0.116108  0.122802  0.000306  0.991945  0.0
H  H16  1  0.06507701  0.53436573  0.14993134  1  0.102912  -0.000794  0.965432  -0.001  0.108689  -0.000564  1.027964  -0.001  0.111369  -0.000404  1.02554  -0.001  0.12677  0.106278  -0.000654  1.030248  -0.001
H  H17  1  0.93492268  0.46563318  0.85006961  1  0.102894  0.000794  0.965432  0.001  0.108675  0.000565  1.02796  0.001  0.111356  0.000404  1.025535  0.001  0.126763  0.106266  0.000654  1.030243  0.001
H  H18  1  0.32513707  0.35429711  0.92436293  1  0.429467  0.000116  0.873162  0.0  0.403848  4.1e-05  0.928953  0.0  0.415481  4.1e-05  0.912087  0.0  0.285717  0.395737  3.8e-05  0.940671  0.0
H  H19  1  0.67486247  0.64570530  0.07563732  1  0.429433  -0.000116  0.873213  0.0  0.403813  -4.1e-05  0.929007  0.0  0.415445  -4.2e-05  0.912144  0.0  0.285685  0.395703  -3.8e-05  0.940724  0.0
H  H20  1  0.22611288  0.48649891  0.96831790  1  0.412964  0.000392  0.894029  0.0  0.385404  0.000461  0.955159  0.0  0.39816  0.000318  0.936488  0.0  0.285791  0.376711  0.00054  0.96785  0.0
H  H21  1  0.77388912  0.51350235  0.03168155  1  0.412996  -0.000392  0.893979  0.0  0.385445  -0.000462  0.955092  0.0  0.3982  -0.000318  0.936422  0.0  0.285807  0.376755  -0.00054  0.96778  0.0
C  C22  1  0.53024001  0.67232268  0.78115595  1  -0.354486  -0.001795  3.729998  -0.002  -0.430354  -0.000905  3.965136  -0.001  -0.43328  -0.000686  3.972869  -0.001  -0.245905  -0.42831  -0.000994  3.959368  -0.001
C  C23  1  0.46976214  0.32767512  0.21884332  1  -0.354509  0.001795  3.730055  0.002  -0.430404  0.000903  3.965203  0.001  -0.433329  0.000686  3.972935  0.001  -0.245898  -0.428354  0.000995  3.959438  0.001
C  C24  1  0.61219325  0.83743469  0.83011335  1  0.243606  -0.000467  3.738792  0.0  0.248815  0.001133  4.000745  0.001  0.257551  0.00026  4.022343  0.0  0.080906  0.244014  0.001625  3.985449  0.002
C  C25  1  0.38780731  0.16256664  0.16988334  1  0.243739  0.000468  3.738796  0.0  0.248905  -0.001133  4.000788  -0.001  0.257645  -0.00026  4.022383  0.0  0.080927  0.244107  -0.001624  3.985505  -0.002
C  C26  1  0.52060800  0.95638948  0.81835194  1  -0.26178  0.006669  3.740921  0.007  -0.292537  0.00288  3.99575  0.004  -0.299769  0.002532  4.014824  0.003  -0.123082  -0.28744  0.002945  3.982324  0.004
C  C27  1  0.47938736  0.04360944  0.18164874  1  -0.261892  -0.006668  3.740884  -0.007  -0.292664  -0.00288  3.995726  -0.004  -0.2999  -0.002531  4.014797  -0.003  -0.123131  -0.287561  -0.002946  3.982309  -0.004
C  C28  1  0.65486765  0.08523834  0.88568676  1  0.021802  9.6e-05  3.858476  0.001  0.021412  0.000412  4.118633  0.001  0.022166  0.000211  4.139048  0.001  0.06045  0.021781  0.00072  4.104393  0.001
C  C29  1  0.34512626  0.91476057  0.11431383  1  0.021662  -9.5e-05  3.85858  -0.001  0.021347  -0.000413  4.118704  -0.001  0.022105  -0.000211  4.139113  -0.001  0.060414  0.021704  -0.00072  4.104477  -0.001
C  C30  1  0.64576953  0.24265354  0.91824776  1  0.623216  0.004505  3.931478  0.008  0.577696  0.000798  4.231822  0.003  0.613994  0.000796  4.22421  0.003  0.205713  0.552733  0.000766  4.235989  0.003
C  C31  1  0.35422729  0.75734550  0.08174767  1  0.623299  -0.004506  3.931645  -0.008  0.577691  -0.0008  4.23208  -0.003  0.613986  -0.000798  4.224467  -0.003  0.205665  0.552731  -0.000766  4.236251  -0.003
C  C32  1  0.00207283  0.23708228  0.31259053  1  0.11615  0.006182  3.737136  0.007  0.088257  0.00094  3.997435  0.001  0.096635  0.001765  4.015106  0.002  0.050041  0.0826  0.000309  3.986664  0.001
C  C33  1  0.99792918  0.76291902  0.68740715  1  0.116194  -0.00618  3.737132  -0.007  0.088299  -0.000942  3.997424  -0.001  0.096679  -0.001761  4.015098  -0.002  0.050063  0.082638  -0.000308  3.98666  -0.001
C  C34  1  0.99078134  0.30337138  0.42494178  1  -0.156496  -0.008743  3.712131  -0.009  -0.173612  -0.003202  3.952779  -0.004  -0.181156  -0.00319  3.973325  -0.004  -0.077683  -0.168657  -0.003025  3.939416  -0.003
C  C35  1  0.00922599  0.69662868  0.57505973  1  -0.15651  0.00874  3.712286  0.009  -0.173569  0.003204  3.95297  0.004  -0.18113  0.003187  3.973514  0.004  -0.0777  -0.168616  0.003025  3.93961  0.003
C  C36  1  0.00672635  0.46234057  0.44100446  1  0.093243  0.007845  3.752109  0.008  0.104229  0.002592  3.983846  0.003  0.108985  0.002768  4.004472  0.003  0.015341  0.100781  0.002397  3.970349  0.003
C  C37  1  0.99328429  0.53766057  0.55900088  1  0.09329  -0.007844  3.752161  -0.008  0.10416  -0.002595  3.98401  -0.003  0.108894  -0.002765  4.00467  -0.003  0.01543  0.100706  -0.002397  3.970512  -0.003
C  C38  1  0.03646822  0.54569962  0.33932041  1  -0.134802  -0.009196  3.664878  -0.009  -0.152861  -0.003339  3.904688  -0.004  -0.159932  -0.003275  3.922651  -0.004  -0.067615  -0.148829  -0.003267  3.893835  -0.004
C  C39  1  0.96353952  0.45430150  0.66068563  1  -0.134766  0.009197  3.66499  0.009  -0.152819  0.003341  3.904865  0.004  -0.159889  0.003271  3.922836  0.004  -0.067608  -0.148781  0.003267  3.894015  0.004
C  C40  1  0.04538757  0.47099304  0.22954546  1  0.15293  0.00717  3.650507  0.008  0.124737  0.001529  3.90432  0.002  0.135396  0.002309  3.918386  0.003  0.060833  0.117276  0.000885  3.896355  0.001
C  C41  1  0.95461442  0.52900817  0.77045666  1  0.152933  -0.007169  3.650575  -0.008  0.124747  -0.001532  3.904411  -0.002  0.135409  -0.002305  3.918474  -0.003  0.060815  0.117283  -0.000884  3.896442  -0.001
N  N42  1  0.81852446  0.04563416  0.93372303  1  -0.248893  -0.063971  3.357179  -0.081  -0.229491  -0.04432  3.693928  -0.061  -0.252632  -0.037918  3.717441  -0.055  -0.285991  -0.215524  -0.044264  3.680471  -0.058
N  N43  1  0.18147177  0.95436711  0.06627605  1  -0.248742  0.063969  3.357091  0.081  -0.229365  0.044317  3.693813  0.061  -0.252497  0.037916  3.717315  0.055  -0.285939  -0.215396  0.044262  3.680358  0.058
N  N44  1  0.79427863  0.89657379  0.90044553  1  -0.259479  0.085164  3.27746  0.106  -0.234044  0.061186  3.607195  0.081  -0.263403  0.051974  3.633561  0.073  -0.273107  -0.216019  0.062074  3.591398  0.08
N  N45  1  0.20572279  0.10342986  0.09955135  1  -0.259557  -0.085162  3.277498  -0.106  -0.234078  -0.061187  3.607216  -0.081  -0.263448  -0.05197  3.633593  -0.073  -0.273103  -0.216052  -0.062071  3.591418  -0.08
N  N46  1  0.02661689  0.31868997  0.21561914  1  -0.289903  -0.057062  3.33309  -0.072  -0.240101  -0.040931  3.628912  -0.055  -0.266277  -0.03432  3.646146  -0.049  -0.340547  -0.225141  -0.042707  3.619858  -0.056
N  N47  1  0.97338409  0.68131244  0.78438120  1  -0.289928  0.057061  3.333073  0.072  -0.240167  0.040932  3.628958  0.055  -0.266337  0.034317  3.646179  0.049  -0.340566  -0.225206  0.042709  3.619905  0.056
O  O48  1  0.79200549  0.32292384  0.99901640  1  -0.600584  -0.089212  2.059029  -0.119  -0.559462  -0.058455  2.323537  -0.085  -0.603672  -0.044796  2.31835  -0.068  -0.316135  -0.530142  -0.064497  2.327154  -0.09
O  O49  1  0.20799277  0.67707513  0.00098179  1  -0.600568  0.089208  2.059225  0.119  -0.559434  0.058451  2.323796  0.085  -0.603633  0.044796  2.318599  0.068  -0.316099  -0.530099  0.064496  2.327376  0.09
O  O50  1  0.50969549  0.29416165  0.87022709  1  -0.590248  -0.013514  1.929553  -0.017  -0.548484  -0.006912  2.140691  -0.009  -0.573749  -0.003586  2.130679  -0.005  -0.3197  -0.529617  -0.010401  2.146148  -0.013
O  O51  1  0.49029933  0.70582813  0.12976768  1  -0.590313  0.01352  1.929604  0.017  -0.548529  0.006914  2.140791  0.009  -0.573796  0.003586  2.130783  0.005  -0.319711  -0.529662  0.010405  2.146246  0.013
O  O52  1  0.19985302  0.37409706  0.94706389  1  -0.852318  -0.002201  1.910946  -0.004  -0.812348  -0.002528  2.106173  -0.004  -0.837208  -0.001565  2.067935  -0.003  -0.605414  -0.794779  -0.003193  2.132234  -0.005
O  O53  1  0.80014422  0.62590310  0.05293341  1  -0.852331  0.002199  1.910974  0.004  -0.81238  0.002527  2.106215  0.004  -0.83723  0.001565  2.067972  0.003  -0.60542  -0.794816  0.003192  2.13227  0.005
