# generated using pymatgen
data_ZnH5C19I(NO2)8
_symmetry_space_group_name_H-M   'P 1'
_cell_length_a   14.57430565
_cell_length_b   15.08167023
_cell_length_c   16.86085407
_cell_angle_alpha   90.33159754
_cell_angle_beta   92.80139036
_cell_angle_gamma   89.21647828
_symmetry_Int_Tables_number   1
_chemical_formula_structural   ZnH5C19I(NO2)8
_chemical_formula_sum   'Zn2 H10 C38 I2 N16 O32'
_cell_volume   3701.27416425
_cell_formula_units_Z   2
loop_
 _symmetry_equiv_pos_site_id
 _symmetry_equiv_pos_as_xyz
  1  'x, y, z'
loop_
 _atom_site_type_symbol
 _atom_site_label
 _atom_site_symmetry_multiplicity
 _atom_site_fract_x
 _atom_site_fract_y
 _atom_site_fract_z
 _atom_site_occupancy
 _atom_site_pbe_bader_charge
 _atom_site_pbe_bader_spin_density
 _atom_site_pbe_cm5_charge
 _atom_site_pbe_ddec_charge
 _atom_site_pbe_ddec_spin_density
 _atom_site_pbe_ddec_sum_bond_order
 _atom_site_pbe_magmom
Zn  Zn0  1  0.39910080  0.51134952  0.49957274  1  1.32307  0  0.681924  0.892399  0  2.284158  0
Zn  Zn1  1  0.60618133  0.51141210  0.50304990  1  1.3258  0  0.681696  0.896601  0  2.270884  0
H  H2  1  0.38828314  0.39620192  0.10184905  1  0.159993  0  0.127203  0.138225  0  0.974285  0
H  H3  1  0.62692010  0.48430042  0.91055679  1  0.11636  0  0.124542  0.138427  0  0.970029  0
H  H4  1  0.35979121  0.42197166  0.24659122  1  0.144251  0  0.124195  0.14015  0  0.964449  0
H  H5  1  0.63707504  0.50337068  0.76358705  1  0.15013  0  0.114861  0.124321  0  1.013794  0
H  H6  1  0.44257839  0.25205804  0.35578211  1  0.143216  0  0.122049  0.13526  0  0.997588  0
H  H7  1  0.66228901  0.78089747  0.47142318  1  0.187938  0  0.128545  0.148985  0  0.978031  0
H  H8  1  0.59907290  0.05197891  0.55306408  1  0.130236  0  0.125532  0.140191  0  0.971896  0
H  H9  1  0.37188305  0.95394164  0.43429938  1  0.104405  0  0.127114  0.145234  0  0.954381  0
H  H10  1  0.94094760  0.51501888  0.63845744  1  0.151686  0  0.136922  0.166227  0  0.967395  0
H  H11  1  0.07576683  0.35567843  0.46174583  1  0.153986  0  0.135566  0.166457  0  0.96169  0
C  C12  1  0.52341334  0.34390636  0.47857224  1  1.656529  0  0.22141  0.615077  0  4.174282  0
C  C13  1  0.51670698  0.67901643  0.49129682  1  1.620085  0  0.222054  0.616475  0  4.139756  0
C  C14  1  0.45642282  0.52576519  0.35013580  1  1.634532  0  0.214127  0.596929  0  4.188561  0
C  C15  1  0.50537276  0.47561280  0.64950554  1  1.614273  0  0.22601  0.619365  0  4.145386  0
C  C16  1  0.46228586  0.52221759  0.26143152  1  0.050374  0  0.013118  -0.022307  0  3.893031  0
C  C17  1  0.50427662  0.44877353  0.73500521  1  0.041543  0  0.006056  -0.04647  0  3.892248  0
C  C18  1  0.52855050  0.57155406  0.22393382  1  0.241052  0  0.08852  0.008222  0  3.911135  0
C  C19  1  0.42821320  0.40716197  0.76568685  1  0.197307  0  0.09881  0.032609  0  3.880234  0
C  C20  1  0.54752403  0.55428833  0.14551720  1  0.218883  0  0.098448  -0.018217  0  3.889585  0
C  C21  1  0.42248318  0.39633606  0.84722946  1  0.275717  0  0.095386  -0.02993  0  3.86639  0
C  C22  1  0.49761729  0.49009668  0.10126458  1  0.422979  0  0.102652  0.128839  0  4.023755  0
C  C23  1  0.49234669  0.42800127  0.89996174  1  0.389316  0  0.111376  0.147115  0  4.019963  0
C  C24  1  0.42859006  0.44337072  0.13766671  1  -0.053907  0  -0.053689  -0.095673  0  3.883269  0
C  C25  1  0.57145457  0.46359652  0.86916353  1  0.033372  0  -0.061603  -0.12141  0  3.905251  0
C  C26  1  0.41194809  0.45902663  0.21710062  1  0.017116  0  -0.061799  -0.069432  0  3.909414  0
C  C27  1  0.57695566  0.47337337  0.78778100  1  0.049379  0  -0.059259  -0.042335  0  3.90498  0
C  C28  1  0.48041441  0.11805299  0.38534146  1  0.181332  0  0.089979  0.041998  0  3.863841  0
C  C29  1  0.60055337  0.90787147  0.44467764  1  0.165418  0  0.085447  0.02784  0  3.88581  0
C  C30  1  0.47863747  0.20926223  0.39908901  1  0.036161  0  -0.061176  -0.116773  0  3.9126  0
C  C31  1  0.59837397  0.81829959  0.46242171  1  0.053169  0  -0.053853  -0.094259  0  3.909195  0
C  C32  1  0.52266373  0.24498814  0.46701189  1  0.054932  0  0.011047  -0.027254  0  3.902516  0
C  C33  1  0.51490515  0.77507308  0.46833177  1  0.083611  0  0.000626  -0.058579  0  3.907042  0
C  C34  1  0.56657903  0.18587582  0.52056285  1  0.174716  0  0.096956  0.08116  0  3.887626  0
C  C35  1  0.43459537  0.82582299  0.45330945  1  0.180796  0  0.102692  0.101067  0  3.87379  0
C  C36  1  0.56599037  0.09496309  0.50822843  1  0.074742  0  -0.0661  -0.153813  0  3.918239  0
C  C37  1  0.43646052  0.91672576  0.44017367  1  0.030475  0  -0.067825  -0.160137  0  3.907094  0
C  C38  1  0.52292707  0.05847591  0.43972352  1  0.100156  0  0.017653  0.0566  0  3.979603  0
C  C39  1  0.52016887  0.96026722  0.43636843  1  0.056429  0  0.020547  0.065732  0  3.987112  0
C  C40  1  0.90271615  0.47072744  0.44251323  1  0.185887  0  0.091522  -0.020126  0  3.875832  0
C  C41  1  0.10665069  0.55530556  0.55213085  1  0.247344  0  0.087504  -0.027636  0  3.877226  0
C  C42  1  0.80616007  0.47594086  0.43985165  1  0.403698  0  0.098586  0.146118  0  3.881894  0
C  C43  1  0.20299868  0.55401067  0.55799249  1  0.389049  0  0.098717  0.146753  0  3.883189  0
C  C44  1  0.81222564  0.51618631  0.57113259  1  0.750419  0  0.228341  0.253211  0  3.905604  0
C  C45  1  0.20295421  0.42333865  0.48762079  1  0.748882  0  0.232547  0.262353  0  3.905045  0
C  C46  1  0.90657408  0.50570761  0.58035387  1  0.132485  0  -0.062086  -0.200575  0  3.87876  0
C  C47  1  0.10831786  0.41482978  0.48654955  1  0.060904  0  -0.065413  -0.20798  0  3.873824  0
C  C48  1  0.95525486  0.48638070  0.51267411  1  0.051774  0  0.028845  0.094966  0  3.93588  0
C  C49  1  0.05711854  0.48540236  0.51657427  1  0.114685  0  0.028003  0.097282  0  3.935876  0
I  I50  1  0.73425846  0.44401066  0.33445898  1  0.328079  0  0.21482  0.15432  0  1.569462  0
I  I51  1  0.27150055  0.64801881  0.62794157  1  0.353838  0  0.22593  0.175436  0  1.597494  0
N  N52  1  0.51328761  0.48731281  0.01967884  1  -0.425453  0  -0.129979  -0.100231  0  3.280445  0
N  N53  1  0.48022708  0.42143880  0.98226063  1  -0.449554  0  -0.125804  -0.091864  0  3.233124  0
N  N54  1  0.76119306  0.50275466  0.50409967  1  -1.176624  0  -0.278785  -0.248766  0  3.391881  0
N  N55  1  0.25083321  0.49034841  0.52015957  1  -1.174291  0  -0.28197  -0.250122  0  3.39403  0
N  N56  1  0.35055922  0.37652276  0.71260307  1  0.445177  0  0.058727  0.520259  0  4.258575  0
N  N57  1  0.57674247  0.64399334  0.26719863  1  0.397195  0  0.059836  0.522312  0  4.229276  0
N  N58  1  0.76611877  0.55072064  0.64211895  1  0.424973  0  0.065777  0.475429  0  4.231565  0
N  N59  1  0.25359711  0.34943039  0.44901776  1  0.450005  0  0.067814  0.478867  0  4.226491  0
N  N60  1  0.34099160  0.35539848  0.87951448  1  0.397754  0  0.061625  0.522933  0  4.235215  0
N  N61  1  0.61912092  0.60326781  0.10554266  1  0.434412  0  0.059643  0.511707  0  4.290152  0
N  N62  1  0.43846855  0.08639018  0.30861273  1  0.397363  0  0.062681  0.514118  0  4.202746  0
N  N63  1  0.69139955  0.94681648  0.43293717  1  0.387015  0  0.059148  0.516248  0  4.207531  0
N  N64  1  0.61202769  0.21795714  0.59538327  1  0.404334  0  0.063201  0.517051  0  4.205369  0
N  N65  1  0.34172678  0.78717655  0.44963594  1  0.416236  0  0.058212  0.516117  0  4.230466  0
N  N66  1  0.95066715  0.45105734  0.36884529  1  0.421371  0  0.052125  0.489299  0  4.305667  0
N  N67  1  0.05528299  0.63384750  0.58048008  1  0.426645  0  0.05359  0.496358  0  4.29468  0
O  O68  1  0.44572199  0.38165824  0.47915352  1  -1.160533  0  -0.303329  -0.535771  0  2.362284  0
O  O69  1  0.59619545  0.64245979  0.49738884  1  -1.134109  0  -0.309027  -0.524749  0  2.358255  0
O  O70  1  0.60219316  0.37965276  0.48354456  1  -1.149795  0  -0.321124  -0.560036  0  2.374366  0
O  O71  1  0.44083843  0.64283938  0.50404728  1  -1.181161  0  -0.314383  -0.571335  0  2.409841  0
O  O72  1  0.37814175  0.52429696  0.37990584  1  -1.11873  0  -0.305508  -0.509056  0  2.283597  0
O  O73  1  0.58250883  0.48829624  0.62022556  1  -1.157374  0  -0.30675  -0.539932  0  2.353871  0
O  O74  1  0.53394453  0.52412014  0.38751936  1  -1.179982  0  -0.317194  -0.593156  0  2.430831  0
O  O75  1  0.42656989  0.48692522  0.61504196  1  -1.160683  0  -0.314236  -0.567073  0  2.470544  0
O  O76  1  0.36601075  0.31377686  0.66818772  1  -0.400557  0  -0.103816  -0.280144  0  1.919591  0
O  O77  1  0.27640089  0.41647761  0.71852280  1  -0.44992  0  -0.136677  -0.334263  0  1.910907  0
O  O78  1  0.52792195  0.69716968  0.30248197  1  -0.430406  0  -0.103247  -0.290047  0  1.932416  0
O  O79  1  0.66121872  0.64656811  0.26365883  1  -0.407458  0  -0.123595  -0.321104  0  1.932813  0
O  O80  1  0.78339385  0.51002437  0.70460965  1  -0.415089  0  -0.100533  -0.28845  0  1.890849  0
O  O81  1  0.71906142  0.61846439  0.63285055  1  -0.386971  0  -0.085498  -0.256318  0  1.933457  0
O  O82  1  0.27360502  0.36088362  0.37973904  1  -0.398876  0  -0.092394  -0.274203  0  1.92601  0
O  O83  1  0.26613330  0.28230997  0.48948244  1  -0.396231  0  -0.090147  -0.264833  0  1.884321  0
O  O84  1  0.30231017  0.39687301  0.93206587  1  -0.403272  0  -0.117131  -0.309558  0  1.883314  0
O  O85  1  0.31885711  0.28226101  0.85169370  1  -0.419584  0  -0.120625  -0.303525  0  1.855381  0
O  O86  1  0.68723460  0.55927541  0.08779739  1  -0.421682  0  -0.118802  -0.308543  0  1.877487  0
O  O87  1  0.60411158  0.68261601  0.09274520  1  -0.405163  0  -0.111007  -0.287476  0  1.859201  0
O  O88  1  0.45935799  0.01056294  0.28668218  1  -0.434438  0  -0.116585  -0.307806  0  1.896913  0
O  O89  1  0.38638648  0.13838664  0.27108351  1  -0.429901  0  -0.131732  -0.325219  0  1.867578  0
O  O90  1  0.69322121  0.01304049  0.38975412  1  -0.430339  0  -0.128133  -0.323791  0  1.886281  0
O  O91  1  0.75935699  0.90990298  0.46571061  1  -0.433674  0  -0.129308  -0.321378  0  1.856247  0
O  O92  1  0.57666476  0.28273253  0.62795434  1  -0.434652  0  -0.11265  -0.306511  0  1.971105  0
O  O93  1  0.68118598  0.17647302  0.62065870  1  -0.428601  0  -0.130982  -0.323227  0  1.851041  0
O  O94  1  0.32099759  0.73938071  0.39226613  1  -0.40438  0  -0.109071  -0.282967  0  1.885136  0
O  O95  1  0.29050307  0.81044648  0.50273911  1  -0.455928  0  -0.139649  -0.348623  0  1.936461  0
O  O96  1  0.97693975  0.51540266  0.33206538  1  -0.383241  0  -0.086543  -0.25859  0  1.862476  0
O  O97  1  0.96168431  0.37177999  0.35231068  1  -0.40961  0  -0.105233  -0.297176  0  1.899319  0
O  O98  1  0.02579595  0.68525723  0.52844753  1  -0.379909  0  -0.08919  -0.262007  0  1.860735  0
O  O99  1  0.04503875  0.63994735  0.65261245  1  -0.432913  0  -0.106816  -0.301883  0  1.912726  0
