# generated using pymatgen
data_ZnH5C4(N2O)2
_symmetry_space_group_name_H-M   'P 1'
_cell_length_a   8.30010779
_cell_length_b   9.30912832
_cell_length_c   11.98113634
_cell_angle_alpha   109.90953587
_cell_angle_beta   110.25556818
_cell_angle_gamma   89.99986845
_symmetry_Int_Tables_number   1
_chemical_formula_structural   ZnH5C4(N2O)2
_chemical_formula_sum   'Zn4 H20 C16 N16 O8'
_cell_volume   809.25863998
_cell_formula_units_Z   4
loop_
 _symmetry_equiv_pos_site_id
 _symmetry_equiv_pos_as_xyz
  1  'x, y, z'
loop_
 _atom_site_type_symbol
 _atom_site_label
 _atom_site_symmetry_multiplicity
 _atom_site_fract_x
 _atom_site_fract_y
 _atom_site_fract_z
 _atom_site_occupancy
 _atom_site_hle17_bader_spin_density
 _atom_site_hle17_ddec_charge
 _atom_site_hle17_ddec_spin_density
 _atom_site_hle17_ddec_sum_bond_order
 _atom_site_hle17_magmom
 _atom_site_hse06_10hf_bader_spin_density
 _atom_site_hse06_10hf_ddec_charge
 _atom_site_hse06_10hf_ddec_spin_density
 _atom_site_hse06_10hf_ddec_sum_bond_order
 _atom_site_hse06_10hf_magmom
 _atom_site_hse06_bader_spin_density
 _atom_site_hse06_ddec_charge
 _atom_site_hse06_ddec_spin_density
 _atom_site_hse06_ddec_sum_bond_order
 _atom_site_hse06_magmom
 _atom_site_pbe_bader_spin_density
 _atom_site_pbe_cm5_charge
 _atom_site_pbe_ddec_charge
 _atom_site_pbe_ddec_spin_density
 _atom_site_pbe_ddec_sum_bond_order
 _atom_site_pbe_magmom
Zn  Zn0  1  0.41054385  0.03278989  0.34758980  1  0  0.93356  0  1.96678  0  0  0.732033  0  2.454822  0  0  0.775246  0  2.406174  0  0  0.71381  0.701991  0  2.488284  0
Zn  Zn1  1  0.06294285  0.46723720  0.65247695  1  0  0.933681  0  1.966716  0  0  0.732255  0  2.454721  0  0  0.775486  0  2.40608  0  0  0.713754  0.702277  0  2.488065  0
Zn  Zn2  1  0.58945638  0.96721079  0.65240981  1  0  0.933604  0  1.966711  0  0  0.732093  0  2.454739  0  0  0.775297  0  2.406092  0  0  0.713825  0.702039  0  2.488196  0
Zn  Zn3  1  0.93705720  0.53276233  0.34752231  1  0  0.933718  0  1.966679  0  0  0.732317  0  2.454678  0  0  0.775543  0  2.406034  0  0  0.713782  0.702341  0  2.488026  0
H  H4  1  0.01664384  0.60505159  0.12975669  1  0  0.345226  0  0.921378  0  0  0.326612  0  0.98584  0  0  0.334065  0  0.979601  0  0  0.298742  0.32136  0  0.99026  0
H  H5  1  0.88690810  0.89500382  0.87028544  1  0  0.345023  0  0.920057  0  0  0.326594  0  0.984386  0  0  0.33407  0  0.978089  0  0  0.298793  0.32134  0  0.98879  0
H  H6  1  0.98335767  0.39494909  0.87024406  1  0  0.345232  0  0.921358  0  0  0.326619  0  0.98582  0  0  0.334072  0  0.979581  0  0  0.29874  0.321366  0  0.99024  0
H  H7  1  0.11309067  0.10499571  0.12971434  1  0  0.345029  0  0.920054  0  0  0.3266  0  0.984384  0  0  0.334076  0  0.978087  0  0  0.298794  0.321345  0  0.988787  0
H  H8  1  0.14237308  0.75648631  0.12852000  1  0  0.350856  0  0.908095  0  0  0.329079  0  0.979353  0  0  0.3369  0  0.972258  0  0  0.299357  0.323536  0  0.984449  0
H  H9  1  0.01382200  0.74353750  0.87145817  1  0  0.351229  0  0.907881  0  0  0.329466  0  0.979012  0  0  0.337273  0  0.971932  0  0  0.299479  0.323928  0  0.98412  0
H  H10  1  0.85762697  0.24351321  0.87148009  1  0  0.350842  0  0.908107  0  0  0.329064  0  0.979365  0  0  0.336885  0  0.972271  0  0  0.299354  0.323521  0  0.984462  0
H  H11  1  0.98617694  0.25646318  0.12854196  1  0  0.351204  0  0.907909  0  0  0.329435  0  0.979053  0  0  0.337243  0  0.971972  0  0  0.299463  0.323897  0  0.984161  0
H  H12  1  0.25396480  0.74267251  0.58324639  1  0  0.097417  0  0.922808  0  0  0.107651  0  0.985584  0  0  0.110404  0  0.981225  0  0  0.138823  0.105512  0  0.988834  0
H  H13  1  0.67077283  0.75729457  0.41674764  1  0  0.097601  0  0.922888  0  0  0.107372  0  0.986117  0  0  0.110229  0  0.981627  0  0  0.13862  0.105217  0  0.989394  0
H  H14  1  0.74603414  0.25732817  0.41675291  1  0  0.097432  0  0.92281  0  0  0.107669  0  0.98558  0  0  0.110423  0  0.981221  0  0  0.138834  0.105532  0  0.988831  0
H  H15  1  0.32922594  0.24270497  0.58325131  1  0  0.097614  0  0.922888  0  0  0.107387  0  0.986112  0  0  0.110245  0  0.981621  0  0  0.138628  0.10523  0  0.989387  0
H  H16  1  0.30790721  0.01164764  0.92935010  1  0  0.11297  0  0.908196  0  0  0.130029  0  0.960836  0  0  0.132541  0  0.959803  0  0  0.106253  0.128226  0  0.961685  0
H  H17  1  0.37854377  0.48831416  0.07067234  1  0  0.113402  0  0.907176  0  0  0.130295  0  0.95976  0  0  0.132795  0  0.958755  0  0  0.106162  0.12852  0  0.960571  0
H  H18  1  0.69209173  0.98835304  0.07065003  1  0  0.11294  0  0.90824  0  0  0.130027  0  0.960849  0  0  0.13254  0  0.959816  0  0  0.106251  0.128224  0  0.961697  0
H  H19  1  0.62145628  0.51168537  0.92932775  1  0  0.11333  0  0.907272  0  0  0.13025  0  0.959804  0  0  0.132745  0  0.958796  0  0  0.106142  0.128476  0  0.960619  0
H  H20  1  0.39182888  0.83910462  0.92381868  1  0  0.106694  0  0.918727  0  0  0.125463  0  0.972433  0  0  0.126837  0  0.972944  0  0  0.105111  0.124429  0  0.972242  0
H  H21  1  0.46794096  0.66087285  0.07618835  1  0  0.106959  0  0.918781  0  0  0.125465  0  0.972492  0  0  0.126866  0  0.972976  0  0  0.105185  0.124465  0  0.972257  0
H  H22  1  0.60816895  0.16089721  0.07618232  1  0  0.106683  0  0.918701  0  0  0.12545  0  0.972419  0  0  0.126826  0  0.97293  0  0  0.105101  0.124417  0  0.972229  0
H  H23  1  0.53205909  0.33912668  0.92381091  1  0  0.106969  0  0.918767  0  0  0.125448  0  0.972491  0  0  0.126844  0  0.972973  0  0  0.105188  0.124457  0  0.972251  0
C  C24  1  0.18201185  0.74686917  0.30368886  1  0  0.611682  0  3.833806  0  0  0.565162  0  4.103699  0  0  0.590375  0  4.113119  0  0  0.330104  0.548291  0  4.096866  0
C  C25  1  0.87826847  0.75315759  0.69630855  1  0  0.611622  0  3.833902  0  0  0.56438  0  4.105008  0  0  0.589602  0  4.114388  0  0  0.329608  0.547474  0  4.098171  0
C  C26  1  0.81798838  0.25313151  0.69631158  1  0  0.611646  0  3.833823  0  0  0.565127  0  4.103709  0  0  0.59034  0  4.113127  0  0  0.330079  0.548255  0  4.096872  0
C  C27  1  0.12173158  0.24684193  0.30369238  1  0  0.61151  0  3.833949  0  0  0.56425  0  4.105081  0  0  0.589472  0  4.114464  0  0  0.329564  0.547347  0  4.098244  0
C  C28  1  0.25261726  0.76143334  0.49833648  1  0  0.235178  0  3.741672  0  0  0.173596  0  4.012375  0  0  0.191295  0  4.022498  0  0  0.144153  0.162119  0  4.005121  0
C  C29  1  0.75425505  0.73849157  0.50164481  1  0  0.235382  0  3.742347  0  0  0.174272  0  4.012417  0  0  0.191891  0  4.022476  0  0  0.144065  0.162798  0  4.005229  0
C  C30  1  0.74738169  0.23856734  0.50166365  1  0  0.235111  0  3.741747  0  0  0.173518  0  4.012449  0  0  0.191215  0  4.022575  0  0  0.144122  0.16204  0  4.005199  0
C  C31  1  0.24574500  0.26150796  0.49835445  1  0  0.235271  0  3.742323  0  0  0.174154  0  4.012399  0  0  0.191773  0  4.022459  0  0  0.143984  0.162683  0  4.005208  0
C  C32  1  0.37163783  0.96848298  0.10137449  1  0  0.687451  0  3.846033  0  0  0.637508  0  4.150205  0  0  0.670334  0  4.14407  0  0  0.207064  0.615262  0  4.153559  0
C  C33  1  0.27029104  0.53147462  0.89866113  1  0  0.688828  0  3.847366  0  0  0.63877  0  4.151198  0  0  0.671602  0  4.145116  0  0  0.207776  0.616529  0  4.154575  0
C  C34  1  0.62835966  0.03151654  0.89862498  1  0  0.687429  0  3.846088  0  0  0.637484  0  4.150274  0  0  0.670311  0  4.144142  0  0  0.207068  0.615237  0  4.153627  0
C  C35  1  0.72971029  0.46852491  0.10133927  1  0  0.688837  0  3.847388  0  0  0.638749  0  4.151237  0  0  0.671577  0  4.145154  0  0  0.20778  0.616514  0  4.154619  0
C  C36  1  0.41034621  0.96148366  0.98523225  1  0  -0.234439  0  3.696001  0  0  -0.274708  0  3.950863  0  0  -0.280059  0  3.960302  0  0  -0.163456  -0.271001  0  3.944288  0
C  C37  1  0.42509906  0.53849120  0.01478779  1  0  -0.235899  0  3.697891  0  0  -0.275385  0  3.950942  0  0  -0.280791  0  3.960448  0  0  -0.16362  -0.271712  0  3.944457  0
C  C38  1  0.58965273  0.03851703  0.01476788  1  0  -0.234386  0  3.695985  0  0  -0.274686  0  3.950852  0  0  -0.280041  0  3.960297  0  0  -0.163436  -0.270975  0  3.944276  0
C  C39  1  0.57490116  0.46150948  0.98521265  1  0  -0.235874  0  3.697952  0  0  -0.275281  0  3.950944  0  0  -0.280657  0  3.960426  0  0  -0.163606  -0.271637  0  3.944474  0
N  N40  1  0.32507330  0.85245689  0.37502371  1  0  -0.430879  0  3.139617  0  0  -0.358431  0  3.440314  0  0  -0.380106  0  3.450235  0  0  -0.291468  -0.343926  0  3.433626  0
N  N41  1  0.95003657  0.64756092  0.62498062  1  0  -0.430881  0  3.139101  0  0  -0.358601  0  3.44049  0  0  -0.380317  0  3.450449  0  0  -0.291769  -0.34406  0  3.433709  0
N  N42  1  0.67492676  0.14754264  0.62497555  1  0  -0.430863  0  3.139584  0  0  -0.358421  0  3.440282  0  0  -0.380094  0  3.450201  0  0  -0.291454  -0.343912  0  3.43359  0
N  N43  1  0.04996348  0.35243861  0.37501864  1  0  -0.430891  0  3.139104  0  0  -0.358625  0  3.440517  0  0  -0.380338  0  3.450473  0  0  -0.291781  -0.344083  0  3.433737  0
N  N44  1  0.36707587  0.86184479  0.50048152  1  0  -0.29641  0  3.267499  0  0  -0.228632  0  3.572699  0  0  -0.245475  0  3.586162  0  0  -0.277846  -0.217381  0  3.563493  0
N  N45  1  0.86660978  0.63812840  0.49951212  1  0  -0.295938  0  3.268387  0  0  -0.228068  0  3.573329  0  0  -0.244905  0  3.586823  0  0  -0.27685  -0.216818  0  3.564008  0
N  N46  1  0.63292419  0.13815474  0.49951774  1  0  -0.296383  0  3.267513  0  0  -0.228597  0  3.572706  0  0  -0.245441  0  3.586172  0  0  -0.277849  -0.21735  0  3.563505  0
N  N47  1  0.13339156  0.36187113  0.50048829  1  0  -0.295861  0  3.268339  0  0  -0.227973  0  3.573262  0  0  -0.244812  0  3.586759  0  0  -0.276799  -0.21672  0  3.563936  0
N  N48  1  0.13433997  0.68695582  0.37922190  1  0  -0.526579  0  3.176733  0  0  -0.440091  0  3.468905  0  0  -0.46542  0  3.473951  0  0  -0.37125  -0.423031  0  3.465022  0
N  N49  1  0.75506451  0.81301829  0.62077873  1  0  -0.526717  0  3.17666  0  0  -0.439976  0  3.468878  0  0  -0.465283  0  3.473901  0  0  -0.370841  -0.422909  0  3.464994  0
N  N50  1  0.86565990  0.31304255  0.62077784  1  0  -0.526556  0  3.176763  0  0  -0.440049  0  3.468916  0  0  -0.46538  0  3.473964  0  0  -0.371233  -0.422989  0  3.465032  0
N  N51  1  0.24493554  0.18698124  0.37922136  1  0  -0.526564  0  3.176539  0  0  -0.439799  0  3.46874  0  0  -0.465108  0  3.473769  0  0  -0.370751  -0.422735  0  3.464858  0
N  N52  1  0.09528494  0.70857257  0.17797689  1  0  -0.708099  0  3.077517  0  0  -0.676299  0  3.30943  0  0  -0.696177  0  3.303168  0  0  -0.585461  -0.662545  0  3.31354  0
N  N53  1  0.91725276  0.79144434  0.82204086  1  0  -0.708634  0  3.075685  0  0  -0.676741  0  3.307642  0  0  -0.696605  0  3.30135  0  0  -0.585659  -0.66292  0  3.311702  0
N  N54  1  0.90471622  0.29142580  0.82202316  1  0  -0.708056  0  3.077546  0  0  -0.676261  0  3.309455  0  0  -0.696139  0  3.303196  0  0  -0.585433  -0.662508  0  3.313565  0
N  N55  1  0.08274747  0.20855634  0.17795958  1  0  -0.708597  0  3.075719  0  0  -0.676691  0  3.307681  0  0  -0.696556  0  3.301389  0  0  -0.585637  -0.662868  0  3.31174  0
O  O56  1  0.21939952  0.92691768  0.08848974  1  0  -0.651061  0  1.964839  0  0  -0.590896  0  2.187886  0  0  -0.614349  0  2.177932  0  0  -0.320489  -0.574576  0  2.194329  0
O  O57  1  0.13094980  0.57303538  0.91158561  1  0  -0.65099  0  1.9647  0  0  -0.591363  0  2.188654  0  0  -0.614621  0  2.178363  0  0  -0.320259  -0.57516  0  2.195105  0
O  O58  1  0.78059959  0.07308415  0.91151074  1  0  -0.651012  0  1.96481  0  0  -0.590838  0  2.18785  0  0  -0.614288  0  2.177893  0  0  -0.32045  -0.574514  0  2.194281  0
O  O59  1  0.86905153  0.42696414  0.08841479  1  0  -0.65099  0  1.964707  0  0  -0.591367  0  2.188695  0  0  -0.614625  0  2.178399  0  0  -0.320264  -0.575163  0  2.195144  0
O  O60  1  0.49803470  0.01828412  0.21105036  1  0  -0.633888  0  2.007512  0  0  -0.558138  0  2.271584  0  0  -0.58657  0  2.256964  0  0  -0.333595  -0.538357  0  2.281019  0
O  O61  1  0.28699586  0.48157954  0.78895867  1  0  -0.634399  0  2.007743  0  0  -0.558782  0  2.271988  0  0  -0.587245  0  2.257395  0  0  -0.334324  -0.538983  0  2.281277  0
O  O62  1  0.50196552  0.98171656  0.78895091  1  0  -0.633917  0  2.007574  0  0  -0.558166  0  2.271637  0  0  -0.586596  0  2.257016  0  0  -0.333639  -0.538385  0  2.28107  0
O  O63  1  0.71300291  0.51841999  0.21104028  1  0  -0.634397  0  2.00774  0  0  -0.558777  0  2.271987  0  0  -0.587241  0  2.257395  0  0  -0.334334  -0.53898  0  2.281279  0
