# generated using pymatgen
data_CoH4C12NO3F4
_symmetry_space_group_name_H-M   'P 1'
_cell_length_a   6.40548421
_cell_length_b   8.99563847
_cell_length_c   25.97465682
_cell_angle_alpha   90.00085305
_cell_angle_beta   89.79546164
_cell_angle_gamma   90.00069153
_symmetry_Int_Tables_number   1
_chemical_formula_structural   CoH4C12NO3F4
_chemical_formula_sum   'Co4 H16 C48 N4 O12 F16'
_cell_volume   1496.68707672
_cell_formula_units_Z   4
loop_
 _symmetry_equiv_pos_site_id
 _symmetry_equiv_pos_as_xyz
  1  'x, y, z'
loop_
 _atom_site_type_symbol
 _atom_site_label
 _atom_site_symmetry_multiplicity
 _atom_site_fract_x
 _atom_site_fract_y
 _atom_site_fract_z
 _atom_site_occupancy
 _atom_site_pbe_bader_charge
 _atom_site_pbe_bader_spin_density
 _atom_site_pbe_cm5_charge
 _atom_site_pbe_ddec_charge
 _atom_site_pbe_ddec_spin_density
 _atom_site_pbe_ddec_sum_bond_order
 _atom_site_pbe_magmom
Co  Co0  1  0.00656613  0.00885309  0.71557912  1  1.279909  2.590732  0.671089  0.949349  2.80352  2.35777  2.554
Co  Co1  1  0.49345334  0.00886427  0.78441375  1  1.279636  2.590765  0.670991  0.949233  2.803518  2.357406  2.554
Co  Co2  1  0.99344400  0.99114036  0.28443238  1  1.279859  2.590767  0.671122  0.949529  2.803527  2.357247  2.554
Co  Co3  1  0.50655541  0.99114252  0.21557080  1  1.279816  2.590812  0.670977  0.949247  2.80355  2.357566  2.554
H  H4  1  0.74703596  0.85912740  0.63386791  1  0.157917  0.00184  0.123052  0.104565  0.000471  1.007037  0.001
H  H5  1  0.72756850  0.85736999  0.53908414  1  0.059865  0.000839  0.112497  0.117326  0.000366  1.001017  0.0
H  H6  1  0.23276016  0.13195803  0.86746400  1  0.137692  0.002163  0.12348  0.103217  0.000674  1.000919  0.001
H  H7  1  0.22212796  0.13842539  0.96209041  1  0.074341  0.001045  0.112891  0.117533  0.000424  1.00036  0.0
H  H8  1  0.75292507  0.85906908  0.86614356  1  0.158076  0.001837  0.123054  0.104604  0.00047  1.006895  0.001
H  H9  1  0.77238156  0.85729701  0.96092888  1  0.059317  0.000839  0.112455  0.117238  0.000366  1.000992  0.0
H  H10  1  0.26724268  0.13200089  0.63255030  1  0.137569  0.002164  0.123455  0.103277  0.000674  1.000788  0.001
H  H11  1  0.27786408  0.13846869  0.53792315  1  0.074663  0.001047  0.11289  0.117459  0.000424  1.000242  0.0
H  H12  1  0.25296311  0.14093275  0.36616207  1  0.158318  0.001837  0.123134  0.104614  0.00047  1.006881  0.001
H  H13  1  0.27245553  0.14268906  0.46094853  1  0.059121  0.000838  0.112449  0.11727  0.000366  1.000625  0.0
H  H14  1  0.76722665  0.86801986  0.13253250  1  0.137721  0.002164  0.123456  0.103321  0.000674  1.00067  0.001
H  H15  1  0.77781827  0.86154361  0.03790456  1  0.074887  0.001045  0.112888  0.11755  0.000424  1.000458  0.0
H  H16  1  0.24700086  0.14088991  0.13385180  1  0.158064  0.001839  0.123018  0.10457  0.000471  1.006779  0.001
H  H17  1  0.22750378  0.14260862  0.03906728  1  0.059504  0.000838  0.112416  0.117326  0.000366  1.00073  0.0
H  H18  1  0.73280942  0.86801924  0.36748505  1  0.137765  0.002162  0.123494  0.103357  0.000673  1.000765  0.001
H  H19  1  0.72217866  0.86155255  0.46211220  1  0.074689  0.001045  0.112898  0.117508  0.000424  1.000553  0.0
C  C20  1  0.75534422  0.49310133  0.79575205  1  0.564942  -0.003938  0.085994  0.170633  -0.005124  4.098955  -0.004
C  C21  1  0.76162000  0.33857091  0.79578694  1  0.517801  0.017411  0.069568  0.066913  0.00893  4.060413  0.012
C  C22  1  0.85937131  0.92091618  0.61073455  1  0.43072  -0.001495  0.056301  0.110458  -0.00232  3.922583  -0.001
C  C23  1  0.85179580  0.92041364  0.55739242  1  0.015997  0.001898  -0.078475  -0.167717  0.000593  3.933313  0.002
C  C24  1  0.25919090  0.51334054  0.70405855  1  0.548431  -0.003116  0.086886  0.172802  -0.004286  4.102582  -0.003
C  C25  1  0.26681209  0.66731630  0.70409709  1  0.491364  0.018268  0.073342  0.070949  0.009262  4.058279  0.013
C  C26  1  0.34762582  0.07100387  0.88993486  1  0.475689  -0.00033  0.053988  0.104302  -0.000638  3.929452  0.0
C  C27  1  0.34469152  0.07443000  0.94328673  1  -0.020656  0.002276  -0.079025  -0.166473  0.000817  3.93517  0.002
C  C28  1  0.74468824  0.49310709  0.70424597  1  0.564841  -0.003938  0.085925  0.170442  -0.005124  4.098982  -0.004
C  C29  1  0.73843936  0.33856995  0.70420027  1  0.517242  0.017415  0.069642  0.067116  0.008932  4.060105  0.012
C  C30  1  0.64059242  0.92086797  0.88927686  1  0.430477  -0.001501  0.056158  0.110138  -0.002325  3.922114  -0.001
C  C31  1  0.64816478  0.92036336  0.94262052  1  0.015917  0.001902  -0.078397  -0.167425  0.000596  3.932833  0.002
C  C32  1  0.24085187  0.51336135  0.79593535  1  0.549013  -0.003117  0.086845  0.172646  -0.004287  4.103085  -0.003
C  C33  1  0.23318993  0.66733594  0.79587875  1  0.490217  0.018273  0.073186  0.070479  0.009263  4.05876  0.013
C  C34  1  0.15237437  0.07104931  0.61007528  1  0.475272  -0.000321  0.053949  0.104059  -0.000631  3.929211  0.001
C  C35  1  0.15529155  0.07446316  0.55672497  1  -0.021314  0.002274  -0.078872  -0.166085  0.000815  3.934762  0.002
C  C36  1  0.24467225  0.50688768  0.20424482  1  0.564533  -0.003935  0.08591  0.170379  -0.005122  4.098923  -0.004
C  C37  1  0.23840122  0.66142477  0.20420107  1  0.517625  0.017408  0.069632  0.067085  0.008929  4.060245  0.012
C  C38  1  0.14063247  0.07912285  0.38929119  1  0.431543  -0.001502  0.056423  0.110676  -0.002325  3.921723  -0.001
C  C39  1  0.14822044  0.07962094  0.44263717  1  0.015817  0.001902  -0.078442  -0.167822  0.000595  3.932755  0.002
C  C40  1  0.74083336  0.48665625  0.29594023  1  0.54856  -0.003113  0.086806  0.172656  -0.004283  4.103114  -0.003
C  C41  1  0.73319980  0.33268382  0.29588591  1  0.490781  0.018264  0.0733  0.070719  0.00926  4.058531  0.013
C  C42  1  0.65234385  0.92896402  0.11005779  1  0.476054  -0.000327  0.0542  0.104531  -0.000637  3.929289  0.001
C  C43  1  0.65525160  0.92553455  0.05670593  1  -0.021647  0.002276  -0.079059  -0.166693  0.000816  3.935941  0.002
C  C44  1  0.25532978  0.50690304  0.29575243  1  0.564839  -0.003935  0.085954  0.170327  -0.005121  4.099469  -0.004
C  C45  1  0.26158028  0.66143462  0.29579005  1  0.517475  0.017409  0.069557  0.066967  0.008929  4.06052  0.012
C  C46  1  0.35934445  0.07908991  0.11071773  1  0.431262  -0.001501  0.056551  0.110715  -0.002324  3.921384  -0.001
C  C47  1  0.35174555  0.07957118  0.05737369  1  0.016137  0.001901  -0.078416  -0.167695  0.000595  3.932841  0.002
C  C48  1  0.75918803  0.48665878  0.20405920  1  0.548588  -0.003112  0.086839  0.172599  -0.004282  4.102774  -0.003
C  C49  1  0.76683446  0.33268420  0.20410194  1  0.490914  0.018261  0.073293  0.070942  0.009257  4.058306  0.013
C  C50  1  0.84767623  0.92897194  0.38995237  1  0.476344  -0.000329  0.053969  0.104288  -0.000637  3.929349  0.001
C  C51  1  0.84473562  0.92554809  0.44330462  1  -0.021695  0.002277  -0.079078  -0.166712  0.000816  3.935914  0.002
C  C52  1  0.00171892  0.99872541  0.52845115  1  0.093533  -0.004794  0.012304  0.100202  -0.005439  3.981911  -0.003
C  C53  1  0.49822960  0.99866912  0.97156107  1  0.092864  -0.004799  0.012456  0.100444  -0.005443  3.981791  -0.003
C  C54  1  0.99828484  0.00130473  0.47157729  1  -0.03816  -0.005001  0.012406  0.100781  -0.005446  3.982095  -0.003
C  C55  1  0.50167916  0.00127209  0.02843392  1  -0.038198  -0.004995  0.012403  0.100508  -0.005441  3.982255  -0.003
C  C56  1  0.75002166  0.74355280  0.74999772  1  1.609594  -2.3e-05  0.212352  0.62307  -0.000967  4.167183  -0.001
C  C57  1  0.75003103  0.57619503  0.75000037  1  0.094266  0.025051  -0.044121  -0.257501  0.01309  4.036598  0.016
C  C58  1  0.75004687  0.25537067  0.74999377  1  0.637213  -0.003049  0.055798  0.139598  -0.002735  4.208138  -0.003
C  C59  1  0.25000899  0.26629289  0.74999421  1  1.619039  0.005505  0.215722  0.624578  0.003729  4.16564  0.003
C  C60  1  0.24999329  0.43113944  0.75000002  1  0.058221  0.026552  -0.04665  -0.268754  0.013613  4.070772  0.017
C  C61  1  0.24998071  0.74947482  0.74998506  1  0.734262  -0.006311  0.064148  0.161957  -0.007011  4.206518  -0.007
C  C62  1  0.25002447  0.25643621  0.24999990  1  1.609728  -2.2e-05  0.212452  0.622933  -0.000968  4.167028  -0.001
C  C63  1  0.25003223  0.42380732  0.25000225  1  0.094615  0.025047  -0.044126  -0.257264  0.013088  4.036161  0.016
C  C64  1  0.24999620  0.74462723  0.24999462  1  0.637297  -0.003049  0.055791  0.139516  -0.002734  4.208123  -0.003
C  C65  1  0.74999030  0.73372391  0.25000421  1  1.619  0.005519  0.215615  0.624387  0.003738  4.165379  0.003
C  C66  1  0.74998255  0.56886180  0.25000186  1  0.058481  0.026548  -0.046564  -0.268605  0.013612  4.070196  0.017
C  C67  1  0.74999530  0.25053531  0.24999373  1  0.734291  -0.006305  0.064121  0.16157  -0.007005  4.20624  -0.007
N  N68  1  0.00681748  0.99552067  0.63713418  1  -1.223182  0.068616  -0.327428  -0.250281  0.036135  3.602964  0.053
N  N69  1  0.49316851  0.99549077  0.86287107  1  -1.222421  0.06857  -0.327435  -0.25033  0.036112  3.602503  0.053
N  N70  1  0.99320821  0.00450392  0.36288501  1  -1.222465  0.068563  -0.32764  -0.25068  0.036106  3.602125  0.053
N  N71  1  0.50679494  0.00448935  0.13711811  1  -1.222917  0.068594  -0.327728  -0.250813  0.036123  3.602435  0.053
O  O72  1  0.84889821  0.80789470  0.71383809  1  -1.162982  0.053021  -0.308568  -0.575337  0.025704  2.44481  0.048
O  O73  1  0.33901639  0.20031095  0.78735276  1  -1.156758  0.075491  -0.311075  -0.565638  0.039147  2.454273  0.06
O  O74  1  0.65114014  0.80791216  0.78614575  1  -1.162582  0.052991  -0.308621  -0.575224  0.02569  2.444997  0.048
O  O75  1  0.16096138  0.20034533  0.71263225  1  -1.157093  0.075485  -0.311096  -0.565709  0.039147  2.454202  0.06
O  O76  1  0.15116827  0.19207652  0.28615182  1  -1.162659  0.052988  -0.308724  -0.575301  0.025692  2.445268  0.048
O  O77  1  0.66099233  0.79968028  0.21263718  1  -1.156957  0.075495  -0.311015  -0.565612  0.039153  2.454175  0.06
O  O78  1  0.34888113  0.19209574  0.21383571  1  -1.163054  0.053021  -0.308579  -0.575226  0.025707  2.444648  0.048
O  O79  1  0.83895670  0.79971260  0.28737005  1  -1.156828  0.075482  -0.311067  -0.565575  0.039149  2.454186  0.06
O  O80  1  0.75003145  0.10553361  0.74999339  1  -1.136322  0.145016  -0.336466  -0.555682  0.077457  2.525727  0.116
O  O81  1  0.25000549  0.89809017  0.74998543  1  -1.100496  0.156302  -0.332982  -0.554648  0.084522  2.556113  0.129
O  O82  1  0.24997103  0.89446652  0.24999578  1  -1.136354  0.145013  -0.336503  -0.555701  0.077448  2.525464  0.116
O  O83  1  0.75000953  0.10190995  0.24999565  1  -1.100408  0.156294  -0.332983  -0.554548  0.084516  2.555761  0.129
F  F84  1  0.76601753  0.56213582  0.84205224  1  -0.615617  -0.000316  -0.092566  -0.108208  -0.000515  1.388163  0.0
F  F85  1  0.77723606  0.26494627  0.84122408  1  -0.623869  0.003553  -0.094799  -0.103946  0.001272  1.386598  0.002
F  F86  1  0.27404588  0.44367362  0.65796207  1  -0.613309  -9e-05  -0.091655  -0.106681  -0.000527  1.387934  0.0
F  F87  1  0.29019508  0.74097445  0.65893767  1  -0.623449  0.00252  -0.091667  -0.100285  0.000702  1.395054  0.002
F  F88  1  0.73393034  0.56215951  0.65794502  1  -0.61553  -0.000315  -0.092557  -0.108205  -0.000514  1.387983  0.0
F  F89  1  0.72280007  0.26496102  0.65876545  1  -0.623953  0.003553  -0.094748  -0.103918  0.001272  1.386715  0.002
F  F90  1  0.22605961  0.44372187  0.84203375  1  -0.61344  -9.1e-05  -0.091472  -0.106415  -0.000527  1.387993  0.0
F  F91  1  0.20978486  0.74102587  0.84103933  1  -0.622916  0.002518  -0.091745  -0.100213  0.000702  1.395063  0.002
F  F92  1  0.23392556  0.43783984  0.15794543  1  -0.615569  -0.000315  -0.092525  -0.10817  -0.000514  1.388102  0.0
F  F93  1  0.22271486  0.73505052  0.15876973  1  -0.624008  0.003552  -0.094799  -0.103953  0.001272  1.386834  0.002
F  F94  1  0.72600649  0.55629204  0.34203632  1  -0.613422  -9e-05  -0.091479  -0.10645  -0.000527  1.388123  0.0
F  F95  1  0.70981058  0.25898677  0.34104264  1  -0.623002  0.002518  -0.091742  -0.100198  0.000701  1.395015  0.002
F  F96  1  0.26602680  0.43788397  0.34205264  1  -0.615604  -0.000315  -0.092555  -0.108086  -0.000515  1.38832  0.0
F  F97  1  0.27719304  0.73507135  0.34122372  1  -0.623954  0.003553  -0.094726  -0.103897  0.001272  1.386688  0.002
F  F98  1  0.77402867  0.55631605  0.15796308  1  -0.613326  -9e-05  -0.091591  -0.106552  -0.000526  1.388085  0.0
F  F99  1  0.79024730  0.25900316  0.15894675  1  -0.62342  0.002518  -0.091729  -0.100225  0.000701  1.395175  0.002
