# generated using pymatgen
data_CdH8C6(SN5)2
_symmetry_space_group_name_H-M   'P 1'
_cell_length_a   5.86498043
_cell_length_b   9.13182958
_cell_length_c   12.76761987
_cell_angle_alpha   103.20125586
_cell_angle_beta   90.00015072
_cell_angle_gamma   89.99852520
_symmetry_Int_Tables_number   1
_chemical_formula_structural   CdH8C6(SN5)2
_chemical_formula_sum   'Cd2 H16 C12 S4 N20'
_cell_volume   665.73782134
_cell_formula_units_Z   2
loop_
 _symmetry_equiv_pos_site_id
 _symmetry_equiv_pos_as_xyz
  1  'x, y, z'
loop_
 _atom_site_type_symbol
 _atom_site_label
 _atom_site_symmetry_multiplicity
 _atom_site_fract_x
 _atom_site_fract_y
 _atom_site_fract_z
 _atom_site_occupancy
 _atom_site_hle17_bader_spin_density
 _atom_site_hle17_ddec_charge
 _atom_site_hle17_ddec_spin_density
 _atom_site_hle17_ddec_sum_bond_order
 _atom_site_hle17_magmom
 _atom_site_hse06_10hf_bader_spin_density
 _atom_site_hse06_10hf_ddec_charge
 _atom_site_hse06_10hf_ddec_spin_density
 _atom_site_hse06_10hf_ddec_sum_bond_order
 _atom_site_hse06_10hf_magmom
 _atom_site_hse06_bader_spin_density
 _atom_site_hse06_ddec_charge
 _atom_site_hse06_ddec_spin_density
 _atom_site_hse06_ddec_sum_bond_order
 _atom_site_hse06_magmom
 _atom_site_pbe_bader_spin_density
 _atom_site_pbe_cm5_charge
 _atom_site_pbe_ddec_charge
 _atom_site_pbe_ddec_spin_density
 _atom_site_pbe_ddec_sum_bond_order
 _atom_site_pbe_magmom
Cd  Cd0  1  0.50003051  0.50000340  0.49999480  1  0  0.973039  0  2.029655  0  0  0.788512  0  2.510053  0  0  0.83292  0  2.470946  0  0  0.735992  0.757241  0  2.536741  0
Cd  Cd1  1  0.00003581  0.99998992  0.00000004  1  0  0.973069  0  2.029475  0  0  0.788538  0  2.509849  0  0  0.83295  0  2.470743  0  0  0.735997  0.757269  0  2.536535  0
H  H2  1  0.46522720  0.10690583  0.75424170  1  0  0.108897  0  0.95908  0  0  0.115074  0  1.028988  0  0  0.116915  0  1.026275  0  0  0.134172  0.113497  0  1.030661  0
H  H3  1  0.96518908  0.39313007  0.74578722  1  0  0.108737  0  0.959149  0  0  0.114886  0  1.029055  0  0  0.11673  0  1.026347  0  0  0.134061  0.113313  0  1.030727  0
H  H4  1  0.53476561  0.89311510  0.24577588  1  0  0.108841  0  0.959115  0  0  0.114981  0  1.029059  0  0  0.116822  0  1.026358  0  0  0.134129  0.113423  0  1.030692  0
H  H5  1  0.03478838  0.60687261  0.25421741  1  0  0.108811  0  0.959037  0  0  0.114953  0  1.028959  0  0  0.1168  0  1.026251  0  0  0.134101  0.113374  0  1.030629  0
H  H6  1  0.84863870  0.15135287  0.48289584  1  0  0.120203  0  0.947083  0  0  0.123262  0  1.021883  0  0  0.126386  0  1.017384  0  0  0.138204  0.120649  0  1.025034  0
H  H7  1  0.34864733  0.34864567  0.01709863  1  0  0.12012  0  0.9471  0  0  0.123206  0  1.021859  0  0  0.126327  0  1.017371  0  0  0.13818  0.120599  0  1.024995  0
H  H8  1  0.15133706  0.84863808  0.51708665  1  0  0.119999  0  0.947096  0  0  0.123099  0  1.021867  0  0  0.126218  0  1.017383  0  0  0.138161  0.120497  0  1.024996  0
H  H9  1  0.65132843  0.65134680  0.98290054  1  0  0.120145  0  0.946857  0  0  0.123203  0  1.021661  0  0  0.126326  0  1.017166  0  0  0.138195  0.120564  0  1.024831  0
H  H10  1  0.92871878  0.02397248  0.71390080  1  0  0.274134  0  0.940656  0  0  0.255539  0  1.026161  0  0  0.260732  0  1.020759  0  0  0.287374  0.251813  0  1.029478  0
H  H11  1  0.42870664  0.47602430  0.78610570  1  0  0.274229  0  0.94062  0  0  0.255629  0  1.026129  0  0  0.260827  0  1.020718  0  0  0.287419  0.2519  0  1.029449  0
H  H12  1  0.07125357  0.97603694  0.28610408  1  0  0.274024  0  0.940822  0  0  0.255424  0  1.026318  0  0  0.26062  0  1.020917  0  0  0.287347  0.251697  0  1.029636  0
H  H13  1  0.57128277  0.52396609  0.21390020  1  0  0.274148  0  0.94072  0  0  0.255549  0  1.026218  0  0  0.260745  0  1.020812  0  0  0.287385  0.251822  0  1.029535  0
H  H14  1  0.77738136  0.88503993  0.64013275  1  0  0.265005  0  0.954714  0  0  0.250642  0  1.032718  0  0  0.255661  0  1.027774  0  0  0.275099  0.247007  0  1.035746  0
H  H15  1  0.27735829  0.61498161  0.85988443  1  0  0.265026  0  0.954857  0  0  0.250707  0  1.032792  0  0  0.255722  0  1.027862  0  0  0.275116  0.24707  0  1.035817  0
H  H16  1  0.22260975  0.11498082  0.35987776  1  0  0.265063  0  0.95478  0  0  0.250685  0  1.032799  0  0  0.255707  0  1.02786  0  0  0.275114  0.247051  0  1.03582  0
H  H17  1  0.72262429  0.38502788  0.14012359  1  0  0.265074  0  0.954792  0  0  0.250716  0  1.032773  0  0  0.255734  0  1.027836  0  0  0.275121  0.247083  0  1.035794  0
C  C18  1  0.52007550  0.14849370  0.68530493  1  0  0.119508  0  3.667549  0  0  0.050407  0  3.942516  0  0  0.071433  0  3.957329  0  0  0.149072  0.042928  0  3.934859  0
C  C19  1  0.02007354  0.35152725  0.81471651  1  0  0.119771  0  3.667611  0  0  0.050756  0  3.942594  0  0  0.071755  0  3.957412  0  0  0.149146  0.043272  0  3.93494  0
C  C20  1  0.47989856  0.85150472  0.31470846  1  0  0.119664  0  3.668064  0  0  0.050573  0  3.943039  0  0  0.071603  0  3.957875  0  0  0.149194  0.043092  0  3.935396  0
C  C21  1  0.97993291  0.64847637  0.18528044  1  0  0.119536  0  3.66782  0  0  0.050505  0  3.942855  0  0  0.071492  0  3.95767  0  0  0.149087  0.043035  0  3.935195  0
C  C22  1  0.71853571  0.17198862  0.54530773  1  0  0.148722  0  3.61128  0  0  0.076248  0  3.871681  0  0  0.098115  0  3.888076  0  0  0.158518  0.068276  0  3.862935  0
C  C23  1  0.21854730  0.32801473  0.95468229  1  0  0.148694  0  3.611458  0  0  0.076238  0  3.871883  0  0  0.098082  0  3.888281  0  0  0.158405  0.068269  0  3.863129  0
C  C24  1  0.28144176  0.82800331  0.45466865  1  0  0.149157  0  3.61144  0  0  0.07663  0  3.87189  0  0  0.098512  0  3.888297  0  0  0.158646  0.068658  0  3.863141  0
C  C25  1  0.78145574  0.67198781  0.04531606  1  0  0.148767  0  3.611303  0  0  0.076337  0  3.871742  0  0  0.098173  0  3.888129  0  0  0.158467  0.068391  0  3.863016  0
C  C26  1  0.00499021  0.41186598  0.36713390  1  0  0.295504  0  4.007486  0  0  0.275765  0  4.306343  0  0  0.296731  0  4.321003  0  0  0.143728  0.261388  0  4.296363  0
C  C27  1  0.50500964  0.08811263  0.13285871  1  0  0.29548  0  4.006961  0  0  0.275749  0  4.305823  0  0  0.296724  0  4.320481  0  0  0.14361  0.261367  0  4.295844  0
C  C28  1  0.99502818  0.58811879  0.63287115  1  0  0.29553  0  4.007759  0  0  0.275795  0  4.306601  0  0  0.296764  0  4.321262  0  0  0.143683  0.26142  0  4.29662  0
C  C29  1  0.49502068  0.91189009  0.86714750  1  0  0.295583  0  4.007449  0  0  0.275851  0  4.306294  0  0  0.296815  0  4.320954  0  0  0.143682  0.261478  0  4.296309  0
S  S30  1  0.25786833  0.36060629  0.31889801  1  0  -0.332546  0  2.209221  0  0  -0.294682  0  2.542631  0  0  -0.311834  0  2.535655  0  0  -0.132119  -0.282695  0  2.547493  0
S  S31  1  0.75784335  0.13939516  0.18110620  1  0  -0.33239  0  2.209415  0  0  -0.294504  0  2.542763  0  0  -0.311646  0  2.535779  0  0  -0.132036  -0.282526  0  2.547628  0
S  S32  1  0.74218757  0.63939836  0.68109518  1  0  -0.332486  0  2.209563  0  0  -0.294642  0  2.54303  0  0  -0.311784  0  2.536033  0  0  -0.132108  -0.282654  0  2.54788  0
S  S33  1  0.24218697  0.86060279  0.81888753  1  0  -0.332516  0  2.209235  0  0  -0.294652  0  2.542613  0  0  -0.311802  0  2.535642  0  0  -0.132119  -0.282666  0  2.547465  0
N  N34  1  0.86226972  0.98322720  0.63823068  1  0  -0.510194  0  2.917068  0  0  -0.52566  0  3.150387  0  0  -0.522815  0  3.15575  0  0  -0.497971  -0.520443  0  3.151592  0
N  N35  1  0.36225737  0.51678816  0.86177627  1  0  -0.510262  0  2.917112  0  0  -0.525758  0  3.15045  0  0  -0.522934  0  3.15581  0  0  -0.497969  -0.520536  0  3.151647  0
N  N36  1  0.13772310  0.01679102  0.36176770  1  0  -0.510073  0  2.917008  0  0  -0.525522  0  3.150309  0  0  -0.522672  0  3.155683  0  0  -0.497907  -0.5203  0  3.15151  0
N  N37  1  0.63773374  0.48321909  0.13823141  1  0  -0.51032  0  2.917049  0  0  -0.525763  0  3.150393  0  0  -0.522951  0  3.155739  0  0  -0.497964  -0.520543  0  3.151601  0
N  N38  1  0.81956346  0.44859667  0.39819528  1  0  -0.519488  0  2.925163  0  0  -0.464279  0  3.209534  0  0  -0.484984  0  3.216899  0  0  -0.391877  -0.450136  0  3.204586  0
N  N39  1  0.31951948  0.05138160  0.10182115  1  0  -0.519705  0  2.924512  0  0  -0.464508  0  3.208921  0  0  -0.485221  0  3.216283  0  0  -0.391843  -0.450361  0  3.203975  0
N  N40  1  0.18048562  0.55139743  0.60182529  1  0  -0.519647  0  2.924949  0  0  -0.464464  0  3.209311  0  0  -0.485171  0  3.216678  0  0  -0.391871  -0.450322  0  3.204362  0
N  N41  1  0.68048356  0.94859503  0.89817171  1  0  -0.519628  0  2.924847  0  0  -0.464449  0  3.209232  0  0  -0.485155  0  3.216595  0  0  -0.391833  -0.450311  0  3.204283  0
N  N42  1  0.42675493  0.25867681  0.64939711  1  0  -0.241619  0  2.97781  0  0  -0.220873  0  3.268564  0  0  -0.22914  0  3.280684  0  0  -0.236255  -0.215147  0  3.258106  0
N  N43  1  0.92673357  0.24134718  0.85062135  1  0  -0.241595  0  2.977696  0  0  -0.220849  0  3.268438  0  0  -0.229108  0  3.280561  0  0  -0.236171  -0.215125  0  3.257978  0
N  N44  1  0.57324641  0.74132916  0.35060411  1  0  -0.241638  0  2.978045  0  0  -0.220882  0  3.268777  0  0  -0.229143  0  3.280897  0  0  -0.236283  -0.21516  0  3.258323  0
N  N45  1  0.07326266  0.75864859  0.14937519  1  0  -0.241429  0  2.977827  0  0  -0.220681  0  3.268555  0  0  -0.22894  0  3.280674  0  0  -0.236142  -0.21496  0  3.258098  0
N  N46  1  0.55311972  0.27322912  0.56049193  1  0  -0.282061  0  3.181375  0  0  -0.220389  0  3.476666  0  0  -0.23745  0  3.492377  0  0  -0.247207  -0.20856  0  3.463494  0
N  N47  1  0.05312331  0.22677405  0.93951274  1  0  -0.282235  0  3.181335  0  0  -0.220579  0  3.476641  0  0  -0.237637  0  3.492353  0  0  -0.247265  -0.20875  0  3.463468  0
N  N48  1  0.44686968  0.72676103  0.43950376  1  0  -0.282308  0  3.18142  0  0  -0.220646  0  3.476769  0  0  -0.237703  0  3.492465  0  0  -0.247273  -0.208814  0  3.463601  0
N  N49  1  0.94687291  0.77321716  0.06048075  1  0  -0.282335  0  3.181577  0  0  -0.220683  0  3.476885  0  0  -0.237739  0  3.492596  0  0  -0.247294  -0.208851  0  3.46371  0
N  N50  1  0.70288017  0.09081804  0.62239902  1  0  0.067495  0  3.589392  0  0  0.184771  0  3.775915  0  0  0.143869  0  3.83498  0  0  -0.148718  0.192876  0  3.759837  0
N  N51  1  0.20288646  0.40919264  0.87760541  1  0  0.067547  0  3.58948  0  0  0.184779  0  3.776069  0  0  0.14393  0  3.835089  0  0  -0.148639  0.192879  0  3.759994  0
N  N52  1  0.29709901  0.90917769  0.37759595  1  0  0.067313  0  3.589529  0  0  0.184635  0  3.776032  0  0  0.143685  0  3.835142  0  0  -0.148836  0.192735  0  3.759966  0
N  N53  1  0.79711658  0.59081331  0.12239502  1  0  0.067637  0  3.589373  0  0  0.184822  0  3.77598  0  0  0.144003  0  3.834969  0  0  -0.148705  0.192924  0  3.759902  0
