# generated using pymatgen
data_ZnH14C14(N2O)6
_symmetry_space_group_name_H-M   'P 1'
_cell_length_a   7.25106497
_cell_length_b   7.62926776
_cell_length_c   9.44433448
_cell_angle_alpha   69.84973617
_cell_angle_beta   85.36746678
_cell_angle_gamma   99.53217190
_symmetry_Int_Tables_number   1
_chemical_formula_structural   ZnH14C14(N2O)6
_chemical_formula_sum   'Zn1 H14 C14 N12 O6'
_cell_volume   478.32377894
_cell_formula_units_Z   1
loop_
 _symmetry_equiv_pos_site_id
 _symmetry_equiv_pos_as_xyz
  1  'x, y, z'
loop_
 _atom_site_type_symbol
 _atom_site_label
 _atom_site_symmetry_multiplicity
 _atom_site_fract_x
 _atom_site_fract_y
 _atom_site_fract_z
 _atom_site_occupancy
 _atom_site_pbe_bader_spin_density
 _atom_site_pbe_cm5_charge
 _atom_site_pbe_ddec_charge
 _atom_site_pbe_ddec_spin_density
 _atom_site_pbe_ddec_sum_bond_order
 _atom_site_pbe_magmom
Zn  Zn0  1  0.50000849  0.00000080  0.50000267  1  0  0.67864  0.865373  0  2.242409  0
H  H1  1  0.53603433  0.30268205  0.56927094  1  0  0.281889  0.365322  0  0.98777  0
H  H2  1  0.46397468  0.69731946  0.43073444  1  0  0.2819  0.365292  0  0.987779  0
H  H3  1  0.69592385  0.38460058  0.42524385  1  0  0.308619  0.404572  0  0.896336  0
H  H4  1  0.30407737  0.61540712  0.57475834  1  0  0.308631  0.404582  0  0.89634  0
H  H5  1  0.04176589  0.02035721  0.20327142  1  0  0.125044  0.12807  0  1.026175  0
H  H6  1  0.95823392  0.97965854  0.79670849  1  0  0.124957  0.128008  0  1.026024  0
H  H7  1  0.07488169  0.84635768  0.37833893  1  0  0.130575  0.156149  0  0.967434  0
H  H8  1  0.92513433  0.15366676  0.62163712  1  0  0.130593  0.156211  0  0.967474  0
H  H9  1  0.28301698  0.32146586  0.38427029  1  0  0.12613  0.103059  0  1.023498  0
H  H10  1  0.71699554  0.67854302  0.61573164  1  0  0.126178  0.103103  0  1.023433  0
H  H11  1  0.53206911  0.01335253  0.16512933  1  0  0.121027  0.092569  0  1.023641  0
H  H12  1  0.46791763  0.98663817  0.83487467  1  0  0.121028  0.092637  0  1.02365  0
H  H13  1  0.42178546  0.20156874  0.91867902  1  0  0.113788  0.087908  0  1.020681  0
H  H14  1  0.57818603  0.79840779  0.08133347  1  0  0.113705  0.087809  0  1.020747  0
C  C15  1  0.78541895  0.83974485  0.33776784  1  0  0.212738  0.617152  0  4.17895  0
C  C16  1  0.21459403  0.16025700  0.66223180  1  0  0.212724  0.617281  0  4.178774  0
C  C17  1  0.99674802  0.87167420  0.28069543  1  0  -0.048657  -0.277189  0  3.844717  0
C  C18  1  0.00326012  0.12834102  0.71928497  1  0  -0.048606  -0.277239  0  3.844276  0
C  C19  1  0.15945948  0.55158226  0.13798847  1  0  0.221694  0.196445  0  4.064589  0
C  C20  1  0.84053133  0.44840884  0.86201189  1  0  0.221732  0.196452  0  4.064447  0
C  C21  1  0.25233607  0.39367875  0.14544767  1  0  0.135234  0.129161  0  4.006057  0
C  C22  1  0.74765484  0.60631237  0.85455479  1  0  0.135322  0.129292  0  4.00586  0
C  C23  1  0.31196721  0.29068325  0.28144754  1  0  0.066317  0.036898  0  3.843989  0
C  C24  1  0.68803743  0.70933042  0.71855267  1  0  0.066193  0.036777  0  3.844125  0
C  C25  1  0.44933420  0.12148969  0.15935959  1  0  0.056993  0.055555  0  3.907242  0
C  C26  1  0.55065146  0.87849962  0.84065549  1  0  0.056975  0.055339  0  3.907352  0
C  C27  1  0.38898719  0.22539146  0.02451995  1  0  0.052863  0.045118  0  3.974536  0
C  C28  1  0.61099864  0.77458937  0.97549010  1  0  0.052956  0.045333  0  3.974301  0
N  N29  1  0.09458615  0.58664196  0.26073010  1  0  -0.186371  -0.263918  0  3.044429  0
N  N30  1  0.90541970  0.41335776  0.73927182  1  0  -0.186424  -0.263971  0  3.044534  0
N  N31  1  0.05191915  0.75647068  0.19677223  1  0  -0.00046  0.303151  0  3.789052  0
N  N32  1  0.94808641  0.24352894  0.80322338  1  0  -0.00045  0.303194  0  3.788958  0
N  N33  1  0.08801778  0.82513022  0.04358426  1  0  -0.066729  -0.106913  0  3.177308  0
N  N34  1  0.91197239  0.17485654  0.95641313  1  0  -0.066814  -0.10708  0  3.177236  0
N  N35  1  0.15461749  0.69578056  0.00513265  1  0  -0.186521  -0.219489  0  3.253138  0
N  N36  1  0.84536380  0.30420108  0.99486697  1  0  -0.186461  -0.219393  0  3.252967  0
N  N37  1  0.40949940  0.15443115  0.28790495  1  0  -0.300798  -0.185063  0  3.520636  0
N  N38  1  0.59050036  0.84557365  0.71210348  1  0  -0.300804  -0.185043  0  3.520894  0
N  N39  1  0.29149498  0.36136810  0.01604543  1  0  -0.28806  -0.225557  0  3.282281  0
N  N40  1  0.70849017  0.63860975  0.98395704  1  0  -0.288065  -0.225597  0  3.282096  0
O  O41  1  0.74781198  0.97133407  0.38227687  1  0  -0.324089  -0.558437  0  2.277414  0
O  O42  1  0.25221161  0.02866908  0.61773844  1  0  -0.323908  -0.558302  0  2.277441  0
O  O43  1  0.67101172  0.69395208  0.33999247  1  0  -0.317444  -0.560647  0  2.160892  0
O  O44  1  0.32899984  0.30606091  0.66000839  1  0  -0.317555  -0.560835  0  2.160719  0
O  O45  1  0.64144776  0.26893536  0.51403049  1  0  -0.573106  -0.756606  0  2.128026  0
O  O46  1  0.35855538  0.73106548  0.48597029  1  0  -0.573127  -0.756535  0  2.127995  0
