# generated using pymatgen
data_ZnH6C11(NO2)2
_symmetry_space_group_name_H-M   'P 1'
_cell_length_a   7.41008652
_cell_length_b   9.16043705
_cell_length_c   17.32983430
_cell_angle_alpha   96.25975797
_cell_angle_beta   81.39846523
_cell_angle_gamma   99.98780181
_symmetry_Int_Tables_number   1
_chemical_formula_structural   ZnH6C11(NO2)2
_chemical_formula_sum   'Zn2 H12 C22 N4 O8'
_cell_volume   1141.30603187
_cell_formula_units_Z   2
loop_
 _symmetry_equiv_pos_site_id
 _symmetry_equiv_pos_as_xyz
  1  'x, y, z'
loop_
 _atom_site_type_symbol
 _atom_site_label
 _atom_site_symmetry_multiplicity
 _atom_site_fract_x
 _atom_site_fract_y
 _atom_site_fract_z
 _atom_site_occupancy
 _atom_site_pbe_bader_charge
 _atom_site_pbe_bader_spin_density
 _atom_site_pbe_cm5_charge
 _atom_site_pbe_ddec_charge
 _atom_site_pbe_ddec_spin_density
 _atom_site_pbe_ddec_sum_bond_order
 _atom_site_pbe_magmom
Zn  Zn0  1  0.68856960  0.55157493  0.49987361  1  1.28174  0  0.671886  0.813771  0  2.408538  0
Zn  Zn1  1  0.31017071  0.44287352  0.51097631  1  1.28559  0  0.671759  0.816042  0  2.418351  0
H  H2  1  0.26513620  0.31342985  0.27152162  1  0.107127  0  0.109263  0.1162  0  0.989345  0
H  H3  1  0.70825814  0.04039142  0.50606998  1  0.09493  0  0.112993  0.131664  0  0.982776  0
H  H4  1  0.91655512  0.35087958  0.51150365  1  0.499815  0  0.321234  0.276399  0  0.945756  0
H  H5  1  0.08189373  0.64406643  0.49963139  1  0.500177  0  0.321598  0.275302  0  0.949073  0
H  H6  1  0.76068808  0.56256150  0.74183539  1  0.106479  0  0.109213  0.116606  0  0.989399  0
H  H7  1  0.17988736  0.39154837  0.75535510  1  0.088723  0  0.109888  0.116551  0  0.989001  0
H  H8  1  0.84321795  0.49736701  0.24635261  1  0.119486  0  0.11048  0.117712  0  0.98673  0
H  H9  1  0.86143276  0.45306076  0.10206562  1  0.135669  0  0.100056  0.1117  0  1.057639  0
H  H10  1  0.16946466  0.34740616  0.89476248  1  0.144758  0  0.100854  0.111607  0  1.049663  0
H  H11  1  0.75487229  0.51802149  0.88113024  1  0.078569  0  0.108841  0.112795  0  0.996332  0
H  H12  1  0.27954586  0.26707001  0.12687298  1  0.064141  0  0.109499  0.113065  0  0.991593  0
H  H13  1  0.28796530  0.95176539  0.50498324  1  0.121971  0  0.113283  0.13151  0  0.982845  0
C  C14  1  0.46758014  0.78185671  0.50270980  1  1.552705  0  0.221072  0.646673  0  4.150125  0
C  C15  1  0.63284380  0.51375222  0.77576245  1  0.023543  0  -0.077295  -0.079648  0  3.961092  0
C  C16  1  0.40243129  0.32029392  0.15264403  1  -0.002858  0  -0.08359  -0.125284  0  3.981716  0
C  C17  1  0.62924740  0.48746817  0.85354740  1  -0.018202  0  -0.082734  -0.124309  0  3.97068  0
C  C18  1  0.56908742  0.36400751  0.10442522  1  -0.028837  0  -0.00212  0.074546  0  4.006542  0
C  C19  1  0.46228231  0.42778709  0.89726745  1  -0.054352  0  -0.001894  0.073181  0  4.00606  0
C  C20  1  0.72991833  0.42213868  0.13865118  1  0.031114  0  -0.085017  -0.124753  0  3.940037  0
C  C21  1  0.29979461  0.39422287  0.86155574  1  -0.042529  0  -0.083163  -0.120722  0  3.940834  0
C  C22  1  0.72036525  0.44750732  0.21966235  1  -0.020619  0  -0.075537  -0.07439  0  3.950811  0
C  C23  1  0.30487762  0.41897390  0.78349650  1  -0.034896  0  -0.075545  -0.073597  0  3.951441  0
C  C24  1  0.57758349  0.35987202  0.01829695  1  0.054946  0  0.033254  0.003249  0  3.980778  0
C  C25  1  0.52780812  0.20962034  0.50820053  1  1.563112  0  0.217249  0.641875  0  4.156828  0
C  C26  1  0.45111383  0.41136118  0.98192812  1  0.209815  0  0.03486  0.003506  0  3.9754  0
C  C27  1  0.29714944  0.46634740  0.02827182  1  0.819913  0  0.191668  0.24359  0  4.031139  0
C  C28  1  0.73210133  0.30475692  0.97276900  1  0.842889  0  0.19013  0.24354  0  4.032824  0
C  C29  1  0.43096850  0.93659321  0.50441748  1  -0.032016  0  -0.074812  -0.167182  0  3.880554  0
C  C30  1  0.56518629  0.05500825  0.50638291  1  -0.046078  0  -0.075336  -0.165429  0  3.880302  0
C  C31  1  0.53688734  0.44929259  0.35426881  1  1.555961  0  0.219919  0.601251  0  4.154667  0
C  C32  1  0.47613649  0.50625742  0.65606816  1  1.566484  0  0.218461  0.599331  0  4.156949  0
C  C33  1  0.55144659  0.41273642  0.26755513  1  -0.159759  0  -0.012926  -0.032004  0  3.960469  0
C  C34  1  0.47088192  0.48014839  0.74018457  1  -0.044714  0  -0.012189  -0.029707  0  3.952792  0
C  C35  1  0.39406529  0.34492582  0.23356018  1  0.009914  0  -0.077913  -0.078848  0  3.965063  0
N  N36  1  0.02815505  0.43943236  0.50925646  1  -0.414234  0  -0.231119  -0.100718  0  3.130489  0
N  N37  1  0.97023466  0.55552220  0.50166925  1  -0.414755  0  -0.227366  -0.092073  0  3.132938  0
N  N38  1  0.17096512  0.51750861  0.06216124  1  -1.118364  0  -0.288161  -0.338461  0  2.731596  0
N  N39  1  0.85902076  0.25488075  0.93862804  1  -1.125412  0  -0.289888  -0.340657  0  2.722961  0
O  O40  1  0.63410754  0.76032517  0.49773208  1  -1.150002  0  -0.315306  -0.527885  0  2.266168  0
O  O41  1  0.36149185  0.22999008  0.51106110  1  -1.14238  0  -0.3151  -0.52891  0  2.26138  0
O  O42  1  0.32563862  0.67944651  0.50684620  1  -1.17637  0  -0.313762  -0.582342  0  2.32636  0
O  O43  1  0.66916768  0.31265893  0.50632629  1  -1.180484  0  -0.314557  -0.585504  0  2.320238  0
O  O44  1  0.68559602  0.50159126  0.38336124  1  -1.160883  0  -0.319565  -0.544228  0  2.315838  0
O  O45  1  0.32423658  0.47296367  0.62702644  1  -1.161045  0  -0.319885  -0.546645  0  2.326095  0
O  O46  1  0.37541089  0.42676170  0.39294604  1  -1.170637  0  -0.321413  -0.55523  0  2.345313  0
O  O47  1  0.63225523  0.55726759  0.61890541  1  -1.160144  0  -0.321269  -0.55314  0  2.326708  0
