# generated using pymatgen
data_CdH3(CN2)4
_symmetry_space_group_name_H-M   'P 1'
_cell_length_a   7.70067691
_cell_length_b   8.00447148
_cell_length_c   13.09384745
_cell_angle_alpha   90.00035322
_cell_angle_beta   89.99964634
_cell_angle_gamma   109.42757325
_symmetry_Int_Tables_number   1
_chemical_formula_structural   CdH3(CN2)4
_chemical_formula_sum   'Cd4 H12 C16 N32'
_cell_volume   761.14852053
_cell_formula_units_Z   4
loop_
 _symmetry_equiv_pos_site_id
 _symmetry_equiv_pos_as_xyz
  1  'x, y, z'
loop_
 _atom_site_type_symbol
 _atom_site_label
 _atom_site_symmetry_multiplicity
 _atom_site_fract_x
 _atom_site_fract_y
 _atom_site_fract_z
 _atom_site_occupancy
 _atom_site_hle17_bader_spin_density
 _atom_site_hle17_ddec_charge
 _atom_site_hle17_ddec_spin_density
 _atom_site_hle17_ddec_sum_bond_order
 _atom_site_hle17_magmom
 _atom_site_hse06_10hf_bader_spin_density
 _atom_site_hse06_10hf_ddec_charge
 _atom_site_hse06_10hf_ddec_spin_density
 _atom_site_hse06_10hf_ddec_sum_bond_order
 _atom_site_hse06_10hf_magmom
 _atom_site_hse06_bader_spin_density
 _atom_site_hse06_ddec_charge
 _atom_site_hse06_ddec_spin_density
 _atom_site_hse06_ddec_sum_bond_order
 _atom_site_hse06_magmom
 _atom_site_pbe_bader_spin_density
 _atom_site_pbe_cm5_charge
 _atom_site_pbe_ddec_charge
 _atom_site_pbe_ddec_spin_density
 _atom_site_pbe_ddec_sum_bond_order
 _atom_site_pbe_magmom
Cd  Cd0  1  0.36400104  0.79966232  0.92340552  1  0  1.04019  0  1.892864  0  0  0.853763  0  2.371584  0  0  0.901154  0  2.330286  0  0  0.808589  0.820581  0  2.399546  0
Cd  Cd1  1  0.63599834  0.70033763  0.42340818  1  0  1.040219  0  1.892779  0  0  0.85379  0  2.371511  0  0  0.901184  0  2.33021  0  0  0.808592  0.82059  0  2.399487  0
Cd  Cd2  1  0.63599807  0.20033820  0.07659321  1  0  1.040232  0  1.892827  0  0  0.853801  0  2.371561  0  0  0.901192  0  2.330262  0  0  0.808605  0.820616  0  2.399528  0
Cd  Cd3  1  0.36400160  0.29966156  0.57659208  1  0  1.040187  0  1.89285  0  0  0.853755  0  2.371603  0  0  0.901149  0  2.330303  0  0  0.808576  0.820558  0  2.399579  0
H  H4  1  0.91053311  0.36483569  0.28266996  1  0  0.087597  0  0.972121  0  0  0.088568  0  1.045891  0  0  0.091131  0  1.043308  0  0  0.116631  0.086635  0  1.047771  0
H  H5  1  0.08947318  0.13516692  0.78267073  1  0  0.087672  0  0.972098  0  0  0.088639  0  1.045865  0  0  0.091202  0  1.043284  0  0  0.116702  0.086705  0  1.047749  0
H  H6  1  0.08946823  0.63516748  0.71732953  1  0  0.087693  0  0.972224  0  0  0.088658  0  1.045972  0  0  0.09122  0  1.043391  0  0  0.116695  0.086725  0  1.047849  0
H  H7  1  0.91053371  0.86483356  0.21732876  1  0  0.087634  0  0.972135  0  0  0.088602  0  1.045903  0  0  0.091165  0  1.043322  0  0  0.116658  0.086666  0  1.047789  0
H  H8  1  0.21537500  0.60649429  0.32313266  1  0  0.125455  0  0.962101  0  0  0.12909  0  1.030159  0  0  0.132243  0  1.030193  0  0  0.113777  0.126788  0  1.030418  0
H  H9  1  0.78462999  0.89350754  0.82313418  1  0  0.125405  0  0.962183  0  0  0.129053  0  1.030206  0  0  0.132207  0  1.030239  0  0  0.113762  0.126735  0  1.030506  0
H  H10  1  0.78462550  0.39351021  0.67686683  1  0  0.125416  0  0.962174  0  0  0.129073  0  1.030184  0  0  0.132227  0  1.030216  0  0  0.113766  0.126753  0  1.030481  0
H  H11  1  0.21537477  0.10649428  0.17686685  1  0  0.125447  0  0.962116  0  0  0.12908  0  1.030182  0  0  0.132233  0  1.030213  0  0  0.113773  0.126775  0  1.030444  0
H  H12  1  0.40086588  0.77104096  0.17212813  1  0  0.081264  0  0.949409  0  0  0.086029  0  1.019247  0  0  0.087919  0  1.017676  0  0  0.121419  0.084535  0  1.02047  0
H  H13  1  0.59913641  0.72895974  0.67213122  1  0  0.081328  0  0.949354  0  0  0.086091  0  1.019189  0  0  0.087978  0  1.01762  0  0  0.121444  0.084596  0  1.020408  0
H  H14  1  0.59913499  0.22896088  0.82787061  1  0  0.081311  0  0.949355  0  0  0.086077  0  1.019193  0  0  0.08796  0  1.017628  0  0  0.121428  0.084584  0  1.020415  0
H  H15  1  0.40086399  0.27104078  0.32787209  1  0  0.081297  0  0.949337  0  0  0.086036  0  1.019202  0  0  0.087943  0  1.017614  0  0  0.121417  0.084541  0  1.020424  0
C  C16  1  0.03685639  0.51535819  0.05300136  1  0  0.331879  0  3.752412  0  0  0.304235  0  4.009529  0  0  0.318289  0  4.022652  0  0  0.265636  0.294804  0  4.000742  0
C  C17  1  0.96314379  0.98464029  0.55300258  1  0  0.331922  0  3.75236  0  0  0.304291  0  4.009431  0  0  0.318351  0  4.022549  0  0  0.265692  0.294868  0  4.00064  0
C  C18  1  0.96314272  0.48464233  0.94699737  1  0  0.331922  0  3.752385  0  0  0.30428  0  4.009469  0  0  0.318335  0  4.022591  0  0  0.265631  0.294847  0  4.000683  0
C  C19  1  0.03685393  0.01535626  0.44699769  1  0  0.331888  0  3.752503  0  0  0.304281  0  4.00956  0  0  0.318336  0  4.022682  0  0  0.265574  0.294844  0  4.000771  0
C  C20  1  0.99676960  0.44832043  0.22356205  1  0  0.200946  0  3.632892  0  0  0.166295  0  3.885984  0  0  0.177163  0  3.901314  0  0  0.075402  0.159305  0  3.875648  0
C  C21  1  0.00323104  0.05167910  0.72356358  1  0  0.200908  0  3.632902  0  0  0.166262  0  3.885994  0  0  0.177128  0  3.90133  0  0  0.07536  0.159274  0  3.875656  0
C  C22  1  0.00323256  0.55168140  0.77643668  1  0  0.200805  0  3.63306  0  0  0.166155  0  3.886134  0  0  0.177021  0  3.901468  0  0  0.075339  0.159169  0  3.87579  0
C  C23  1  0.99676714  0.94831877  0.27643820  1  0  0.200891  0  3.633037  0  0  0.166231  0  3.886134  0  0  0.177097  0  3.901468  0  0  0.075331  0.159237  0  3.875802  0
C  C24  1  0.16424763  0.57883126  0.24538016  1  0  -0.151981  0  3.651051  0  0  -0.162511  0  3.90164  0  0  -0.17409  0  3.923256  0  0  -0.070915  -0.15538  0  3.887569  0
C  C25  1  0.83575714  0.92117131  0.74538312  1  0  -0.151856  0  3.651032  0  0  -0.162387  0  3.901599  0  0  -0.173963  0  3.923216  0  0  -0.070868  -0.155259  0  3.887532  0
C  C26  1  0.83575241  0.42117192  0.75461858  1  0  -0.151881  0  3.651064  0  0  -0.162417  0  3.901642  0  0  -0.173994  0  3.923256  0  0  -0.070885  -0.155285  0  3.887568  0
C  C27  1  0.16424586  0.07882919  0.25461867  1  0  -0.151913  0  3.651033  0  0  -0.162458  0  3.901611  0  0  -0.174036  0  3.923232  0  0  -0.070886  -0.155327  0  3.88755  0
C  C28  1  0.26530748  0.67114889  0.16295288  1  0  0.203172  0  3.654846  0  0  0.165711  0  3.910254  0  0  0.176712  0  3.926422  0  0  0.074982  0.158632  0  3.899386  0
C  C29  1  0.73469488  0.82885174  0.66295586  1  0  0.203059  0  3.654836  0  0  0.165591  0  3.910241  0  0  0.176591  0  3.926421  0  0  0.074918  0.158518  0  3.899364  0
C  C30  1  0.73469209  0.32885296  0.83704509  1  0  0.203073  0  3.654828  0  0  0.165594  0  3.91023  0  0  0.1766  0  3.926409  0  0  0.074934  0.158517  0  3.899358  0
C  C31  1  0.26530506  0.17114745  0.33704669  1  0  0.203129  0  3.654844  0  0  0.165695  0  3.910248  0  0  0.176682  0  3.926415  0  0  0.074978  0.158618  0  3.899374  0
N  N32  1  0.20137670  0.63970673  0.06719346  1  0  -0.364264  0  3.196783  0  0  -0.297664  0  3.464551  0  0  -0.318392  0  3.479203  0  0  -0.308148  -0.283882  0  3.454622  0
N  N33  1  0.79862123  0.86029319  0.56719633  1  0  -0.364315  0  3.196856  0  0  -0.297695  0  3.464591  0  0  -0.318426  0  3.47924  0  0  -0.308167  -0.283917  0  3.454659  0
N  N34  1  0.79862194  0.36029246  0.93280451  1  0  -0.364286  0  3.196752  0  0  -0.297647  0  3.464463  0  0  -0.318377  0  3.479114  0  0  -0.30813  -0.283864  0  3.454533  0
N  N35  1  0.20137518  0.13970336  0.43280546  1  0  -0.364303  0  3.196911  0  0  -0.297702  0  3.464633  0  0  -0.318435  0  3.479292  0  0  -0.308136  -0.283918  0  3.4547  0
N  N36  1  0.93408358  0.41628716  0.12744444  1  0  -0.363289  0  3.161891  0  0  -0.29881  0  3.423891  0  0  -0.319076  0  3.439081  0  0  -0.304103  -0.285349  0  3.413612  0
N  N37  1  0.06591699  0.08371297  0.62744511  1  0  -0.363352  0  3.161816  0  0  -0.298879  0  3.423817  0  0  -0.319146  0  3.439007  0  0  -0.304158  -0.285418  0  3.413535  0
N  N38  1  0.06591683  0.58371335  0.87255505  1  0  -0.363284  0  3.161916  0  0  -0.298776  0  3.423871  0  0  -0.319042  0  3.439063  0  0  -0.304103  -0.285315  0  3.41359  0
N  N39  1  0.93408425  0.91628621  0.37255439  1  0  -0.363269  0  3.162026  0  0  -0.298762  0  3.423967  0  0  -0.31903  0  3.439159  0  0  -0.304033  -0.285295  0  3.413682  0
N  N40  1  0.50360566  0.59685213  0.86689590  1  0  -0.494343  0  2.580775  0  0  -0.475586  0  2.859024  0  0  -0.4928  0  2.868188  0  0  -0.267511  -0.463429  0  2.852574  0
N  N41  1  0.49639416  0.90314740  0.36689678  1  0  -0.494316  0  2.580762  0  0  -0.475467  0  2.859061  0  0  -0.492678  0  2.868217  0  0  -0.267426  -0.46331  0  2.852615  0
N  N42  1  0.49639252  0.40314575  0.13310512  1  0  -0.494299  0  2.58086  0  0  -0.475556  0  2.859102  0  0  -0.492776  0  2.868279  0  0  -0.267498  -0.463401  0  2.852655  0
N  N43  1  0.50360754  0.09685311  0.63310272  1  0  -0.494306  0  2.580755  0  0  -0.475457  0  2.859056  0  0  -0.492674  0  2.868225  0  0  -0.26741  -0.463298  0  2.852609  0
N  N44  1  0.42553059  0.48923233  0.80565334  1  0  0.406157  0  4.270943  0  0  0.438954  0  4.550482  0  0  0.455813  0  4.581588  0  0  0.079642  0.427636  0  4.529238  0
N  N45  1  0.57446894  0.01076651  0.30565475  1  0  0.405944  0  4.270973  0  0  0.438737  0  4.550529  0  0  0.455596  0  4.581636  0  0  0.079519  0.427417  0  4.529287  0
N  N46  1  0.57446805  0.51076687  0.19434692  1  0  0.40608  0  4.271018  0  0  0.43888  0  4.550553  0  0  0.455738  0  4.58166  0  0  0.079603  0.427561  0  4.529313  0
N  N47  1  0.42553230  0.98923268  0.69434475  1  0  0.405925  0  4.27106  0  0  0.438696  0  4.550651  0  0  0.455556  0  4.581759  0  0  0.079508  0.427377  0  4.529406  0
N  N48  1  0.34797663  0.37699102  0.74693867  1  0  -0.517735  0  2.654712  0  0  -0.495497  0  2.945636  0  0  -0.514913  0  2.954337  0  0  -0.269528  -0.481916  0  2.939581  0
N  N49  1  0.65202336  0.12300737  0.24693946  1  0  -0.517569  0  2.654716  0  0  -0.495419  0  2.94562  0  0  -0.514837  0  2.954324  0  0  -0.269516  -0.481841  0  2.939564  0
N  N50  1  0.65202507  0.62300949  0.25306083  1  0  -0.51772  0  2.654679  0  0  -0.495463  0  2.945596  0  0  -0.514878  0  2.954298  0  0  -0.269517  -0.481883  0  2.939543  0
N  N51  1  0.34797964  0.87699313  0.75305928  1  0  -0.517541  0  2.654811  0  0  -0.495373  0  2.945734  0  0  -0.514789  0  2.954439  0  0  -0.26951  -0.481796  0  2.939675  0
N  N52  1  0.64184686  0.92851712  0.01566595  1  0  -0.637509  0  2.784312  0  0  -0.584632  0  3.096553  0  0  -0.613371  0  3.102741  0  0  -0.337505  -0.564567  0  3.091796  0
N  N53  1  0.35815278  0.57148240  0.51566704  1  0  -0.637527  0  2.784356  0  0  -0.584633  0  3.096597  0  0  -0.613373  0  3.102787  0  0  -0.337529  -0.564572  0  3.091844  0
N  N54  1  0.35815141  0.07148473  0.98433354  1  0  -0.637572  0  2.78424  0  0  -0.584697  0  3.096448  0  0  -0.613447  0  3.10265  0  0  -0.337538  -0.564633  0  3.091695  0
N  N55  1  0.64184800  0.42851546  0.48433246  1  0  -0.637605  0  2.784301  0  0  -0.58469  0  3.096526  0  0  -0.613445  0  3.102739  0  0  -0.337532  -0.564627  0  3.091771  0
N  N56  1  0.76238043  0.86433465  0.02507232  1  0  0.416956  0  4.231866  0  0  0.449407  0  4.512034  0  0  0.466215  0  4.540839  0  0  0.088373  0.438053  0  4.492322  0
N  N57  1  0.23761950  0.63566229  0.52507180  1  0  0.416948  0  4.231856  0  0  0.449377  0  4.512035  0  0  0.466183  0  4.540841  0  0  0.08836  0.43802  0  4.492322  0
N  N58  1  0.23761525  0.13566722  0.97492794  1  0  0.416852  0  4.232046  0  0  0.449327  0  4.512188  0  0  0.466134  0  4.540988  0  0  0.088302  0.437972  0  4.49248  0
N  N59  1  0.76238081  0.36433424  0.47492694  1  0  0.41702  0  4.231684  0  0  0.449454  0  4.511865  0  0  0.46626  0  4.540663  0  0  0.088369  0.438097  0  4.492149  0
N  N60  1  0.87855289  0.80238629  0.03368444  1  0  -0.364488  0  2.414233  0  0  -0.367389  0  2.646472  0  0  -0.374026  0  2.657434  0  0  -0.186719  -0.362457  0  2.639092  0
N  N61  1  0.12144179  0.69761074  0.53368380  1  0  -0.36447  0  2.414181  0  0  -0.367361  0  2.646433  0  0  -0.374  0  2.657396  0  0  -0.186701  -0.362432  0  2.639049  0
N  N62  1  0.12144529  0.19761158  0.96631659  1  0  -0.364335  0  2.414469  0  0  -0.367244  0  2.646694  0  0  -0.373876  0  2.657655  0  0  -0.186609  -0.362319  0  2.63932  0
N  N63  1  0.87855593  0.30238581  0.46631570  1  0  -0.364489  0  2.414084  0  0  -0.367385  0  2.646318  0  0  -0.374019  0  2.657279  0  0  -0.186705  -0.362459  0  2.638942  0
