# generated using pymatgen
data_CuH9C6IN2
_symmetry_space_group_name_H-M   'P 1'
_cell_length_a   10.19197491
_cell_length_b   10.68163216
_cell_length_c   11.68308978
_cell_angle_alpha   106.73408613
_cell_angle_beta   90.59811091
_cell_angle_gamma   101.94967336
_symmetry_Int_Tables_number   1
_chemical_formula_structural   CuH9C6IN2
_chemical_formula_sum   'Cu6 H54 C36 I6 N12'
_cell_volume   1188.30770299
_cell_formula_units_Z   6
loop_
 _symmetry_equiv_pos_site_id
 _symmetry_equiv_pos_as_xyz
  1  'x, y, z'
loop_
 _atom_site_type_symbol
 _atom_site_label
 _atom_site_symmetry_multiplicity
 _atom_site_fract_x
 _atom_site_fract_y
 _atom_site_fract_z
 _atom_site_occupancy
 _atom_site_hle17_bader_spin_density
 _atom_site_hle17_ddec_charge
 _atom_site_hle17_ddec_spin_density
 _atom_site_hle17_ddec_sum_bond_order
 _atom_site_hle17_magmom
 _atom_site_hse06_10hf_bader_spin_density
 _atom_site_hse06_10hf_ddec_charge
 _atom_site_hse06_10hf_ddec_spin_density
 _atom_site_hse06_10hf_ddec_sum_bond_order
 _atom_site_hse06_10hf_magmom
 _atom_site_hse06_bader_spin_density
 _atom_site_hse06_ddec_charge
 _atom_site_hse06_ddec_spin_density
 _atom_site_hse06_ddec_sum_bond_order
 _atom_site_hse06_magmom
 _atom_site_pbe_bader_spin_density
 _atom_site_pbe_cm5_charge
 _atom_site_pbe_ddec_charge
 _atom_site_pbe_ddec_spin_density
 _atom_site_pbe_ddec_sum_bond_order
 _atom_site_pbe_magmom
Cu  Cu0  1  0.70987683  0.40086446  0.20859490  1  0  0.295219  0  2.057309  0  0  0.209185  0  2.523945  0  0  0.229811  0  2.464331  0  0  0.273561  0.196986  0  2.562421  0
Cu  Cu1  1  0.29011829  0.59913092  0.79140623  1  0  0.295236  0  2.0573  0  0  0.209176  0  2.524071  0  0  0.229763  0  2.464427  0  0  0.273561  0.197022  0  2.562431  0
Cu  Cu2  1  0.91086218  0.50226080  0.38737791  1  0  0.24732  0  2.191685  0  0  0.184381  0  2.651961  0  0  0.19709  0  2.594952  0  0  0.248265  0.176768  0  2.689925  0
Cu  Cu3  1  0.08913903  0.49773559  0.61262009  1  0  0.247297  0  2.191731  0  0  0.184387  0  2.652016  0  0  0.197092  0  2.594991  0  0  0.248279  0.176762  0  2.68997  0
Cu  Cu4  1  0.83497760  0.24686406  0.26574774  1  0  0.229914  0  2.18843  0  0  0.159389  0  2.657679  0  0  0.173751  0  2.600704  0  0  0.230281  0.151498  0  2.693992  0
Cu  Cu5  1  0.16502089  0.75313332  0.73425136  1  0  0.229891  0  2.188372  0  0  0.159337  0  2.657678  0  0  0.17371  0  2.600682  0  0  0.23026  0.151438  0  2.693991  0
H  H6  1  0.30435873  0.39845658  0.15605835  1  0  0.114969  0  0.95739  0  0  0.13365  0  1.022915  0  0  0.135654  0  1.022392  0  0  0.089925  0.13278  0  1.022295  0
H  H7  1  0.69563867  0.60154481  0.84394522  1  0  0.114972  0  0.957413  0  0  0.133636  0  1.022953  0  0  0.135634  0  1.022438  0  0  0.089925  0.132767  0  1.022341  0
H  H8  1  0.33422829  0.52517677  0.29532728  1  0  0.122588  0  0.960317  0  0  0.139104  0  1.030108  0  0  0.141187  0  1.029546  0  0  0.087387  0.138011  0  1.029641  0
H  H9  1  0.66576912  0.47482463  0.70467543  1  0  0.122466  0  0.960486  0  0  0.138988  0  1.030264  0  0  0.141063  0  1.029725  0  0  0.08733  0.137896  0  1.029797  0
H  H10  1  0.42709211  0.39574650  0.26473615  1  0  0.125033  0  0.979287  0  0  0.143051  0  1.045954  0  0  0.144884  0  1.045681  0  0  0.088285  0.142217  0  1.045321  0
H  H11  1  0.57290432  0.60425489  0.73526827  1  0  0.124978  0  0.979331  0  0  0.14302  0  1.045979  0  0  0.144858  0  1.045701  0  0  0.088285  0.142187  0  1.045355  0
H  H12  1  0.78882896  0.63612820  0.09908506  1  0  0.090697  0  0.979904  0  0  0.097109  0  1.050572  0  0  0.099523  0  1.049463  0  0  0.103424  0.095457  0  1.051377  0
H  H13  1  0.21117018  0.36387219  0.90091483  1  0  0.09073  0  0.979981  0  0  0.097145  0  1.050617  0  0  0.099559  0  1.049509  0  0  0.103436  0.095489  0  1.051421  0
H  H14  1  0.59526503  0.76350689  0.03773679  1  0  0.110865  0  0.965747  0  0  0.121799  0  1.027927  0  0  0.124498  0  1.026468  0  0  0.115813  0.119307  0  1.030166  0
H  H15  1  0.40473236  0.23649450  0.96226421  1  0  0.110808  0  0.96571  0  0  0.121755  0  1.0279  0  0  0.124453  0  1.026442  0  0  0.115786  0.119258  0  1.030132  0
H  H16  1  0.26003858  0.58890265  0.10467566  1  0  0.072505  0  0.939935  0  0  0.086954  0  1.006842  0  0  0.087549  0  1.007211  0  0  0.100093  0.086779  0  1.005991  0
H  H17  1  0.73995981  0.41109875  0.89532620  1  0  0.072563  0  0.939879  0  0  0.087019  0  1.006789  0  0  0.087615  0  1.007139  0  0  0.100103  0.086844  0  1.005941  0
H  H18  1  0.33969014  0.69881148  0.02569445  1  0  0.065372  0  0.964925  0  0  0.075866  0  1.041531  0  0  0.078258  0  1.038151  0  0  0.092336  0.073877  0  1.044649  0
H  H19  1  0.66031020  0.30118993  0.97430829  1  0  0.065379  0  0.964893  0  0  0.075872  0  1.041513  0  0  0.078255  0  1.038132  0  0  0.092321  0.073872  0  1.044641  0
H  H20  1  0.34308145  0.76560609  0.29986589  1  0  0.069655  0  0.959203  0  0  0.086856  0  1.023399  0  0  0.087688  0  1.023993  0  0  0.084907  0.086067  0  1.023271  0
H  H21  1  0.65691180  0.23439428  0.70013482  1  0  0.069636  0  0.959218  0  0  0.086818  0  1.023426  0  0  0.087649  0  1.024021  0  0  0.084921  0.086028  0  1.0233  0
H  H22  1  0.41426629  0.87945145  0.22068780  1  0  0.066768  0  0.950984  0  0  0.083059  0  1.018042  0  0  0.084268  0  1.017791  0  0  0.082829  0.082486  0  1.017805  0
H  H23  1  0.58573308  0.12054995  0.77931578  1  0  0.066754  0  0.951  0  0  0.083036  0  1.018055  0  0  0.084247  0  1.017804  0  0  0.082836  0.082464  0  1.017819  0
H  H24  1  0.18494414  0.90021944  0.30467446  1  0  0.067758  0  0.936153  0  0  0.087192  0  0.995716  0  0  0.087623  0  0.996753  0  0  0.088907  0.086674  0  0.995373  0
H  H25  1  0.81505268  0.09978393  0.69532107  1  0  0.067784  0  0.936129  0  0  0.087195  0  0.995738  0  0  0.087626  0  0.996771  0  0  0.08894  0.086674  0  0.9954  0
H  H26  1  0.11424975  0.74444111  0.19890694  1  0  0.067873  0  0.957718  0  0  0.084298  0  1.025038  0  0  0.085227  0  1.025153  0  0  0.08197  0.08387  0  1.024603  0
H  H27  1  0.88574980  0.25556128  0.80109005  1  0  0.067919  0  0.957621  0  0  0.084314  0  1.025001  0  0  0.085253  0  1.025105  0  0  0.081968  0.08388  0  1.024564  0
H  H28  1  0.26496289  0.99231924  0.13301034  1  0  0.070931  0  0.941163  0  0  0.08496  0  1.008443  0  0  0.085666  0  1.008451  0  0  0.098871  0.084884  0  1.007296  0
H  H29  1  0.73504091  0.00768015  0.86698418  1  0  0.070787  0  0.94133  0  0  0.08488  0  1.008546  0  0  0.085585  0  1.008556  0  0  0.098844  0.084805  0  1.007403  0
H  H30  1  0.17720732  0.83998193  0.03043147  1  0  0.074664  0  0.947986  0  0  0.087627  0  1.01709  0  0  0.088443  0  1.016837  0  0  0.099931  0.086922  0  1.017699  0
H  H31  1  0.82279377  0.16001846  0.96956586  1  0  0.07462  0  0.948099  0  0  0.087598  0  1.017185  0  0  0.088411  0  1.016936  0  0  0.099907  0.086893  0  1.01779  0
H  H32  1  0.22874245  0.21695362  0.23051407  1  0  0.119815  0  0.955774  0  0  0.141564  0  1.017766  0  0  0.143285  0  1.017606  0  0  0.093196  0.140769  0  1.016967  0
H  H33  1  0.77126486  0.78305280  0.76948660  1  0  0.119904  0  0.955757  0  0  0.141671  0  1.017706  0  0  0.14339  0  1.017546  0  0  0.093255  0.140886  0  1.016905  0
H  H34  1  0.20075030  0.13958867  0.34517802  1  0  0.120517  0  0.960112  0  0  0.138999  0  1.022273  0  0  0.140895  0  1.022336  0  0  0.094191  0.137701  0  1.022208  0
H  H35  1  0.79925004  0.86041273  0.65482300  1  0  0.120528  0  0.960173  0  0  0.139019  0  1.022313  0  0  0.140916  0  1.022372  0  0  0.094198  0.137724  0  1.02225  0
H  H36  1  0.11031077  0.26316777  0.33719311  1  0  0.13684  0  0.956313  0  0  0.152743  0  1.024967  0  0  0.15531  0  1.023191  0  0  0.093279  0.151265  0  1.025533  0
H  H37  1  0.88968597  0.73683061  0.66280539  1  0  0.136884  0  0.956224  0  0  0.152766  0  1.024902  0  0  0.155332  0  1.023125  0  0  0.093273  0.151291  0  1.025472  0
H  H38  1  0.92353820  0.79049163  0.00548100  1  0  0.106895  0  0.973911  0  0  0.117787  0  1.037266  0  0  0.120483  0  1.035788  0  0  0.108058  0.115527  0  1.038938  0
H  H39  1  0.07646421  0.20950577  0.99451813  1  0  0.106839  0  0.973951  0  0  0.117739  0  1.037313  0  0  0.120434  0  1.035836  0  0  0.108031  0.115474  0  1.038975  0
H  H40  1  0.74035107  0.95651323  0.08335945  1  0  0.088239  0  0.992799  0  0  0.095223  0  1.062722  0  0  0.09786  0  1.061063  0  0  0.098514  0.093089  0  1.064598  0
H  H41  1  0.25964721  0.04348316  0.91664025  1  0  0.088236  0  0.992731  0  0  0.095213  0  1.062675  0  0  0.097848  0  1.061017  0  0  0.098503  0.093077  0  1.064545  0
H  H42  1  0.85052705  0.84908473  0.28707058  1  0  0.121904  0  0.97322  0  0  0.137856  0  1.041488  0  0  0.139237  0  1.043111  0  0  0.09351  0.136897  0  1.040442  0
H  H43  1  0.14947404  0.15091566  0.71292676  1  0  0.12193  0  0.973242  0  0  0.137854  0  1.041521  0  0  0.139245  0  1.043134  0  0  0.093523  0.136892  0  1.040477  0
H  H44  1  0.96082586  0.75280279  0.32157671  1  0  0.122654  0  0.984543  0  0  0.138393  0  1.055377  0  0  0.140648  0  1.054187  0  0  0.086904  0.136613  0  1.056436  0
H  H45  1  0.03917621  0.24719760  0.67842064  1  0  0.122686  0  0.98455  0  0  0.138423  0  1.05536  0  0  0.140679  0  1.054168  0  0  0.086913  0.136643  0  1.056414  0
H  H46  1  0.94757618  0.90626683  0.42696801  1  0  0.117901  0  0.938352  0  0  0.137234  0  1.001965  0  0  0.139775  0  1.00012  0  0  0.091455  0.135701  0  1.002635  0
H  H47  1  0.05242709  0.09373456  0.57302789  1  0  0.117904  0  0.938403  0  0  0.137224  0  1.002016  0  0  0.139766  0  1.000169  0  0  0.091446  0.135691  0  1.002686  0
H  H48  1  0.63862672  0.49730440  0.50786794  1  0  0.088122  0  1.001313  0  0  0.098066  0  1.065408  0  0  0.099709  0  1.06572  0  0  0.102664  0.096999  0  1.065259  0
H  H49  1  0.36138147  0.50269703  0.49213142  1  0  0.088178  0  1.001246  0  0  0.098114  0  1.065357  0  0  0.09976  0  1.065662  0  0  0.102651  0.097048  0  1.065211  0
H  H50  1  0.49653080  0.69868090  0.53100355  1  0  0.105186  0  0.996019  0  0  0.111553  0  1.067159  0  0  0.114065  0  1.065996  0  0  0.110605  0.108629  0  1.069706  0
H  H51  1  0.50347283  0.30131752  0.46899928  1  0  0.105119  0  0.996053  0  0  0.111492  0  1.067194  0  0  0.114008  0  1.066022  0  0  0.110603  0.108567  0  1.069743  0
H  H52  1  0.61276883  0.89082192  0.33953167  1  0  0.072758  0  0.919764  0  0  0.0873  0  0.985143  0  0  0.087739  0  0.985443  0  0  0.106468  0.086919  0  0.985007  0
H  H53  1  0.38722933  0.10917847  0.66046907  1  0  0.072778  0  0.919715  0  0  0.087334  0  0.985098  0  0  0.087774  0  0.985398  0  0  0.10647  0.086952  0  0.984963  0
H  H54  1  0.72404913  0.98551484  0.46566437  1  0  0.070914  0  0.922778  0  0  0.086386  0  0.987497  0  0  0.086989  0  0.987166  0  0  0.104692  0.086796  0  0.985859  0
H  H55  1  0.27595023  0.01448656  0.53433664  1  0  0.070967  0  0.922772  0  0  0.08646  0  0.98748  0  0  0.087065  0  0.987147  0  0  0.104715  0.086869  0  0.985846  0
H  H56  1  0.53954931  0.94663022  0.60166667  1  0  0.070736  0  0.954467  0  0  0.087564  0  1.019214  0  0  0.088497  0  1.01964  0  0  0.085087  0.086776  0  1.019095  0
H  H57  1  0.46045039  0.05336818  0.39833527  1  0  0.070789  0  0.954451  0  0  0.087618  0  1.019196  0  0  0.088555  0  1.019621  0  0  0.085116  0.086821  0  1.01907  0
H  H58  1  0.42791447  0.85319633  0.47678822  1  0  0.062037  0  0.976645  0  0  0.078244  0  1.044709  0  0  0.079153  0  1.044933  0  0  0.081852  0.078083  0  1.043576  0
H  H59  1  0.57208425  0.14680207  0.52321372  1  0  0.062073  0  0.976633  0  0  0.078281  0  1.044691  0  0  0.079194  0  1.044916  0  0  0.081896  0.078116  0  1.043553  0
C  C60  1  0.38352882  0.46116732  0.22583805  1  0  -0.396464  0  3.743449  0  0  -0.477703  0  3.981552  0  0  -0.482277  0  3.988218  0  0  -0.24261  -0.474561  0  3.975602  0
C  C61  1  0.61646957  0.53883408  0.77416467  1  0  -0.396244  0  3.743586  0  0  -0.477485  0  3.981659  0  0  -0.482061  0  3.988337  0  0  -0.242526  -0.474344  0  3.975727  0
C  C62  1  0.49062413  0.54045306  0.17461404  1  0  0.36289  0  3.663032  0  0  0.342617  0  3.925507  0  0  0.358193  0  3.940798  0  0  0.212763  0.33207  0  3.91478  0
C  C63  1  0.50937546  0.45954935  0.82538981  1  0  0.36285  0  3.66322  0  0  0.342588  0  3.925676  0  0  0.358166  0  3.94097  0  0  0.212754  0.332034  0  3.914965  0
C  C64  1  0.68279294  0.62437291  0.11397608  1  0  -0.012101  0  3.772739  0  0  -0.046154  0  4.04521  0  0  -0.044573  0  4.066133  0  0  -0.016957  -0.047429  0  4.031473  0
C  C65  1  0.31720249  0.37562847  0.88602405  1  0  -0.012119  0  3.772582  0  0  -0.046151  0  4.045061  0  0  -0.04457  0  4.065976  0  0  -0.016911  -0.04743  0  4.031321  0
C  C66  1  0.59007608  0.68846672  0.08420847  1  0  -0.066436  0  3.698893  0  0  -0.107605  0  3.959911  0  0  -0.106378  0  3.979515  0  0  -0.006527  -0.108263  0  3.947406  0
C  C67  1  0.40992196  0.31153767  0.91579246  1  0  -0.0663  0  3.698731  0  0  -0.107482  0  3.959747  0  0  -0.106253  0  3.979352  0  0  -0.006493  -0.108134  0  3.947224  0
C  C68  1  0.34318037  0.67509123  0.11111450  1  0  0.01362  0  3.618847  0  0  -0.042143  0  3.861879  0  0  -0.038501  0  3.873935  0  0  -0.056258  -0.044764  0  3.854604  0
C  C69  1  0.65681802  0.32491017  0.88888908  1  0  0.013585  0  3.618797  0  0  -0.042201  0  3.861815  0  0  -0.038544  0  3.87387  0  0  -0.056266  -0.044817  0  3.854531  0
C  C70  1  0.33117039  0.79372033  0.21753337  1  0  -0.126089  0  3.665846  0  0  -0.163707  0  3.917376  0  0  -0.165862  0  3.931884  0  0  -0.16713  -0.162363  0  3.90817  0
C  C71  1  0.66882777  0.20628006  0.78246738  1  0  -0.12601  0  3.665773  0  0  -0.163567  0  3.917294  0  0  -0.165728  0  3.931792  0  0  -0.167099  -0.162222  0  3.908081  0
C  C72  1  0.19632390  0.83421805  0.21539397  1  0  -0.118827  0  3.669437  0  0  -0.156919  0  3.921254  0  0  -0.158796  0  3.93598  0  0  -0.165006  -0.1558  0  3.911834  0
C  C73  1  0.80367740  0.16578334  0.78460277  1  0  -0.118851  0  3.669143  0  0  -0.15698  0  3.921055  0  0  -0.158861  0  3.935774  0  0  -0.165056  -0.155856  0  3.911633  0
C  C74  1  0.18012054  0.90631410  0.12225065  1  0  0.002795  0  3.624725  0  0  -0.052218  0  3.868763  0  0  -0.048626  0  3.881514  0  0  -0.057228  -0.054792  0  3.860717  0
C  C75  1  0.81988372  0.09368730  0.87774868  1  0  0.003009  0  3.624787  0  0  -0.052043  0  3.868775  0  0  -0.048444  0  3.881528  0  0  -0.057161  -0.054615  0  3.860722  0
C  C76  1  0.15074723  0.17910434  0.28393925  1  0  -0.382592  0  3.718472  0  0  -0.463749  0  3.955029  0  0  -0.468003  0  3.962049  0  0  -0.240409  -0.460847  0  3.949302  0
C  C77  1  0.84924950  0.82089403  0.71605754  1  0  -0.382673  0  3.718198  0  0  -0.463887  0  3.954767  0  0  -0.468136  0  3.961782  0  0  -0.240439  -0.460986  0  3.949047  0
C  C78  1  0.04049396  0.07598369  0.20660757  1  0  0.349819  0  3.688201  0  0  0.331162  0  3.949421  0  0  0.345685  0  3.96537  0  0  0.207281  0.321647  0  3.938349  0
C  C79  1  0.95951608  0.92402174  0.79339200  1  0  0.349736  0  3.688546  0  0  0.331181  0  3.949604  0  0  0.345703  0  3.965552  0  0  0.207222  0.321656  0  3.938547  0
C  C80  1  0.93359697  0.88765528  0.07163418  1  0  -0.059976  0  3.693886  0  0  -0.100136  0  3.952611  0  0  -0.098804  0  3.972012  0  0  -0.006924  -0.100934  0  3.940111  0
C  C81  1  0.06640468  0.11234312  0.92836521  1  0  -0.059807  0  3.693847  0  0  -0.100014  0  3.952611  0  0  -0.098686  0  3.972015  0  0  -0.0069  -0.100807  0  3.94009  0
C  C82  1  0.84571910  0.96998999  0.11006181  1  0  -0.014637  0  3.776834  0  0  -0.048704  0  4.049093  0  0  -0.04679  0  4.068015  0  0  -0.018245  -0.050301  0  4.036822  0
C  C83  1  0.15427819  0.03000640  0.88993788  1  0  -0.014685  0  3.776881  0  0  -0.04875  0  4.049145  0  0  -0.046837  0  4.068072  0  0  -0.018249  -0.050355  0  4.036874  0
C  C84  1  0.89081622  0.81640099  0.35847129  1  0  -0.383622  0  3.720206  0  0  -0.4657  0  3.96188  0  0  -0.470041  0  3.968025  0  0  -0.239863  -0.462756  0  3.957779  0
C  C85  1  0.10918586  0.18359940  0.64152691  1  0  -0.383705  0  3.720315  0  0  -0.465724  0  3.961959  0  0  -0.470066  0  3.968095  0  0  -0.239895  -0.462785  0  3.957855  0
C  C86  1  0.78291155  0.73904706  0.41037299  1  0  0.361237  0  3.678474  0  0  0.342869  0  3.937273  0  0  0.358249  0  3.952035  0  0  0.212476  0.332581  0  3.927446  0
C  C87  1  0.21709075  0.26095434  0.58962633  1  0  0.361223  0  3.678595  0  0  0.342855  0  3.93738  0  0  0.358219  0  3.952171  0  0  0.21248  0.332565  0  3.927548  0
C  C88  1  0.66192827  0.58790547  0.48126423  1  0  -0.001408  0  3.76047  0  0  -0.031278  0  4.022882  0  0  -0.029932  0  4.042902  0  0  -0.01372  -0.032427  0  4.009376  0
C  C89  1  0.33807873  0.41209495  0.51873744  1  0  -0.001574  0  3.760406  0  0  -0.031434  0  4.022855  0  0  -0.030087  0  4.042867  0  0  -0.013771  -0.03259  0  4.009358  0
C  C90  1  0.59069343  0.68590773  0.49223981  1  0  -0.064285  0  3.687556  0  0  -0.103111  0  3.945308  0  0  -0.101874  0  3.965139  0  0  -0.006876  -0.103156  0  3.931974  0
C  C91  1  0.40930878  0.31408868  0.50776077  1  0  -0.064058  0  3.687522  0  0  -0.102888  0  3.945241  0  0  -0.101647  0  3.96507  0  0  -0.006823  -0.102935  0  3.931909  0
C  C92  1  0.63470705  0.90303239  0.43514153  1  0  0.02079  0  3.626638  0  0  -0.036779  0  3.879979  0  0  -0.032131  0  3.890922  0  0  -0.050967  -0.040028  0  3.872711  0
C  C93  1  0.36529165  0.09696600  0.56485869  1  0  0.020748  0  3.62659  0  0  -0.036869  0  3.87998  0  0  -0.032223  0  3.890933  0  0  -0.051007  -0.040132  0  3.872701  0
C  C94  1  0.51674817  0.93632310  0.50665312  1  0  -0.131465  0  3.712358  0  0  -0.170066  0  3.964272  0  0  -0.172001  0  3.978584  0  0  -0.168663  -0.168987  0  3.954802  0
C  C95  1  0.48325251  0.06367530  0.49334883  1  0  -0.131559  0  3.712396  0  0  -0.170182  0  3.964381  0  0  -0.172134  0  3.978704  0  0  -0.168706  -0.169062  0  3.954872  0
I  I96  1  0.57087436  0.16366620  0.18362346  1  0  -0.446847  0  1.35907  0  0  -0.398028  0  1.748198  0  0  -0.411966  0  1.711163  0  0  -0.224625  -0.389057  0  1.772258  0
I  I97  1  0.42912828  0.83633220  0.81637765  1  0  -0.446861  0  1.359002  0  0  -0.398024  0  1.748138  0  0  -0.411963  0  1.711105  0  0  -0.224616  -0.389052  0  1.772186  0
I  I98  1  0.84952637  0.32126281  0.50397537  1  0  -0.362339  0  1.658122  0  0  -0.313698  0  2.10223  0  0  -0.325871  0  2.057893  0  0  -0.172586  -0.306023  0  2.129687  0
I  I99  1  0.15047485  0.67873359  0.49602349  1  0  -0.362334  0  1.658143  0  0  -0.313689  0  2.102267  0  0  -0.325864  0  2.057923  0  0  -0.172571  -0.30601  0  2.129728  0
I  I100  1  0.96665066  0.43629031  0.16023349  1  0  -0.36114  0  1.565493  0  0  -0.310869  0  1.983837  0  0  -0.322642  0  1.942925  0  0  -0.173729  -0.303537  0  2.010671  0
I  I101  1  0.03334662  0.56370607  0.83976277  1  0  -0.361125  0  1.565555  0  0  -0.310848  0  1.983927  0  0  -0.32261  0  1.942998  0  0  -0.173703  -0.303511  0  2.010744  0
N  N102  1  0.62022082  0.53195932  0.16953230  1  0  -0.370302  0  3.311974  0  0  -0.301817  0  3.611151  0  0  -0.32077  0  3.621678  0  0  -0.391142  -0.289279  0  3.603263  0
N  N103  1  0.37977918  0.46804508  0.83046865  1  0  -0.370274  0  3.312025  0  0  -0.301815  0  3.611216  0  0  -0.320756  0  3.621718  0  0  -0.391141  -0.28928  0  3.603337  0
N  N104  1  0.46952495  0.63412626  0.12211601  1  0  -0.118011  0  3.534458  0  0  -0.024393  0  3.742212  0  0  -0.040293  0  3.769166  0  0  -0.247514  -0.014191  0  3.724494  0
N  N105  1  0.53047245  0.36587514  0.87788670  1  0  -0.118229  0  3.53465  0  0  -0.024607  0  3.742437  0  0  -0.040514  0  3.769381  0  0  -0.247645  -0.014403  0  3.724712  0
N  N106  1  0.91287588  0.08690679  0.19380062  1  0  -0.370641  0  3.328526  0  0  -0.305384  0  3.626333  0  0  -0.322579  0  3.636402  0  0  -0.391203  -0.294339  0  3.618911  0
N  N107  1  0.08712085  0.91309159  0.80619702  1  0  -0.370555  0  3.32874  0  0  -0.3053  0  3.626431  0  0  -0.322495  0  3.636497  0  0  -0.391193  -0.294253  0  3.619013  0
N  N108  1  0.05602444  0.95565503  0.13315997  1  0  -0.117695  0  3.545602  0  0  -0.023828  0  3.753118  0  0  -0.039872  0  3.780821  0  0  -0.245694  -0.013505  0  3.734909  0
N  N109  1  0.94397534  0.04433934  0.86683493  1  0  -0.117867  0  3.545807  0  0  -0.023995  0  3.753295  0  0  -0.040044  0  3.780996  0  0  -0.245679  -0.013672  0  3.735083  0
N  N110  1  0.78089665  0.62161330  0.43062770  1  0  -0.380156  0  3.371073  0  0  -0.313795  0  3.663421  0  0  -0.330681  0  3.671727  0  0  -0.397328  -0.302602  0  3.657884  0
N  N111  1  0.21910762  0.37838811  0.56937335  1  0  -0.380168  0  3.371081  0  0  -0.313841  0  3.663452  0  0  -0.330719  0  3.671752  0  0  -0.397354  -0.302651  0  3.657907  0
N  N112  1  0.66827711  0.78063989  0.44681174  1  0  -0.122772  0  3.525172  0  0  -0.032245  0  3.736102  0  0  -0.04761  0  3.761446  0  0  -0.248575  -0.022694  0  3.719487  0
N  N113  1  0.33172378  0.21935951  0.55318790  1  0  -0.122789  0  3.525298  0  0  -0.032244  0  3.736239  0  0  -0.047605  0  3.761586  0  0  -0.248551  -0.022695  0  3.719621  0
