# generated using pymatgen
data_Zn2H16C23I2(N3O2)2
_symmetry_space_group_name_H-M   'P 1'
_cell_length_a   7.44863456
_cell_length_b   9.98669314
_cell_length_c   36.81156827
_cell_angle_alpha   96.35453237
_cell_angle_beta   90.00003559
_cell_angle_gamma   89.99972215
_symmetry_Int_Tables_number   1
_chemical_formula_structural   Zn2H16C23I2(N3O2)2
_chemical_formula_sum   'Zn8 H64 C92 I8 N24 O16'
_cell_volume   2721.48650179
_cell_formula_units_Z   4
loop_
 _symmetry_equiv_pos_site_id
 _symmetry_equiv_pos_as_xyz
  1  'x, y, z'
loop_
 _atom_site_type_symbol
 _atom_site_label
 _atom_site_symmetry_multiplicity
 _atom_site_fract_x
 _atom_site_fract_y
 _atom_site_fract_z
 _atom_site_occupancy
 _atom_site_pbe_bader_charge
 _atom_site_pbe_bader_spin_density
 _atom_site_pbe_cm5_charge
 _atom_site_pbe_ddec_charge
 _atom_site_pbe_ddec_spin_density
 _atom_site_pbe_ddec_sum_bond_order
 _atom_site_pbe_magmom
Zn  Zn0  1  0.45215215  0.17274777  0.02621184  1  1.133075  0  0.583285  0.73405  0  2.548555  0
Zn  Zn1  1  0.95214840  0.82725115  0.47378845  1  1.133127  0  0.583285  0.734074  0  2.548508  0
Zn  Zn2  1  0.54784957  0.82725101  0.97378857  1  1.133038  0  0.583278  0.734039  0  2.548568  0
Zn  Zn3  1  0.04784795  0.17275166  0.52621100  1  1.132998  0  0.5833  0.734128  0  2.54849  0
Zn  Zn4  1  0.67683495  0.72932295  0.33231193  1  1.107574  0  0.592496  0.662814  0  2.525037  0
Zn  Zn5  1  0.17683313  0.27067695  0.16768754  1  1.107653  0  0.592512  0.662847  0  2.525  0
Zn  Zn6  1  0.32316811  0.27068086  0.66768755  1  1.10765  0  0.592521  0.662874  0  2.524988  0
Zn  Zn7  1  0.82316321  0.72932081  0.83231257  1  1.107645  0  0.592487  0.662838  0  2.524978  0
H  H8  1  0.80980931  0.72120462  0.08763980  1  0.116002  0  0.104787  0.129651  0  1.042651  0
H  H9  1  0.30980551  0.27879784  0.41236139  1  0.115954  0  0.104827  0.129619  0  1.042694  0
H  H10  1  0.19018704  0.27879618  0.91236067  1  0.115969  0  0.104811  0.129666  0  1.042605  0
H  H11  1  0.69019487  0.72120497  0.58763914  1  0.115963  0  0.104829  0.129662  0  1.042643  0
H  H12  1  0.69002857  0.89583021  0.19753431  1  0.11069  0  0.106675  0.122997  0  1.024709  0
H  H13  1  0.19002556  0.10416765  0.30246754  1  0.110725  0  0.106751  0.123115  0  1.024638  0
H  H14  1  0.30997986  0.10416757  0.80246716  1  0.110702  0  0.106741  0.123078  0  1.024657  0
H  H15  1  0.80997482  0.89583315  0.69753320  1  0.11069  0  0.106753  0.123098  0  1.024639  0
H  H16  1  0.57312792  0.47557452  0.16462262  1  0.124226  0  0.102894  0.123858  0  1.049071  0
H  H17  1  0.07312497  0.52442374  0.33537706  1  0.124223  0  0.102893  0.123872  0  1.049092  0
H  H18  1  0.42687380  0.52442425  0.83537779  1  0.124239  0  0.102878  0.123857  0  1.049128  0
H  H19  1  0.92687272  0.47557705  0.66462287  1  0.12423  0  0.102896  0.12387  0  1.049143  0
H  H20  1  0.94319681  0.51494066  0.06988817  1  0.164115  0  0.115905  0.118781  0  1.06398  0
H  H21  1  0.44319576  0.48505828  0.43011103  1  0.164143  0  0.115941  0.118824  0  1.063945  0
H  H22  1  0.05679954  0.48506920  0.93011149  1  0.16399  0  0.115875  0.118762  0  1.064014  0
H  H23  1  0.55680328  0.51494150  0.56988941  1  0.164104  0  0.11591  0.118769  0  1.064007  0
H  H24  1  0.83866556  0.28967633  0.02381591  1  0.171322  0  0.105405  0.116595  0  1.061239  0
H  H25  1  0.33866453  0.71031897  0.47618453  1  0.17133  0  0.10538  0.116595  0  1.06116  0
H  H26  1  0.16133347  0.71033554  0.97618245  1  0.171307  0  0.10536  0.116617  0  1.061223  0
H  H27  1  0.66133450  0.28967880  0.52381640  1  0.171326  0  0.105442  0.116656  0  1.061192  0
H  H28  1  0.43600502  0.37890311  0.10400966  1  0.213418  0  0.130138  0.107134  0  1.062009  0
H  H29  1  0.93600371  0.62110090  0.39599078  1  0.213393  0  0.130159  0.107167  0  1.061971  0
H  H30  1  0.56399670  0.62109567  0.89599076  1  0.213453  0  0.130184  0.107217  0  1.061922  0
H  H31  1  0.06399667  0.37890392  0.60400927  1  0.21346  0  0.130181  0.107194  0  1.061898  0
H  H32  1  0.31395939  0.56662783  0.21250455  1  0.197519  0  0.121155  0.137796  0  1.057211  0
H  H33  1  0.81395225  0.43336453  0.28749661  1  0.197515  0  0.121157  0.137848  0  1.057009  0
H  H34  1  0.68605173  0.43336289  0.78749562  1  0.197543  0  0.121148  0.137821  0  1.057037  0
H  H35  1  0.18603873  0.56662820  0.71250444  1  0.197522  0  0.121164  0.137782  0  1.057161  0
H  H36  1  0.33124317  0.57889328  0.28837558  1  0.128958  0  0.116135  0.117369  0  1.012814  0
H  H37  1  0.83124393  0.42110204  0.21162513  1  0.12905  0  0.116119  0.117391  0  1.012791  0
H  H38  1  0.66875586  0.42110046  0.71162414  1  0.128953  0  0.116127  0.117392  0  1.012761  0
H  H39  1  0.16874973  0.57888968  0.78837508  1  0.128886  0  0.116088  0.117329  0  1.012881  0
H  H40  1  0.79411392  0.76518170  0.25123498  1  0.137631  0  0.123907  0.096195  0  1.038386  0
H  H41  1  0.29411930  0.23481779  0.24876612  1  0.137712  0  0.123939  0.096248  0  1.038406  0
H  H42  1  0.20588511  0.23481809  0.74876628  1  0.137738  0  0.12392  0.096214  0  1.038398  0
H  H43  1  0.70588376  0.76518603  0.75123444  1  0.137719  0  0.123926  0.09625  0  1.038357  0
H  H44  1  0.77205934  0.95503341  0.07829767  1  0.156689  0  0.123613  0.132443  0  1.01698  0
H  H45  1  0.27206513  0.04496012  0.42170380  1  0.156695  0  0.123628  0.132424  0  1.016973  0
H  H46  1  0.22793836  0.04495932  0.92170230  1  0.156703  0  0.12361  0.132467  0  1.017082  0
H  H47  1  0.72793927  0.95503966  0.57829610  1  0.156676  0  0.123619  0.132414  0  1.016983  0
H  H48  1  0.97678392  0.18868428  0.08952445  1  0.14035  0  0.122193  0.121492  0  1.008733  0
H  H49  1  0.47678740  0.81130749  0.41047399  1  0.140664  0  0.122207  0.121508  0  1.008769  0
H  H50  1  0.02320840  0.81130945  0.91047309  1  0.140697  0  0.122188  0.121509  0  1.008754  0
H  H51  1  0.52321163  0.18869229  0.58952509  1  0.140568  0  0.12221  0.121484  0  1.008747  0
H  H52  1  0.97526628  0.00076957  0.18671791  1  0.14635  0  0.140932  0.108165  0  0.977604  0
H  H53  1  0.47526422  0.99923430  0.31328280  1  0.146363  0  0.140927  0.108143  0  0.977612  0
H  H54  1  0.02473410  0.99923626  0.81328190  1  0.146246  0  0.140906  0.108092  0  0.977642  0
H  H55  1  0.52474019  0.00076952  0.68671722  1  0.146373  0  0.140931  0.108143  0  0.977663  0
H  H56  1  0.72333156  0.51884761  0.43047904  1  0.111317  0  0.095469  0.094882  0  1.052416  0
H  H57  1  0.22333210  0.48115113  0.06952122  1  0.11129  0  0.09547  0.094905  0  1.052356  0
H  H58  1  0.27666748  0.48115520  0.56952068  1  0.111369  0  0.095469  0.094899  0  1.052447  0
H  H59  1  0.77666828  0.51884564  0.93047941  1  0.111343  0  0.095456  0.094902  0  1.052453  0
H  H60  1  0.80337234  0.35200378  0.47271426  1  0.076372  0  0.099795  0.102767  0  1.034871  0
H  H61  1  0.30337704  0.64799163  0.02728563  1  0.076337  0  0.099798  0.102782  0  1.034839  0
H  H62  1  0.19662401  0.64799902  0.52728600  1  0.112514  0  0.09981  0.102763  0  1.034861  0
H  H63  1  0.69663274  0.35200413  0.97271550  1  0.11245  0  0.099781  0.102723  0  1.034847  0
H  H64  1  0.81729523  0.03871016  0.38240073  1  0.093711  0  0.092365  0.100254  0  1.047799  0
H  H65  1  0.31729012  0.96128924  0.11759792  1  0.093688  0  0.092406  0.10031  0  1.047743  0
H  H66  1  0.18270784  0.96129366  0.61759902  1  0.093676  0  0.09237  0.100258  0  1.047779  0
H  H67  1  0.68271294  0.03870753  0.88240297  1  0.093692  0  0.092367  0.10027  0  1.047781  0
H  H68  1  0.72426817  0.20675097  0.34002196  1  0.107788  0  0.097102  0.097942  0  1.016728  0
H  H69  1  0.22426026  0.79325077  0.15997649  1  0.107822  0  0.097084  0.097983  0  1.016703  0
H  H70  1  0.27573623  0.79325082  0.65997719  1  0.107818  0  0.097081  0.09794  0  1.01672  0
H  H71  1  0.77573475  0.20674700  0.84002335  1  0.107846  0  0.097089  0.097951  0  1.016586  0
C  C72  1  0.68704904  0.58910723  0.12325454  1  0.312441  0  0.111851  0.222171  0  3.989057  0
C  C73  1  0.18704561  0.41089365  0.37674578  1  0.312739  0  0.111878  0.2222  0  3.988972  0
C  C74  1  0.31295134  0.41089256  0.87674618  1  0.312496  0  0.111873  0.22225  0  3.988982  0
C  C75  1  0.81295476  0.58911016  0.62325424  1  0.312853  0  0.11183  0.222179  0  3.989099  0
C  C76  1  0.75933570  0.71120554  0.11501392  1  0.067473  0  -0.078538  -0.233694  0  3.888865  0
C  C77  1  0.25933310  0.28879609  0.38498724  1  0.067221  0  -0.078542  -0.233577  0  3.888999  0
C  C78  1  0.24066199  0.28879424  0.88498679  1  0.067533  0  -0.078524  -0.233639  0  3.888925  0
C  C79  1  0.74066728  0.71120773  0.61501306  1  0.067205  0  -0.078537  -0.233665  0  3.889049  0
C  C80  1  0.76518210  0.81962288  0.14228385  1  0.302782  0  0.108928  0.218798  0  4.000708  0
C  C81  1  0.26517877  0.18037672  0.35771779  1  0.302682  0  0.108892  0.218699  0  4.000925  0
C  C82  1  0.23481962  0.18037691  0.85771687  1  0.302743  0  0.108877  0.218734  0  4.000974  0
C  C83  1  0.73482295  0.81962508  0.64228271  1  0.302643  0  0.108907  0.218828  0  4.000851  0
C  C84  1  0.69596280  0.80837782  0.17707741  1  0.079855  0  -0.086726  -0.258151  0  3.932599  0
C  C85  1  0.19596197  0.19162203  0.32292396  1  0.079863  0  -0.08683  -0.25835  0  3.932628  0
C  C86  1  0.30403892  0.19161996  0.82292379  1  0.07985  0  -0.086797  -0.258314  0  3.932758  0
C  C87  1  0.80403572  0.80838178  0.67707633  1  0.079853  0  -0.086784  -0.258357  0  3.932726  0
C  C88  1  0.62709153  0.68433747  0.18460742  1  0.28539  0  0.106346  0.215487  0  4.000321  0
C  C89  1  0.12708987  0.31565860  0.31539329  1  0.285396  0  0.106375  0.215636  0  4.000245  0
C  C90  1  0.37291288  0.31565930  0.81539320  1  0.285427  0  0.106377  0.215655  0  4.000215  0
C  C91  1  0.87291051  0.68434018  0.68460713  1  0.285452  0  0.106347  0.215622  0  4.00014  0
C  C92  1  0.62098334  0.57348308  0.15803135  1  0.060891  0  -0.0821  -0.238319  0  3.899434  0
C  C93  1  0.12098105  0.42651703  0.34196866  1  0.060885  0  -0.082171  -0.238492  0  3.899449  0
C  C94  1  0.37901838  0.42651670  0.84196910  1  0.060904  0  -0.08212  -0.238442  0  3.899498  0
C  C95  1  0.87901798  0.57348275  0.65803097  1  0.060915  0  -0.082158  -0.238466  0  3.89946  0
C  C96  1  0.82377781  0.45350330  0.06956371  1  0.312465  0  7.4e-05  -0.087365  0  3.910212  0
C  C97  1  0.32377501  0.54649910  0.43043667  1  0.312454  0  4.5e-05  -0.087466  0  3.910498  0
C  C98  1  0.17622123  0.54650757  0.93043679  1  0.312634  0  9.9e-05  -0.087404  0  3.910455  0
C  C99  1  0.67622133  0.45350371  0.56956387  1  0.312431  0  7e-05  -0.087391  0  3.910329  0
C  C100  1  0.77022738  0.34301555  0.04703582  1  0.341012  0  -0.004728  -0.034627  0  3.984406  0
C  C101  1  0.27022662  0.65698200  0.45296332  1  0.341027  0  -0.00469  -0.034575  0  3.984425  0
C  C102  1  0.22977031  0.65699128  0.95296320  1  0.340924  0  -0.004656  -0.034565  0  3.984449  0
C  C103  1  0.72977107  0.34301879  0.54703634  1  0.341038  0  -0.004722  -0.034606  0  3.984315  0
C  C104  1  0.55927590  0.38279964  0.08832817  1  0.949648  0  0.148688  0.113581  0  3.859108  0
C  C105  1  0.05927393  0.61720372  0.41167193  1  0.949642  0  0.148713  0.113577  0  3.859131  0
C  C106  1  0.44072582  0.61720015  0.91167200  1  0.949591  0  0.14861  0.113462  0  3.859173  0
C  C107  1  0.94072510  0.38280211  0.58832788  1  0.949599  0  0.148656  0.11356  0  3.859003  0
C  C108  1  0.41653380  0.60566634  0.23184882  1  0.277332  0  0.00358  -0.093958  0  3.857761  0
C  C109  1  0.91653490  0.39432666  0.26815156  1  0.277469  0  0.003515  -0.094023  0  3.857774  0
C  C110  1  0.58346926  0.39432539  0.76815139  1  0.27735  0  0.003542  -0.093983  0  3.857734  0
C  C111  1  0.08346413  0.60566607  0.73184813  1  0.277374  0  0.003554  -0.093934  0  3.857588  0
C  C112  1  0.42468700  0.61545586  0.26924357  1  0.400118  0  0.00227  -0.008832  0  3.964522  0
C  C113  1  0.92468671  0.38453510  0.23075784  1  0.400048  0  0.002295  -0.008941  0  3.964768  0
C  C114  1  0.57531204  0.38453587  0.73075663  1  0.400219  0  0.002322  -0.008862  0  3.964535  0
C  C115  1  0.07530964  0.61545563  0.76924397  1  0.400249  0  0.002296  -0.00883  0  3.964562  0
C  C116  1  0.66418692  0.71602776  0.25140461  1  0.9701  0  0.139292  0.091281  0  3.903732  0
C  C117  1  0.16418929  0.28396816  0.24859582  1  0.969933  0  0.13925  0.091188  0  3.903545  0
C  C118  1  0.33581346  0.28396799  0.74859598  1  0.969928  0  0.139311  0.091249  0  3.903648  0
C  C119  1  0.83581243  0.71603263  0.75140411  1  0.970082  0  0.13926  0.091217  0  3.903605  0
C  C120  1  0.84460675  0.99968018  0.10212877  1  0.326317  0  0.0151  -0.067652  0  3.848396  0
C  C121  1  0.34460740  0.00031308  0.39787188  1  0.32656  0  0.015105  -0.067551  0  3.848261  0
C  C122  1  0.15539362  0.00031759  0.89787162  1  0.326327  0  0.015075  -0.067692  0  3.848221  0
C  C123  1  0.65539164  0.99968670  0.60212774  1  0.326904  0  0.015065  -0.067638  0  3.848451  0
C  C124  1  0.94586309  0.11459285  0.10799486  1  0.399351  0  0.01112  -0.001667  0  3.924596  0
C  C125  1  0.44586603  0.88540305  0.39200453  1  0.398783  0  0.01118  -0.001661  0  3.924515  0
C  C126  1  0.05412923  0.88540390  0.89200414  1  0.399115  0  0.011232  -0.001575  0  3.924417  0
C  C127  1  0.55413703  0.11459673  0.60799510  1  0.399061  0  0.011164  -0.001604  0  3.92454  0
C  C128  1  0.94654547  0.02335795  0.15919497  1  0.965346  0  0.144376  0.100673  0  3.912941  0
C  C129  1  0.44654766  0.97664300  0.34080565  1  0.965253  0  0.144343  0.100707  0  3.912863  0
C  C130  1  0.05345088  0.97664485  0.84080475  1  0.96585  0  0.144424  0.100859  0  3.912858  0
C  C131  1  0.55345674  0.02336081  0.65919437  1  0.965233  0  0.144363  0.100654  0  3.91283  0
C  C132  1  0.71456794  0.37212697  0.38256993  1  -0.037861  0  -0.020953  -0.035193  0  3.977806  0
C  C133  1  0.21456499  0.62787280  0.11742981  1  -0.037864  0  -0.020885  -0.035046  0  3.977793  0
C  C134  1  0.28543244  0.62787785  0.61742985  1  -0.037707  0  -0.020866  -0.035118  0  3.977754  0
C  C135  1  0.78543002  0.37212698  0.88257118  1  -0.037921  0  -0.020948  -0.035263  0  3.977981  0
C  C136  1  0.74043972  0.41332151  0.41989692  1  -0.116049  0  -0.094545  -0.116698  0  4.000077  0
C  C137  1  0.24043961  0.58667515  0.08010355  1  -0.11657  0  -0.094525  -0.116712  0  4.000003  0
C  C138  1  0.25956066  0.58667928  0.58010274  1  -0.116242  0  -0.094567  -0.116736  0  3.99996  0
C  C139  1  0.75956480  0.41332162  0.91989762  1  -0.116619  0  -0.094529  -0.116756  0  4.000192  0
C  C140  1  0.78584166  0.31984815  0.44369633  1  -0.059732  0  -0.084994  -0.08306  0  3.958792  0
C  C141  1  0.28584222  0.68014935  0.05630281  1  -0.059249  0  -0.085091  -0.083236  0  3.958723  0
C  C142  1  0.21415737  0.68015365  0.55630308  1  -0.095934  0  -0.085004  -0.083033  0  3.958609  0
C  C143  1  0.71416219  0.31984742  0.94369782  1  -0.095397  0  -0.085005  -0.083  0  3.958559  0
C  C144  1  0.81061844  0.18433144  0.43024385  1  0.045987  0  -0.019255  -0.03878  0  3.970457  0
C  C145  1  0.31061413  0.81566597  0.06975556  1  0.046095  0  -0.019206  -0.038666  0  3.970515  0
C  C146  1  0.18938194  0.81567036  0.56975611  1  0.046013  0  -0.019269  -0.038786  0  3.970479  0
C  C147  1  0.68939296  0.18433181  0.93024591  1  0.04572  0  -0.019216  -0.038662  0  3.970406  0
C  C148  1  0.79201913  0.14356982  0.39269090  1  -0.061714  0  -0.087489  -0.087036  0  3.957538  0
C  C149  1  0.29201199  0.85642966  0.10730748  1  -0.06177  0  -0.087525  -0.087019  0  3.957411  0
C  C150  1  0.20798393  0.85643298  0.60730827  1  -0.061609  0  -0.087507  -0.087004  0  3.957383  0
C  C151  1  0.70798705  0.14356610  0.89269257  1  -0.061606  0  -0.087473  -0.087006  0  3.957311  0
C  C152  1  0.74168473  0.23656335  0.36919918  1  -0.051672  0  -0.093057  -0.107506  0  3.995404  0
C  C153  1  0.24168095  0.76343833  0.13080008  1  -0.051718  0  -0.09308  -0.107686  0  3.995294  0
C  C154  1  0.25831967  0.76343945  0.63080027  1  -0.051793  0  -0.093103  -0.107629  0  3.995336  0
C  C155  1  0.75832077  0.23656145  0.86920064  1  -0.051616  0  -0.093107  -0.107575  0  3.995173  0
C  C156  1  0.66236069  0.47014909  0.35627542  1  1.550335  0  0.193605  0.548376  0  4.231728  0
C  C157  1  0.16235578  0.52985087  0.14372405  1  1.550374  0  0.193697  0.548533  0  4.231815  0
C  C158  1  0.33764237  0.52985371  0.64372321  1  1.55035  0  0.193785  0.54867  0  4.231521  0
C  C159  1  0.83764326  0.47014792  0.85627745  1  1.550338  0  0.193667  0.54854  0  4.231724  0
C  C160  1  0.85754687  0.08330018  0.45558289  1  1.565972  0  0.218273  0.585808  0  4.175292  0
C  C161  1  0.35754317  0.91669605  0.04441567  1  1.566012  0  0.218304  0.585682  0  4.175348  0
C  C162  1  0.14245351  0.91670162  0.54441625  1  1.565992  0  0.21818  0.585619  0  4.175506  0
C  C163  1  0.64245453  0.08329870  0.95558380  1  1.566206  0  0.218095  0.585346  0  4.175597  0
I  I164  1  0.19586473  0.27341541  0.99298489  1  -0.51081  0  -0.221648  -0.428989  0  1.32215  0
I  I165  1  0.69586154  0.72658168  0.50701426  1  -0.510825  0  -0.22165  -0.428996  0  1.322136  0
I  I166  1  0.80413699  0.72658336  0.00701498  1  -0.510803  0  -0.221634  -0.42898  0  1.32218  0
I  I167  1  0.30413347  0.27341910  0.49298458  1  -0.510832  0  -0.221653  -0.429016  0  1.322155  0
I  I168  1  0.00055769  0.81575851  0.32248428  1  -0.560257  0  -0.266681  -0.487586  0  1.27685  0
I  I169  1  0.50055853  0.18424203  0.17751465  1  -0.56026  0  -0.266678  -0.487571  0  1.276864  0
I  I170  1  0.99943866  0.18425334  0.67751218  1  -0.560227  0  -0.266673  -0.487563  0  1.276872  0
I  I171  1  0.49944050  0.81575876  0.82248447  1  -0.56026  0  -0.266682  -0.487577  0  1.276833  0
N  N172  1  0.60475291  0.30134479  0.05876521  1  -1.251467  0  -0.358209  -0.263288  0  3.585005  0
N  N173  1  0.10475050  0.69865538  0.44123508  1  -1.251505  0  -0.358218  -0.263297  0  3.584915  0
N  N174  1  0.39525150  0.69866002  0.94123376  1  -1.251339  0  -0.358144  -0.263225  0  3.584763  0
N  N175  1  0.89524719  0.30134743  0.55876546  1  -1.251333  0  -0.35827  -0.263376  0  3.584869  0
N  N176  1  0.68982973  0.47802593  0.09570900  1  -1.284637  0  -0.221631  0.005637  0  3.762267  0
N  N177  1  0.18982970  0.52197494  0.40429077  1  -1.284681  0  -0.221661  0.005716  0  3.762125  0
N  N178  1  0.31016796  0.52197587  0.90429123  1  -1.284797  0  -0.221681  0.005595  0  3.762054  0
N  N179  1  0.81016934  0.47802787  0.59570922  1  -1.284838  0  -0.221592  0.005699  0  3.762142  0
N  N180  1  0.57941448  0.68384872  0.28099915  1  -1.240785  0  -0.355612  -0.268375  0  3.623341  0
N  N181  1  0.07941118  0.31615155  0.21900141  1  -1.240753  0  -0.3556  -0.268279  0  3.623212  0
N  N182  1  0.42058858  0.31614805  0.71900121  1  -1.240801  0  -0.355631  -0.268366  0  3.623297  0
N  N183  1  0.92058248  0.68384924  0.78099879  1  -1.240902  0  -0.355586  -0.268381  0  3.623241  0
N  N184  1  0.56938038  0.67050444  0.22087381  1  -1.250574  0  -0.221581  0.012514  0  3.769473  0
N  N185  1  0.06937852  0.32948881  0.27912708  1  -1.250629  0  -0.221536  0.012565  0  3.769546  0
N  N186  1  0.43062403  0.32949031  0.77912675  1  -1.250608  0  -0.221575  0.012549  0  3.769597  0
N  N187  1  0.93061917  0.67050896  0.72087358  1  -1.250592  0  -0.221555  0.012527  0  3.769409  0
N  N188  1  0.00906590  0.12765025  0.14359540  1  -1.244498  0  -0.354512  -0.266123  0  3.60651  0
N  N189  1  0.50906821  0.87234825  0.35640455  1  -1.244396  0  -0.354524  -0.266118  0  3.606468  0
N  N190  1  0.99093045  0.87235154  0.85640374  1  -1.244988  0  -0.354573  -0.266215  0  3.606661  0
N  N191  1  0.49093485  0.12765455  0.64359517  1  -1.2444  0  -0.35449  -0.266074  0  3.606402  0
N  N192  1  0.84570115  0.94260709  0.13486543  1  -1.267058  0  -0.219823  0.008298  0  3.785416  0
N  N193  1  0.34569998  0.05739120  0.36513564  1  -1.266954  0  -0.219843  0.008218  0  3.785525  0
N  N194  1  0.15429789  0.05739269  0.86513474  1  -1.267101  0  -0.219852  0.008174  0  3.785379  0
N  N195  1  0.65430174  0.94261160  0.63486408  1  -1.26747  0  -0.2199  0.008212  0  3.785475  0
O  O196  1  0.68921086  0.59694225  0.36811305  1  -1.164421  0  -0.337532  -0.533944  0  2.349503  0
O  O197  1  0.18921479  0.40305962  0.13188675  1  -1.16446  0  -0.337607  -0.534037  0  2.349494  0
O  O198  1  0.31079354  0.40306155  0.63188561  1  -1.164444  0  -0.337749  -0.534151  0  2.349309  0
O  O199  1  0.81078559  0.59693815  0.86811390  1  -1.164443  0  -0.337637  -0.534045  0  2.349424  0
O  O200  1  0.60236052  0.42863734  0.32543699  1  -1.177362  0  -0.325952  -0.543728  0  2.145862  0
O  O201  1  0.10235409  0.57135980  0.17456130  1  -1.177368  0  -0.325992  -0.543817  0  2.14602  0
O  O202  1  0.39763717  0.57136344  0.67456212  1  -1.177348  0  -0.325957  -0.543841  0  2.14593  0
O  O203  1  0.89763823  0.42863494  0.82543818  1  -1.177296  0  -0.325895  -0.543742  0  2.145893  0
O  O204  1  0.85242507  0.11698107  0.48998130  1  -1.21463  0  -0.330061  -0.556834  0  2.417827  0
O  O205  1  0.35242416  0.88301619  0.01001784  1  -1.214746  0  -0.33014  -0.556818  0  2.417825  0
O  O206  1  0.14757128  0.88301771  0.51001830  1  -1.214743  0  -0.329982  -0.556725  0  2.417873  0
O  O207  1  0.64757756  0.11698058  0.98998278  1  -1.214749  0  -0.329926  -0.556544  0  2.417658  0
O  O208  1  0.89920263  0.96531839  0.44093701  1  -1.156441  0  -0.312112  -0.506452  0  2.356706  0
O  O209  1  0.39920200  0.03467768  0.05906237  1  -1.156299  0  -0.312081  -0.506395  0  2.356819  0
O  O210  1  0.10079775  0.03468139  0.55906207  1  -1.156384  0  -0.31208  -0.50641  0  2.356879  0
O  O211  1  0.60079972  0.96532008  0.94093774  1  -1.156386  0  -0.31209  -0.506356  0  2.356979  0
