# generated using pymatgen
data_ZnH16C18(N2O3)3
_symmetry_space_group_name_H-M   'P 1'
_cell_length_a   9.51841867
_cell_length_b   10.90339502
_cell_length_c   11.25896036
_cell_angle_alpha   100.16107796
_cell_angle_beta   100.81191636
_cell_angle_gamma   111.91882614
_symmetry_Int_Tables_number   1
_chemical_formula_structural   ZnH16C18(N2O3)3
_chemical_formula_sum   'Zn2 H32 C36 N12 O18'
_cell_volume   1025.10223119
_cell_formula_units_Z   2
loop_
 _symmetry_equiv_pos_site_id
 _symmetry_equiv_pos_as_xyz
  1  'x, y, z'
loop_
 _atom_site_type_symbol
 _atom_site_label
 _atom_site_symmetry_multiplicity
 _atom_site_fract_x
 _atom_site_fract_y
 _atom_site_fract_z
 _atom_site_occupancy
 _atom_site_pbe_bader_spin_density
 _atom_site_pbe_cm5_charge
 _atom_site_pbe_ddec_charge
 _atom_site_pbe_ddec_spin_density
 _atom_site_pbe_ddec_sum_bond_order
 _atom_site_pbe_magmom
Zn  Zn0  1  0.29946896  0.67947984  0.11959293  1  0  0.708524  0.803168  0  2.345668  0
Zn  Zn1  1  0.70053268  0.32051941  0.88040869  1  0  0.708534  0.803141  0  2.345646  0
H  H2  1  0.05325719  0.87839196  0.00321614  1  0  0.094045  0.060352  0  1.022285  0
H  H3  1  0.94674406  0.12160423  0.99677955  1  0  0.094043  0.060362  0  1.022262  0
H  H4  1  0.90590420  0.70558355  0.96536879  1  0  0.103465  0.082234  0  1.002416  0
H  H5  1  0.09409482  0.29441469  0.03463046  1  0  0.103422  0.082145  0  1.002353  0
H  H6  1  0.53921640  0.70440882  0.66048758  1  0  0.110388  0.094041  0  1.039847  0
H  H7  1  0.46078204  0.29559045  0.33951264  1  0  0.110387  0.094041  0  1.039852  0
H  H8  1  0.52638375  0.75168813  0.81649813  1  0  0.115067  0.111182  0  0.996996  0
H  H9  1  0.47361574  0.24831110  0.18350581  1  0  0.115053  0.111166  0  0.996989  0
H  H10  1  0.73968876  0.66773572  0.79326595  1  0  0.099739  0.07054  0  1.026052  0
H  H11  1  0.26030976  0.33226150  0.20673126  1  0  0.099732  0.070514  0  1.026035  0
H  H12  1  0.83949322  0.81846119  0.74751332  1  0  0.089248  0.054075  0  0.999972  0
H  H13  1  0.16050623  0.18154014  0.25248564  1  0  0.089248  0.054049  0  0.999978  0
H  H14  1  0.63411317  0.02025886  0.92508043  1  0  0.136503  0.11477  0  1.023713  0
H  H15  1  0.36588840  0.97974245  0.07492065  1  0  0.136519  0.114807  0  1.023683  0
H  H16  1  0.63247101  0.86758974  0.08996644  1  0  0.1369  0.105797  0  1.006343  0
H  H17  1  0.36753270  0.13241155  0.91003587  1  0  0.136906  0.105805  0  1.006384  0
H  H18  1  0.71120921  0.10365020  0.24615690  1  0  0.119083  0.12719  0  1.025311  0
H  H19  1  0.28879286  0.89635212  0.75384710  1  0  0.119095  0.127191  0  1.025334  0
H  H20  1  0.00828294  0.81830773  0.19814695  1  0  0.121681  0.124919  0  0.987667  0
H  H21  1  0.99171816  0.18169257  0.80185032  1  0  0.121686  0.124955  0  0.987583  0
H  H22  1  0.94380642  0.94833293  0.17480349  1  0  0.111701  0.096814  0  0.973786  0
H  H23  1  0.05619952  0.05166632  0.82519438  1  0  0.111716  0.09686  0  0.973728  0
H  H24  1  0.80916126  0.59000075  0.20046219  1  0  0.121144  0.139189  0  1.055416  0
H  H25  1  0.19084197  0.40999953  0.79953631  1  0  0.121152  0.139234  0  1.055347  0
H  H26  1  0.13137372  0.29533394  0.55846862  1  0  0.12827  0.14204  0  1.01721  0
H  H27  1  0.86862737  0.70466635  0.44153043  1  0  0.128278  0.142047  0  1.017205  0
H  H28  1  0.66266640  0.15890548  0.59972326  1  0  0.119545  0.119954  0  1.017206  0
H  H29  1  0.33733732  0.84109583  0.40027727  1  0  0.119544  0.119924  0  1.017199  0
H  H30  1  0.60714255  0.88270453  0.54198089  1  0  0.123793  0.126243  0  1.027718  0
H  H31  1  0.39285853  0.11729575  0.45801993  1  0  0.123791  0.126256  0  1.027723  0
H  H32  1  0.48608133  0.49066438  0.18374178  1  0  0.116762  0.114284  0  1.015869  0
H  H33  1  0.51392289  0.50933794  0.81625990  1  0  0.11677  0.114298  0  1.015865  0
C  C34  1  0.93229238  0.81446199  0.00372303  1  0  -0.073168  -0.001012  0  3.908274  0
C  C35  1  0.06770566  0.18553421  0.99627215  1  0  -0.073108  -0.000883  0  3.908021  0
C  C36  1  0.60021938  0.77880102  0.75269814  1  0  -0.06077  -0.11355  0  3.898889  0
C  C37  1  0.39977962  0.22119720  0.24730377  1  0  -0.060784  -0.113585  0  3.898894  0
C  C38  1  0.75780326  0.77541772  0.80291044  1  0  -0.073501  0.006749  0  3.931041  0
C  C39  1  0.24219731  0.22458154  0.19709012  1  0  -0.073468  0.006895  0  3.930863  0
C  C40  1  0.63807170  0.02258385  0.83005643  1  0  0.140821  0.09258  0  3.895081  0
C  C41  1  0.36192881  0.97741746  0.16994448  1  0  0.140801  0.09255  0  3.895118  0
C  C42  1  0.63466969  0.77840612  0.11832011  1  0  0.14435  0.10123  0  3.928758  0
C  C43  1  0.36533558  0.22159619  0.88168263  1  0  0.144386  0.101217  0  3.928718  0
C  C44  1  0.02712080  0.41120720  0.30435393  1  0  0.025594  -0.036313  0  3.83811  0
C  C45  1  0.97287923  0.58879310  0.69564406  1  0  0.025537  -0.03636  0  3.838132  0
C  C46  1  0.09222833  0.53234943  0.25037772  1  0  0.202826  0.575406  0  4.296303  0
C  C47  1  0.90777169  0.46765087  0.74962115  1  0  0.202821  0.575357  0  4.296375  0
C  C48  1  0.82524127  0.18870110  0.29479879  1  0  -0.060214  -0.114723  0  3.922656  0
C  C49  1  0.17475704  0.81130227  0.70520301  1  0  -0.060247  -0.114763  0  3.922739  0
C  C50  1  0.92113942  0.84046805  0.13796658  1  0  -0.05062  -0.092534  0  3.858645  0
C  C51  1  0.07886489  0.15953224  0.86203032  1  0  -0.050615  -0.092577  0  3.858564  0
C  C52  1  0.77733413  0.28401381  0.11562142  1  0  0.203783  0.558265  0  4.23451  0
C  C53  1  0.22266595  0.71598442  0.88437800  1  0  0.203787  0.558261  0  4.234477  0
C  C54  1  0.88023442  0.29852851  0.24242193  1  0  -0.005856  -0.039741  0  3.897593  0
C  C55  1  0.11976354  0.70146974  0.75757626  1  0  -0.005817  -0.0396  0  3.897518  0
C  C56  1  0.11248123  0.40563188  0.41843732  1  0  0.083232  0.035451  0  3.911456  0
C  C57  1  0.88751715  0.59436945  0.58156237  1  0  0.083226  0.035408  0  3.911506  0
C  C58  1  0.72217613  0.62987718  0.17558403  1  0  -0.001265  -0.102712  0  3.878912  0
C  C59  1  0.27782758  0.37012413  0.82441651  1  0  -0.001235  -0.102665  0  3.878921  0
C  C60  1  0.06073967  0.29622562  0.47094690  1  0  -0.056744  -0.141139  0  3.943638  0
C  C61  1  0.93926050  0.70377057  0.52904951  1  0  -0.056723  -0.141059  0  3.943588  0
C  C62  1  0.64802465  0.08879315  0.65827974  1  0  -0.005858  -0.02829  0  3.997603  0
C  C63  1  0.35197964  0.91120712  0.34172071  1  0  -0.00577  -0.028034  0  3.997344  0
C  C64  1  0.62053086  0.95280679  0.62869153  1  0  -0.000929  -0.10785  0  3.928073  0
C  C65  1  0.37946971  0.04719246  0.37131081  1  0  -0.000949  -0.107943  0  3.928109  0
C  C66  1  0.56411897  0.58286316  0.16611619  1  0  -0.00431  -0.024161  0  3.996709  0
C  C67  1  0.43588582  0.41713815  0.83388452  1  0  -0.004294  -0.024217  0  3.996806  0
C  C68  1  0.91588561  0.18827206  0.40687356  1  0  0.079518  0.07153  0  3.961795  0
C  C69  1  0.08411497  0.81172719  0.59312700  1  0  0.079525  0.071468  0  3.961836  0
N  N70  1  0.26837442  0.51588901  0.48819557  1  0  0.061092  0.522678  0  4.173361  0
N  N71  1  0.73162397  0.48411232  0.51180323  1  0  0.061015  0.522612  0  4.173126  0
N  N72  1  0.86043530  0.06930609  0.45732765  1  0  0.056275  0.515033  0  4.192399  0
N  N73  1  0.13956742  0.93069315  0.54267325  1  0  0.05634  0.515065  0  4.192457  0
N  N74  1  0.51083056  0.67625964  0.13021268  1  0  -0.364905  -0.305903  0  3.634108  0
N  N75  1  0.48917415  0.32374371  0.86979014  1  0  -0.364933  -0.305861  0  3.634201  0
N  N76  1  0.76492669  0.75426081  0.14580600  1  0  -0.238267  0.054843  0  3.756086  0
N  N77  1  0.23507753  0.24574152  0.85419568  1  0  -0.238379  0.054719  0  3.756169  0
N  N78  1  0.65897273  0.13116959  0.78411210  1  0  -0.362975  -0.302291  0  3.624846  0
N  N79  1  0.34102992  0.86883172  0.21588827  1  0  -0.363005  -0.302422  0  3.62484  0
N  N80  1  0.61544885  0.91302882  0.73812598  1  0  -0.242087  0.059089  0  3.76558  0
N  N81  1  0.38455279  0.08697042  0.26187564  1  0  -0.242109  0.059068  0  3.765706  0
O  O82  1  0.04077102  0.62133313  0.26566165  1  0  -0.298304  -0.518543  0  2.190819  0
O  O83  1  0.95923164  0.37866819  0.73433782  1  0  -0.298312  -0.518534  0  2.190862  0
O  O84  1  0.19995774  0.53031766  0.19675348  1  0  -0.322493  -0.542036  0  2.330143  0
O  O85  1  0.80004285  0.46968160  0.80324620  1  0  -0.322477  -0.542026  0  2.330152  0
O  O86  1  0.29589447  0.63459522  0.48120947  1  0  -0.112252  -0.315965  0  1.965255  0
O  O87  1  0.70410606  0.36540610  0.51878967  1  0  -0.112228  -0.315962  0  1.965272  0
O  O88  1  0.36289337  0.48296801  0.55180937  1  0  -0.115276  -0.317636  0  1.955514  0
O  O89  1  0.63710503  0.51703333  0.44818766  1  0  -0.115229  -0.317582  0  1.95524  0
O  O90  1  0.82113485  0.85137300  0.93173782  1  0  -0.235608  -0.241593  0  2.520175  0
O  O91  1  0.17886467  0.14862627  0.06825991  1  0  -0.235645  -0.24169  0  2.520081  0
O  O92  1  0.84234736  0.36566659  0.05239436  1  0  -0.312437  -0.517317  0  2.31383  0
O  O93  1  0.15765478  0.63433368  0.94760752  1  0  -0.312443  -0.517361  0  2.313871  0
O  O94  1  0.63928773  0.19178558  0.07924031  1  0  -0.317716  -0.558925  0  2.1769  0
O  O95  1  0.36071285  0.80821368  0.92075937  1  0  -0.317716  -0.558936  0  2.176825  0
O  O96  1  0.93631838  0.07782587  0.56295804  1  0  -0.116538  -0.328415  0  2.023495  0
O  O97  1  0.06369012  0.92217645  0.43704167  1  0  -0.116549  -0.328383  0  2.023568  0
O  O98  1  0.74123533  0.96640559  0.39016375  1  0  -0.121238  -0.328952  0  1.962937  0
O  O99  1  0.25876679  0.03359467  0.60984078  1  0  -0.121298  -0.329017  0  1.962944  0
