# generated using pymatgen
data_NaH20C13NO2
_symmetry_space_group_name_H-M   'P 1'
_cell_length_a   10.38820987
_cell_length_b   10.76723269
_cell_length_c   15.99947340
_cell_angle_alpha   90.00023157
_cell_angle_beta   90.00003768
_cell_angle_gamma   97.78114722
_symmetry_Int_Tables_number   1
_chemical_formula_structural   NaH20C13NO2
_chemical_formula_sum   'Na4 H80 C52 N4 O8'
_cell_volume   1773.09982983
_cell_formula_units_Z   4
loop_
 _symmetry_equiv_pos_site_id
 _symmetry_equiv_pos_as_xyz
  1  'x, y, z'
loop_
 _atom_site_type_symbol
 _atom_site_label
 _atom_site_symmetry_multiplicity
 _atom_site_fract_x
 _atom_site_fract_y
 _atom_site_fract_z
 _atom_site_occupancy
 _atom_site_hle17_bader_spin_density
 _atom_site_hle17_ddec_charge
 _atom_site_hle17_ddec_spin_density
 _atom_site_hle17_ddec_sum_bond_order
 _atom_site_hle17_magmom
 _atom_site_hse06_10hf_bader_spin_density
 _atom_site_hse06_10hf_ddec_charge
 _atom_site_hse06_10hf_ddec_spin_density
 _atom_site_hse06_10hf_ddec_sum_bond_order
 _atom_site_hse06_10hf_magmom
 _atom_site_hse06_bader_spin_density
 _atom_site_hse06_ddec_charge
 _atom_site_hse06_ddec_spin_density
 _atom_site_hse06_ddec_sum_bond_order
 _atom_site_hse06_magmom
 _atom_site_pbe_bader_spin_density
 _atom_site_pbe_cm5_charge
 _atom_site_pbe_ddec_charge
 _atom_site_pbe_ddec_spin_density
 _atom_site_pbe_ddec_sum_bond_order
 _atom_site_pbe_magmom
Na  Na0  1  0.48831330  0.51794010  0.90434557  1  0  0.860541  0  0.441209  0  0  0.789393  0  0.615518  0  0  0.801313  0  0.596622  0  0  0.688246  0.780815  0  0.628933  0
Na  Na1  1  0.51169126  0.98206214  0.40434537  1  0  0.860502  0  0.441272  0  0  0.789354  0  0.615566  0  0  0.801269  0  0.596671  0  0  0.688242  0.780771  0  0.628972  0
Na  Na2  1  0.51168905  0.48206039  0.09565579  1  0  0.860508  0  0.441279  0  0  0.789375  0  0.615562  0  0  0.801297  0  0.596667  0  0  0.688251  0.780807  0  0.628935  0
Na  Na3  1  0.48831037  0.01794022  0.59565411  1  0  0.860515  0  0.441277  0  0  0.789372  0  0.615566  0  0  0.801292  0  0.59667  0  0  0.688251  0.780787  0  0.628956  0
H  H4  1  0.91912943  0.42757462  0.03071991  1  0  0.079605  0  1.007749  0  0  0.087272  0  1.07937  0  0  0.090791  0  1.07762  0  0  0.085639  0.085082  0  1.08005  0
H  H5  1  0.08086673  0.07242369  0.53070946  1  0  0.07954  0  1.007717  0  0  0.087278  0  1.079265  0  0  0.090744  0  1.077566  0  0  0.085728  0.085175  0  1.079963  0
H  H6  1  0.08087108  0.57241930  0.96928457  1  0  0.079544  0  1.007717  0  0  0.087208  0  1.079273  0  0  0.090659  0  1.077543  0  0  0.08567  0.085126  0  1.079933  0
H  H7  1  0.91913445  0.92758241  0.46928127  1  0  0.079557  0  1.007613  0  0  0.087176  0  1.079239  0  0  0.090654  0  1.077481  0  0  0.085756  0.085193  0  1.079929  0
H  H8  1  0.96140048  0.21437158  0.05698112  1  0  0.070984  0  0.972867  0  0  0.085884  0  1.029627  0  0  0.088402  0  1.027654  0  0  0.088864  0.083826  0  1.031354  0
H  H9  1  0.03859959  0.28562691  0.55697810  1  0  0.070955  0  0.97285  0  0  0.085839  0  1.029632  0  0  0.088358  0  1.027661  0  0  0.088858  0.083814  0  1.031325  0
H  H10  1  0.03860293  0.78562235  0.94301898  1  0  0.070962  0  0.972816  0  0  0.085859  0  1.02959  0  0  0.088374  0  1.027617  0  0  0.088862  0.083817  0  1.031323  0
H  H11  1  0.96139916  0.71437542  0.44301513  1  0  0.070967  0  0.972842  0  0  0.085873  0  1.029602  0  0  0.088386  0  1.02763  0  0  0.088844  0.083841  0  1.031278  0
H  H12  1  0.78583439  0.03139239  0.04426480  1  0  0.077425  0  0.974879  0  0  0.087155  0  1.035999  0  0  0.090656  0  1.035206  0  0  0.082749  0.085232  0  1.035261  0
H  H13  1  0.21416649  0.46860510  0.54427109  1  0  0.077413  0  0.97499  0  0  0.087187  0  1.036056  0  0  0.090677  0  1.035278  0  0  0.082733  0.085264  0  1.035258  0
H  H14  1  0.21416662  0.96860528  0.95572969  1  0  0.077397  0  0.975012  0  0  0.087168  0  1.036084  0  0  0.090655  0  1.03531  0  0  0.082749  0.085273  0  1.035282  0
H  H15  1  0.78583055  0.53139161  0.45572776  1  0  0.077379  0  0.974961  0  0  0.087148  0  1.036041  0  0  0.090638  0  1.035263  0  0  0.082729  0.085212  0  1.0352  0
H  H16  1  0.56252537  0.07319479  0.00263781  1  0  0.062598  0  0.99298  0  0  0.077321  0  1.052068  0  0  0.079876  0  1.049337  0  0  0.084464  0.075108  0  1.054165  0
H  H17  1  0.43747447  0.42680243  0.50264347  1  0  0.062504  0  0.993057  0  0  0.077244  0  1.052123  0  0  0.079794  0  1.049395  0  0  0.08453  0.075166  0  1.054165  0
H  H18  1  0.43747447  0.92680849  0.99735855  1  0  0.062541  0  0.992915  0  0  0.077277  0  1.052001  0  0  0.079832  0  1.04927  0  0  0.084623  0.075279  0  1.054076  0
H  H19  1  0.56251892  0.57318864  0.49735664  1  0  0.062593  0  0.992959  0  0  0.077341  0  1.052021  0  0  0.079897  0  1.049289  0  0  0.084638  0.075341  0  1.054057  0
H  H20  1  0.51792354  0.28622632  0.97377817  1  0  0.063393  0  1.002934  0  0  0.072971  0  1.074357  0  0  0.077485  0  1.070739  0  0  0.090988  0.070064  0  1.076346  0
H  H21  1  0.48207803  0.21377293  0.47377849  1  0  0.06339  0  1.002988  0  0  0.07297  0  1.074402  0  0  0.077484  0  1.070785  0  0  0.091014  0.070081  0  1.076399  0
H  H22  1  0.48208233  0.71377888  0.02622381  1  0  0.06341  0  1.002912  0  0  0.07295  0  1.074374  0  0  0.077458  0  1.070765  0  0  0.090931  0.070019  0  1.076386  0
H  H23  1  0.51792467  0.78622288  0.52622162  1  0  0.063358  0  1.002909  0  0  0.072903  0  1.074376  0  0  0.077415  0  1.070763  0  0  0.091015  0.070094  0  1.07633  0
H  H24  1  0.87375398  0.57415440  0.96174637  1  0  0.008992  0  0.922934  0  0  0.029622  0  0.977718  0  0  0.028214  0  0.978898  0  0  0.090517  0.03056  0  0.976739  0
H  H25  1  0.12624609  0.92584255  0.46174648  1  0  0.008966  0  0.922991  0  0  0.029585  0  0.977795  0  0  0.028177  0  0.978976  0  0  0.090493  0.030482  0  0.976844  0
H  H26  1  0.12624996  0.42585078  0.03825374  1  0  0.008998  0  0.922902  0  0  0.029618  0  0.977729  0  0  0.028209  0  0.978912  0  0  0.090487  0.030502  0  0.976762  0
H  H27  1  0.87375442  0.07415137  0.53825426  1  0  0.008976  0  0.922916  0  0  0.02965  0  0.977684  0  0  0.028242  0  0.978862  0  0  0.090508  0.030551  0  0.97673  0
H  H28  1  0.73562479  0.67716703  0.86709086  1  0  0.086344  0  0.967874  0  0  0.106592  0  1.032961  0  0  0.108256  0  1.032295  0  0  0.084784  0.105187  0  1.033885  0
H  H29  1  0.26437342  0.82283118  0.36709013  1  0  0.08637  0  0.967821  0  0  0.106617  0  1.032909  0  0  0.108282  0  1.032241  0  0  0.084793  0.105201  0  1.03386  0
H  H30  1  0.26436948  0.32283060  0.13291049  1  0  0.086426  0  0.967802  0  0  0.106687  0  1.032878  0  0  0.108356  0  1.032206  0  0  0.084773  0.105204  0  1.033866  0
H  H31  1  0.73563195  0.17717026  0.63291061  1  0  0.086386  0  0.96784  0  0  0.106645  0  1.03291  0  0  0.108313  0  1.032239  0  0  0.08479  0.105193  0  1.033881  0
H  H32  1  0.82151895  0.79013290  0.93501827  1  0  0.09387  0  0.960436  0  0  0.11596  0  1.020892  0  0  0.116624  0  1.021214  0  0  0.084898  0.116719  0  1.018456  0
H  H33  1  0.17847926  0.70986480  0.43501844  1  0  0.093891  0  0.960473  0  0  0.115991  0  1.020912  0  0  0.116655  0  1.021234  0  0  0.084866  0.116686  0  1.018477  0
H  H34  1  0.17847305  0.20986939  0.06497934  1  0  0.093878  0  0.960497  0  0  0.116019  0  1.020892  0  0  0.116685  0  1.021213  0  0  0.084911  0.116704  0  1.018519  0
H  H35  1  0.82152548  0.29013195  0.56498167  1  0  0.093849  0  0.960503  0  0  0.115974  0  1.020917  0  0  0.116641  0  1.021236  0  0  0.084851  0.116647  0  1.018494  0
H  H36  1  0.65467939  0.73807791  0.95287938  1  0  0.082713  0  0.982321  0  0  0.101839  0  1.05184  0  0  0.103312  0  1.051284  0  0  0.084327  0.101624  0  1.050835  0
H  H37  1  0.34532066  0.76191898  0.45287851  1  0  0.082723  0  0.982342  0  0  0.101841  0  1.051861  0  0  0.103314  0  1.051304  0  0  0.084157  0.101431  0  1.050866  0
H  H38  1  0.34531848  0.26191786  0.04712011  1  0  0.082705  0  0.982312  0  0  0.101813  0  1.051859  0  0  0.103289  0  1.05129  0  0  0.084088  0.10135  0  1.05087  0
H  H39  1  0.65468349  0.23808059  0.54712097  1  0  0.082725  0  0.982279  0  0  0.101827  0  1.051824  0  0  0.103298  0  1.051272  0  0  0.084186  0.101457  0  1.050836  0
H  H40  1  0.82983354  0.57017675  0.11820859  1  0  0.095646  0  0.957494  0  0  0.116608  0  1.018349  0  0  0.118084  0  1.018391  0  0  0.085243  0.115566  0  1.018466  0
H  H41  1  0.17016810  0.92982741  0.61820852  1  0  0.095625  0  0.957496  0  0  0.116601  0  1.018341  0  0  0.118078  0  1.018381  0  0  0.085179  0.115485  0  1.018511  0
H  H42  1  0.17016957  0.42982936  0.88179089  1  0  0.095606  0  0.957492  0  0  0.116566  0  1.018355  0  0  0.118044  0  1.018393  0  0  0.08514  0.11539  0  1.018602  0
H  H43  1  0.82982990  0.07016930  0.38179222  1  0  0.095597  0  0.957488  0  0  0.116536  0  1.018372  0  0  0.118014  0  1.018411  0  0  0.085108  0.115368  0  1.018562  0
H  H44  1  0.72441183  0.68591997  0.10220132  1  0  0.077818  0  0.984707  0  0  0.096643  0  1.055769  0  0  0.098623  0  1.054618  0  0  0.080878  0.095095  0  1.056821  0
H  H45  1  0.27558773  0.81408314  0.60220223  1  0  0.077813  0  0.984736  0  0  0.096639  0  1.055785  0  0  0.098623  0  1.054634  0  0  0.080837  0.095033  0  1.05686  0
H  H46  1  0.27558934  0.31408612  0.89779816  1  0  0.07781  0  0.984724  0  0  0.09663  0  1.05579  0  0  0.098611  0  1.05464  0  0  0.080873  0.095044  0  1.056903  0
H  H47  1  0.72441111  0.18591264  0.39779975  1  0  0.077851  0  0.98471  0  0  0.096672  0  1.055772  0  0  0.098656  0  1.05462  0  0  0.080882  0.095116  0  1.05683  0
H  H48  1  0.89378046  0.72126347  0.08063945  1  0  0.094715  0  0.957132  0  0  0.116769  0  1.01657  0  0  0.117348  0  1.01769  0  0  0.081795  0.116204  0  1.016255  0
H  H49  1  0.10622194  0.77873953  0.58064019  1  0  0.094728  0  0.957043  0  0  0.116768  0  1.016499  0  0  0.117349  0  1.017617  0  0  0.081702  0.116112  0  1.016189  0
H  H50  1  0.10621987  0.27874356  0.91936066  1  0  0.094669  0  0.957099  0  0  0.116715  0  1.016547  0  0  0.117295  0  1.017665  0  0  0.081547  0.115926  0  1.016242  0
H  H51  1  0.89377979  0.22125627  0.41935992  1  0  0.094696  0  0.95706  0  0  0.116739  0  1.016506  0  0  0.117318  0  1.017626  0  0  0.081613  0.116006  0  1.016167  0
H  H52  1  0.49581385  0.63182369  0.66500847  1  0  0.056344  0  0.920937  0  0  0.068967  0  0.988153  0  0  0.069107  0  0.987951  0  0  0.102381  0.068766  0  0.98871  0
H  H53  1  0.50418244  0.86817605  0.16501046  1  0  0.056398  0  0.920922  0  0  0.06903  0  0.98813  0  0  0.06917  0  0.987926  0  0  0.102356  0.068769  0  0.988684  0
H  H54  1  0.50418356  0.36817583  0.33499101  1  0  0.056397  0  0.920908  0  0  0.069013  0  0.988121  0  0  0.069152  0  0.987918  0  0  0.102362  0.068751  0  0.988682  0
H  H55  1  0.49581665  0.13182160  0.83499152  1  0  0.056372  0  0.920924  0  0  0.06897  0  0.98815  0  0  0.069109  0  0.987945  0  0  0.102372  0.068787  0  0.988647  0
H  H56  1  0.62032266  0.60606007  0.73789712  1  0  0.07035  0  0.914079  0  0  0.087321  0  0.969808  0  0  0.087796  0  0.969264  0  0  0.115608  0.086958  0  0.970473  0
H  H57  1  0.37967594  0.89394202  0.23789787  1  0  0.070441  0  0.914032  0  0  0.087389  0  0.969777  0  0  0.087863  0  0.969231  0  0  0.115538  0.086906  0  0.970474  0
H  H58  1  0.37967513  0.39394226  0.26210362  1  0  0.070482  0  0.913995  0  0  0.087416  0  0.969738  0  0  0.087889  0  0.969193  0  0  0.115561  0.086937  0  0.970405  0
H  H59  1  0.62032411  0.10605564  0.76210349  1  0  0.07041  0  0.914037  0  0  0.08737  0  0.969748  0  0  0.087843  0  0.9692  0  0  0.115582  0.086949  0  0.970403  0
H  H60  1  0.28521859  0.70568670  0.83516163  1  0  0.077215  0  0.964308  0  0  0.089084  0  1.028827  0  0  0.088105  0  1.031586  0  0  0.10945  0.089738  0  1.027053  0
H  H61  1  0.71477886  0.79431318  0.33516101  1  0  0.077201  0  0.96434  0  0  0.089049  0  1.028863  0  0  0.088074  0  1.03162  0  0  0.109374  0.089625  0  1.02712  0
H  H62  1  0.71477836  0.29431656  0.16483848  1  0  0.077131  0  0.964334  0  0  0.088987  0  1.028876  0  0  0.088011  0  1.031628  0  0  0.109363  0.089594  0  1.027132  0
H  H63  1  0.28522216  0.20568449  0.66483910  1  0  0.077127  0  0.964358  0  0  0.088991  0  1.028888  0  0  0.088017  0  1.031645  0  0  0.109293  0.089549  0  1.027114  0
H  H64  1  0.29231484  0.68730343  0.72350731  1  0  0.052989  0  0.917745  0  0  0.0676  0  0.979449  0  0  0.068406  0  0.977822  0  0  0.100453  0.067246  0  0.98036  0
H  H65  1  0.70768252  0.81269668  0.22350736  1  0  0.052955  0  0.917831  0  0  0.067581  0  0.979488  0  0  0.068387  0  0.977859  0  0  0.100386  0.067153  0  0.980411  0
H  H66  1  0.70768319  0.31270077  0.27649218  1  0  0.052931  0  0.917809  0  0  0.067561  0  0.979474  0  0  0.068367  0  0.977845  0  0  0.100351  0.067097  0  0.980407  0
H  H67  1  0.29231669  0.18730191  0.77649212  1  0  0.052979  0  0.917755  0  0  0.067595  0  0.979449  0  0  0.068401  0  0.977819  0  0  0.100412  0.06721  0  0.980332  0
H  H68  1  0.45067409  0.89121557  0.83018738  1  0  0.054065  0  0.937242  0  0  0.064482  0  1.009293  0  0  0.064487  0  1.009404  0  0  0.09974  0.064244  0  1.009779  0
H  H69  1  0.54932359  0.60878615  0.33018681  1  0  0.054098  0  0.93721  0  0  0.064516  0  1.009277  0  0  0.064525  0  1.009383  0  0  0.099587  0.064133  0  1.009738  0
H  H70  1  0.54932587  0.10878864  0.16981273  1  0  0.054101  0  0.937243  0  0  0.064525  0  1.009309  0  0  0.064535  0  1.009417  0  0  0.09976  0.064323  0  1.009748  0
H  H71  1  0.45067633  0.39121058  0.66981392  1  0  0.054127  0  0.937236  0  0  0.064547  0  1.009285  0  0  0.064556  0  1.009393  0  0  0.099713  0.064279  0  1.009768  0
H  H72  1  0.32582100  0.91431063  0.75675059  1  0  0.074004  0  0.915809  0  0  0.089678  0  0.974117  0  0  0.08986  0  0.974125  0  0  0.114844  0.089337  0  0.974425  0
H  H73  1  0.67417558  0.58569063  0.25674814  1  0  0.074037  0  0.915767  0  0  0.089701  0  0.974105  0  0  0.089885  0  0.974114  0  0  0.114951  0.089462  0  0.974426  0
H  H74  1  0.67417800  0.08569358  0.24325014  1  0  0.07406  0  0.915774  0  0  0.089734  0  0.974108  0  0  0.089917  0  0.974117  0  0  0.114902  0.089451  0  0.974426  0
H  H75  1  0.32582363  0.41430797  0.74325134  1  0  0.074062  0  0.915791  0  0  0.089724  0  0.974121  0  0  0.089909  0  0.974129  0  0  0.114976  0.089525  0  0.974421  0
H  H76  1  0.66401405  0.81735388  0.66288182  1  0  0.086181  0  0.935152  0  0  0.100392  0  0.993033  0  0  0.100174  0  0.994315  0  0  0.115289  0.100398  0  0.9923  0
H  H77  1  0.33598164  0.68264866  0.16288386  1  0  0.086229  0  0.935182  0  0  0.100412  0  0.993059  0  0  0.100195  0  0.99434  0  0  0.115322  0.100459  0  0.992317  0
H  H78  1  0.33598277  0.18264845  0.33711642  1  0  0.086221  0  0.935185  0  0  0.100404  0  0.993063  0  0  0.100186  0  0.994343  0  0  0.115473  0.100603  0  0.992334  0
H  H79  1  0.66401661  0.31734993  0.83711687  1  0  0.08625  0  0.935169  0  0  0.100437  0  0.99305  0  0  0.10022  0  0.994331  0  0  0.115371  0.100548  0  0.992289  0
H  H80  1  0.65226670  0.83344465  0.77468614  1  0  0.056395  0  0.917814  0  0  0.071117  0  0.979559  0  0  0.071724  0  0.978429  0  0  0.102992  0.070738  0  0.980158  0
H  H81  1  0.34773004  0.66655765  0.27468814  1  0  0.056421  0  0.917786  0  0  0.071107  0  0.979544  0  0  0.071712  0  0.978419  0  0  0.103081  0.070802  0  0.980165  0
H  H82  1  0.34773205  0.16655768  0.22531272  1  0  0.05641  0  0.91783  0  0  0.071101  0  0.979574  0  0  0.071705  0  0.97845  0  0  0.103095  0.070855  0  0.980152  0
H  H83  1  0.65226905  0.33344000  0.72531259  1  0  0.056449  0  0.917809  0  0  0.071168  0  0.979542  0  0  0.071774  0  0.978414  0  0  0.103018  0.07081  0  0.980149  0
C  C84  1  0.83932608  0.35164483  0.02332705  1  0  -0.225338  0  3.74876  0  0  -0.237861  0  3.998821  0  0  -0.246889  0  4.019515  0  0  -0.129243  -0.232811  0  3.98533  0
C  C85  1  0.16067656  0.14835160  0.52332433  1  0  -0.225296  0  3.748695  0  0  -0.237867  0  3.998719  0  0  -0.246851  0  4.019449  0  0  -0.129197  -0.232764  0  3.985256  0
C  C86  1  0.16067627  0.64835566  0.97667306  1  0  -0.225308  0  3.748691  0  0  -0.237763  0  3.998652  0  0  -0.246703  0  4.019308  0  0  -0.129215  -0.232793  0  3.985252  0
C  C87  1  0.83932592  0.85164982  0.47666890  1  0  -0.225292  0  3.748472  0  0  -0.237736  0  3.99847  0  0  -0.246699  0  4.019107  0  0  -0.129137  -0.232711  0  3.985101  0
C  C88  1  0.86350049  0.22935040  0.03845489  1  0  -0.064782  0  3.884137  0  0  -0.075713  0  4.128113  0  0  -0.072164  0  4.14922  0  0  -0.112531  -0.077701  0  4.114336  0
C  C89  1  0.13649820  0.27064516  0.53845062  1  0  -0.064596  0  3.883961  0  0  -0.075516  0  4.127937  0  0  -0.071968  0  4.149032  0  0  -0.112369  -0.077468  0  4.114117  0
C  C90  1  0.13650304  0.77064447  0.96154584  1  0  -0.064718  0  3.884137  0  0  -0.07566  0  4.12812  0  0  -0.072103  0  4.149203  0  0  -0.112506  -0.077656  0  4.114455  0
C  C91  1  0.86349824  0.72935435  0.46154261  1  0  -0.06471  0  3.88378  0  0  -0.075647  0  4.127762  0  0  -0.07209  0  4.14885  0  0  -0.112393  -0.0776  0  4.113944  0
C  C92  1  0.76587803  0.12651804  0.03195951  1  0  -0.176888  0  3.886723  0  0  -0.18661  0  4.13705  0  0  -0.194877  0  4.161733  0  0  -0.145972  -0.181066  0  4.118551  0
C  C93  1  0.23412006  0.37348029  0.53196181  1  0  -0.177023  0  3.886903  0  0  -0.186799  0  4.13725  0  0  -0.195056  0  4.161933  0  0  -0.146018  -0.181214  0  4.118645  0
C  C94  1  0.23412516  0.87348152  0.96803747  1  0  -0.176911  0  3.886792  0  0  -0.186676  0  4.137141  0  0  -0.194942  0  4.161839  0  0  -0.145974  -0.181118  0  4.118624  0
C  C95  1  0.76587350  0.62651920  0.46803392  1  0  -0.176875  0  3.886575  0  0  -0.186643  0  4.136939  0  0  -0.194907  0  4.161634  0  0  -0.146053  -0.181073  0  4.118261  0
C  C96  1  0.64140194  0.15062813  0.00878001  1  0  -0.070233  0  3.904487  0  0  -0.080704  0  4.146301  0  0  -0.077986  0  4.168667  0  0  -0.115175  -0.08178  0  4.130741  0
C  C97  1  0.35859732  0.34937194  0.50878667  1  0  -0.07015  0  3.904488  0  0  -0.080639  0  4.146349  0  0  -0.077915  0  4.168704  0  0  -0.115101  -0.081683  0  4.130749  0
C  C98  1  0.35859991  0.84936861  0.99122010  1  0  -0.070138  0  3.904464  0  0  -0.080624  0  4.146302  0  0  -0.077908  0  4.168669  0  0  -0.115065  -0.081651  0  4.130801  0
C  C99  1  0.64139732  0.65062850  0.49121906  1  0  -0.070219  0  3.904374  0  0  -0.080718  0  4.146236  0  0  -0.078002  0  4.168602  0  0  -0.115022  -0.081696  0  4.130607  0
C  C100  1  0.61567147  0.27157990  0.99321194  1  0  -0.241136  0  3.808105  0  0  -0.25124  0  4.058376  0  0  -0.259396  0  4.07813  0  0  -0.130865  -0.246368  0  4.045162  0
C  C101  1  0.38433135  0.22842135  0.49321163  1  0  -0.241037  0  3.807983  0  0  -0.251145  0  4.058259  0  0  -0.259299  0  4.078011  0  0  -0.130797  -0.246256  0  4.045084  0
C  C102  1  0.38432812  0.72842151  0.00679504  1  0  -0.241259  0  3.808045  0  0  -0.251343  0  4.058376  0  0  -0.259498  0  4.078136  0  0  -0.130786  -0.246369  0  4.045177  0
C  C103  1  0.61567775  0.77157918  0.50679348  1  0  -0.241119  0  3.808019  0  0  -0.251214  0  4.058348  0  0  -0.259372  0  4.07811  0  0  -0.130752  -0.246292  0  4.045117  0
C  C104  1  0.71299482  0.37938136  0.99960232  1  0  0.250805  0  3.967519  0  0  0.250439  0  4.209233  0  0  0.264376  0  4.229135  0  0  0.062569  0.241316  0  4.196104  0
C  C105  1  0.28700787  0.12061899  0.49960167  1  0  0.250769  0  3.967511  0  0  0.250402  0  4.209214  0  0  0.26434  0  4.229107  0  0  0.06256  0.241257  0  4.19612  0
C  C106  1  0.28700824  0.62061725  0.00040216  1  0  0.250889  0  3.96735  0  0  0.250507  0  4.209064  0  0  0.264445  0  4.228955  0  0  0.06255  0.241318  0  4.195914  0
C  C107  1  0.71299678  0.87938432  0.50040094  1  0  0.250772  0  3.967443  0  0  0.250422  0  4.209119  0  0  0.264358  0  4.229017  0  0  0.062554  0.24128  0  4.196025  0
C  C108  1  0.78217559  0.60077688  0.98741411  1  0  0.268745  0  3.717199  0  0  0.269872  0  3.949022  0  0  0.275132  0  3.967869  0  0  -0.012841  0.266111  0  3.9365  0
C  C109  1  0.21782478  0.89922210  0.48741356  1  0  0.26872  0  3.717238  0  0  0.269817  0  3.949119  0  0  0.27508  0  3.967963  0  0  -0.012862  0.266065  0  3.936587  0
C  C110  1  0.21782676  0.39922361  0.01258725  1  0  0.268758  0  3.717188  0  0  0.26982  0  3.949145  0  0  0.275084  0  3.967987  0  0  -0.01287  0.266074  0  3.936518  0
C  C111  1  0.78217732  0.10077651  0.51258843  1  0  0.268852  0  3.717115  0  0  0.26987  0  3.949094  0  0  0.275133  0  3.967939  0  0  -0.012844  0.266122  0  3.936541  0
C  C112  1  0.74668645  0.70752301  0.93258494  1  0  -0.344474  0  3.718089  0  0  -0.42242  0  3.958199  0  0  -0.424853  0  3.967546  0  0  -0.248509  -0.420628  0  3.95032  0
C  C113  1  0.25331176  0.79247468  0.43258474  1  0  -0.34455  0  3.71815  0  0  -0.422483  0  3.958259  0  0  -0.424917  0  3.967605  0  0  -0.248593  -0.420682  0  3.950373  0
C  C114  1  0.25330999  0.29247650  0.06741454  1  0  -0.344591  0  3.718168  0  0  -0.422567  0  3.958292  0  0  -0.425002  0  3.967636  0  0  -0.248662  -0.420784  0  3.950456  0
C  C115  1  0.74669311  0.20752302  0.56741599  1  0  -0.344556  0  3.718137  0  0  -0.422516  0  3.958282  0  0  -0.424956  0  3.967625  0  0  -0.24864  -0.420759  0  3.950436  0
C  C116  1  0.80965508  0.64738604  0.07736485  1  0  -0.348259  0  3.69425  0  0  -0.422606  0  3.926377  0  0  -0.426429  0  3.937575  0  0  -0.248834  -0.419865  0  3.919536  0
C  C117  1  0.19034648  0.85261787  0.57736520  1  0  -0.348234  0  3.694224  0  0  -0.422572  0  3.926344  0  0  -0.426401  0  3.937542  0  0  -0.248925  -0.419909  0  3.919574  0
C  C118  1  0.19034609  0.35262006  0.92263526  1  0  -0.348167  0  3.694256  0  0  -0.422473  0  3.926362  0  0  -0.4263  0  3.937563  0  0  -0.248953  -0.419857  0  3.919676  0
C  C119  1  0.80965550  0.14737981  0.42263679  1  0  -0.348267  0  3.694186  0  0  -0.422549  0  3.926312  0  0  -0.426376  0  3.937509  0  0  -0.248845  -0.419837  0  3.919498  0
C  C120  1  0.54381042  0.66423629  0.72422610  1  0  0.052741  0  3.657269  0  0  -0.006674  0  3.93264  0  0  -0.000425  0  3.938586  0  0  -0.072126  -0.011084  0  3.929206  0
C  C121  1  0.45618610  0.83576476  0.22422736  1  0  0.052583  0  3.657317  0  0  -0.006801  0  3.932704  0  0  -0.000546  0  3.938639  0  0  -0.072245  -0.011269  0  3.929268  0
C  C122  1  0.45618532  0.33576509  0.27577400  1  0  0.052589  0  3.657468  0  0  -0.006788  0  3.932819  0  0  -0.00053  0  3.93875  0  0  -0.07229  -0.011247  0  3.929384  0
C  C123  1  0.54381298  0.16423290  0.77577400  1  0  0.052715  0  3.657299  0  0  -0.006624  0  3.932565  0  0  -0.000363  0  3.938494  0  0  -0.072044  -0.01099  0  3.929044  0
C  C124  1  0.34816698  0.72031777  0.77995297  1  0  0.043906  0  3.643653  0  0  -0.01193  0  3.910176  0  0  -0.005625  0  3.916279  0  0  -0.076458  -0.016228  0  3.90609  0
C  C125  1  0.65182868  0.77968363  0.27995291  1  0  0.043942  0  3.643657  0  0  -0.01177  0  3.91008  0  0  -0.005464  0  3.916186  0  0  -0.076323  -0.015976  0  3.905978  0
C  C126  1  0.65182900  0.27968549  0.22004714  1  0  0.044096  0  3.643475  0  0  -0.011652  0  3.909928  0  0  -0.00534  0  3.916029  0  0  -0.076396  -0.015935  0  3.905863  0
C  C127  1  0.34817053  0.22031497  0.72004782  1  0  0.044062  0  3.643466  0  0  -0.011727  0  3.909968  0  0  -0.005422  0  3.916076  0  0  -0.076387  -0.016033  0  3.905841  0
C  C128  1  0.40287342  0.85735546  0.77134476  1  0  0.048867  0  3.653272  0  0  -0.011937  0  3.930879  0  0  -0.00566  0  3.936934  0  0  -0.075987  -0.01659  0  3.927616  0
C  C129  1  0.59712306  0.64264495  0.27134305  1  0  0.048782  0  3.653261  0  0  -0.012113  0  3.930918  0  0  -0.005843  0  3.93698  0  0  -0.075931  -0.016675  0  3.927588  0
C  C130  1  0.59712533  0.14264688  0.22865535  1  0  0.048751  0  3.653256  0  0  -0.012173  0  3.930987  0  0  -0.005906  0  3.937051  0  0  -0.075856  -0.016667  0  3.927634  0
C  C131  1  0.40287518  0.35735364  0.72865643  1  0  0.048685  0  3.653313  0  0  -0.012179  0  3.930951  0  0  -0.005913  0  3.937019  0  0  -0.075905  -0.01675  0  3.927657  0
C  C132  1  0.59909923  0.80138929  0.71707481  1  0  0.042546  0  3.650948  0  0  -0.013507  0  3.919397  0  0  -0.007309  0  3.925132  0  0  -0.073876  -0.017748  0  3.915695  0
C  C133  1  0.40089560  0.69861357  0.21707630  1  0  0.042444  0  3.65112  0  0  -0.013533  0  3.919425  0  0  -0.007337  0  3.925157  0  0  -0.07392  -0.017844  0  3.915748  0
C  C134  1  0.40089663  0.19861302  0.28292467  1  0  0.042464  0  3.651188  0  0  -0.013502  0  3.919474  0  0  -0.007307  0  3.925206  0  0  -0.073716  -0.01766  0  3.915774  0
C  C135  1  0.59910265  0.30138501  0.78292443  1  0  0.042329  0  3.651265  0  0  -0.013716  0  3.919618  0  0  -0.007523  0  3.92535  0  0  -0.073858  -0.017946  0  3.915899  0
N  N136  1  0.67864470  0.49468376  0.98356631  1  0  -0.779325  0  3.058941  0  0  -0.719726  0  3.340646  0  0  -0.743783  0  3.352132  0  0  -0.593138  -0.704003  0  3.332792  0
N  N137  1  0.32135688  0.00531555  0.48356412  1  0  -0.779286  0  3.058884  0  0  -0.719662  0  3.340563  0  0  -0.743717  0  3.35205  0  0  -0.593091  -0.703886  0  3.33268  0
N  N138  1  0.32136017  0.50531393  0.01643567  1  0  -0.779281  0  3.058999  0  0  -0.719645  0  3.340701  0  0  -0.743709  0  3.352194  0  0  -0.59309  -0.703863  0  3.332753  0
N  N139  1  0.67864295  0.99468773  0.51643661  1  0  -0.779298  0  3.0589  0  0  -0.719661  0  3.340594  0  0  -0.743723  0  3.352086  0  0  -0.593069  -0.703826  0  3.332656  0
O  O140  1  0.45162237  0.64534534  0.79171453  1  0  -0.367807  0  2.264078  0  0  -0.298455  0  2.524391  0  0  -0.313982  0  2.524427  0  0  -0.299142  -0.287259  0  2.524385  0
O  O141  1  0.54837511  0.85465520  0.29171588  1  0  -0.367698  0  2.264017  0  0  -0.298496  0  2.524388  0  0  -0.314024  0  2.52442  0  0  -0.299165  -0.287274  0  2.52435  0
O  O142  1  0.54837252  0.35465697  0.20828558  1  0  -0.367842  0  2.264096  0  0  -0.298575  0  2.524437  0  0  -0.314107  0  2.524469  0  0  -0.299374  -0.287589  0  2.524482  0
O  O143  1  0.45162494  0.14534246  0.70828548  1  0  -0.367796  0  2.264011  0  0  -0.298529  0  2.524344  0  0  -0.31406  0  2.524376  0  0  -0.299092  -0.287235  0  2.524268  0
O  O144  1  0.49550731  0.87545332  0.70385383  1  0  -0.371533  0  2.27177  0  0  -0.30359  0  2.536535  0  0  -0.318772  0  2.535459  0  0  -0.301936  -0.292726  0  2.537363  0
O  O145  1  0.50448724  0.62454759  0.20385454  1  0  -0.371565  0  2.271788  0  0  -0.303533  0  2.536476  0  0  -0.318714  0  2.535402  0  0  -0.301992  -0.29268  0  2.537277  0
O  O146  1  0.50449060  0.12454995  0.29614565  1  0  -0.371529  0  2.271695  0  0  -0.303507  0  2.536399  0  0  -0.318685  0  2.535324  0  0  -0.301931  -0.292636  0  2.537262  0
O  O147  1  0.49551100  0.37545100  0.79614557  1  0  -0.371525  0  2.271814  0  0  -0.303494  0  2.536512  0  0  -0.318673  0  2.53544  0  0  -0.301901  -0.292562  0  2.537314  0
