# generated using pymatgen
data_ZnH6C8N4O3
_symmetry_space_group_name_H-M   'P 1'
_cell_length_a   7.15522967
_cell_length_b   10.25238511
_cell_length_c   14.55046014
_cell_angle_alpha   71.74270877
_cell_angle_beta   75.75866022
_cell_angle_gamma   69.59396094
_symmetry_Int_Tables_number   1
_chemical_formula_structural   ZnH6C8N4O3
_chemical_formula_sum   'Zn4 H24 C32 N16 O12'
_cell_volume   938.76552730
_cell_formula_units_Z   4
loop_
 _symmetry_equiv_pos_site_id
 _symmetry_equiv_pos_as_xyz
  1  'x, y, z'
loop_
 _atom_site_type_symbol
 _atom_site_label
 _atom_site_symmetry_multiplicity
 _atom_site_fract_x
 _atom_site_fract_y
 _atom_site_fract_z
 _atom_site_occupancy
 _atom_site_hle17_bader_spin_density
 _atom_site_hle17_ddec_charge
 _atom_site_hle17_ddec_spin_density
 _atom_site_hle17_ddec_sum_bond_order
 _atom_site_hle17_magmom
 _atom_site_hse06_10hf_bader_spin_density
 _atom_site_hse06_10hf_ddec_charge
 _atom_site_hse06_10hf_ddec_spin_density
 _atom_site_hse06_10hf_ddec_sum_bond_order
 _atom_site_hse06_10hf_magmom
 _atom_site_hse06_bader_spin_density
 _atom_site_hse06_ddec_charge
 _atom_site_hse06_ddec_spin_density
 _atom_site_hse06_ddec_sum_bond_order
 _atom_site_hse06_magmom
 _atom_site_pbe_bader_spin_density
 _atom_site_pbe_cm5_charge
 _atom_site_pbe_ddec_charge
 _atom_site_pbe_ddec_spin_density
 _atom_site_pbe_ddec_sum_bond_order
 _atom_site_pbe_magmom
Zn  Zn0  1  0.31891095  0.24993721  0.75005308  1  0  1.020829  0  1.839367  0  0  0.826194  0  2.310917  0  0  0.873269  0  2.258352  0  0  0.721618  0.793187  0  2.347486  0
Zn  Zn1  1  0.68108903  0.75006372  0.24994790  1  0  1.020808  0  1.839427  0  0  0.826186  0  2.31099  0  0  0.873265  0  2.258425  0  0  0.721633  0.793178  0  2.347545  0
Zn  Zn2  1  0.99999909  0.49999937  0.50000030  1  0  1.095777  0  1.81477  0  0  0.929108  0  2.267097  0  0  0.973078  0  2.213138  0  0  0.707915  0.898173  0  2.304336  0
Zn  Zn3  1  0.00000253  0.00000001  0.00000035  1  0  1.096496  0  1.81423  0  0  0.929963  0  2.26598  0  0  0.973874  0  2.212072  0  0  0.707598  0.898967  0  2.30324  0
H  H4  1  0.26470833  0.56195359  0.69566351  1  0  0.102247  0  0.981574  0  0  0.105589  0  1.055142  0  0  0.109001  0  1.053115  0  0  0.102232  0.103135  0  1.056655  0
H  H5  1  0.52228537  0.93764685  0.80397922  1  0  0.10103  0  0.978632  0  0  0.104993  0  1.05195  0  0  0.108412  0  1.04993  0  0  0.102035  0.10239  0  1.053735  0
H  H6  1  0.73528816  0.43805161  0.30433412  1  0  0.102213  0  0.98165  0  0  0.105573  0  1.055177  0  0  0.108983  0  1.053155  0  0  0.102254  0.103124  0  1.056689  0
H  H7  1  0.47771536  0.06235727  0.19601913  1  0  0.100987  0  0.978655  0  0  0.104977  0  1.051956  0  0  0.108385  0  1.049947  0  0  0.102003  0.102375  0  1.053746  0
H  H8  1  0.14711204  0.68089929  0.83368131  1  0  0.099281  0  0.944318  0  0  0.11081  0  1.000444  0  0  0.113554  0  0.999708  0  0  0.103585  0.108886  0  1.000947  0
H  H9  1  0.66237105  0.81896114  0.66584921  1  0  0.098796  0  0.94461  0  0  0.110856  0  1.000341  0  0  0.113511  0  0.999705  0  0  0.103383  0.10898  0  1.000844  0
H  H10  1  0.85288357  0.31910163  0.16631828  1  0  0.099306  0  0.944325  0  0  0.110809  0  1.000474  0  0  0.113553  0  0.999739  0  0  0.103592  0.108888  0  1.000976  0
H  H11  1  0.33762822  0.18104513  0.33414790  1  0  0.09879  0  0.944627  0  0  0.110856  0  1.000353  0  0  0.113511  0  0.999716  0  0  0.103363  0.108979  0  1.000853  0
H  H12  1  0.39654363  0.68104515  0.92607598  1  0  0.097894  0  0.98558  0  0  0.0989  0  1.060658  0  0  0.102618  0  1.058381  0  0  0.100541  0.096193  0  1.062423  0
H  H13  1  0.00467711  0.81875396  0.57385413  1  0  0.097487  0  0.98527  0  0  0.09828  0  1.060626  0  0  0.102006  0  1.058333  0  0  0.100013  0.095596  0  1.062355  0
H  H14  1  0.60345722  0.31895252  0.07392315  1  0  0.097923  0  0.985473  0  0  0.098935  0  1.060543  0  0  0.102653  0  1.058265  0  0  0.100577  0.096232  0  1.0623  0
H  H15  1  0.99532484  0.18124696  0.42614633  1  0  0.097478  0  0.985268  0  0  0.098273  0  1.060622  0  0  0.101998  0  1.05833  0  0  0.099995  0.095593  0  1.062344  0
H  H16  1  0.76090893  0.56279866  0.88051816  1  0  0.103946  0  0.93068  0  0  0.11699  0  0.983771  0  0  0.120341  0  0.982055  0  0  0.109781  0.11461  0  0.985073  0
H  H17  1  0.20482158  0.93694502  0.61987042  1  0  0.103642  0  0.930716  0  0  0.116458  0  0.984029  0  0  0.119791  0  0.982374  0  0  0.109685  0.114005  0  0.985377  0
H  H18  1  0.23908870  0.43719902  0.11948132  1  0  0.103948  0  0.930703  0  0  0.116997  0  0.983779  0  0  0.120346  0  0.982065  0  0  0.109783  0.114621  0  0.985082  0
H  H19  1  0.79518271  0.06305162  0.38013165  1  0  0.103622  0  0.930648  0  0  0.116421  0  0.983988  0  0  0.119756  0  0.982326  0  0  0.10967  0.11397  0  0.985331  0
H  H20  1  0.81402999  0.77932709  0.43208013  1  0  0.418951  0  0.874624  0  0  0.388997  0  0.943092  0  0  0.399654  0  0.927606  0  0  0.292191  0.381441  0  0.95406  0
H  H21  1  0.02521411  0.72048871  0.06770011  1  0  0.419496  0  0.874925  0  0  0.390063  0  0.94166  0  0  0.400679  0  0.926245  0  0  0.293198  0.382538  0  0.952539  0
H  H22  1  0.18597171  0.22067277  0.56792120  1  0  0.418936  0  0.874645  0  0  0.388976  0  0.943122  0  0  0.399631  0  0.927639  0  0  0.292194  0.381418  0  0.954093  0
H  H23  1  0.97478461  0.27951222  0.93230069  1  0  0.419497  0  0.874937  0  0  0.390064  0  0.941665  0  0  0.400682  0  0.926249  0  0  0.2932  0.382537  0  0.95255  0
H  H24  1  0.64756832  0.71626812  0.49673503  1  0  0.388454  0  0.90914  0  0  0.350537  0  0.998219  0  0  0.360785  0  0.983334  0  0  0.28967  0.343272  0  1.008771  0
H  H25  1  0.86034504  0.78378270  0.00311464  1  0  0.388878  0  0.908903  0  0  0.351088  0  0.997543  0  0  0.361332  0  0.982644  0  0  0.289726  0.343888  0  1.007961  0
H  H26  1  0.35243128  0.28373066  0.50326614  1  0  0.388458  0  0.90914  0  0  0.350542  0  0.998214  0  0  0.360789  0  0.98333  0  0  0.289671  0.343275  0  1.008765  0
H  H27  1  0.13965690  0.21621822  0.99688582  1  0  0.38886  0  0.908913  0  0  0.351073  0  0.99756  0  0  0.361317  0  0.98266  0  0  0.28973  0.343877  0  1.007972  0
C  C28  1  0.62481185  0.41290480  0.63604728  1  0  0.298287  0  3.752245  0  0  0.263387  0  4.023303  0  0  0.275669  0  4.041214  0  0  0.224142  0.255195  0  4.011103  0
C  C29  1  0.67360275  0.08670520  0.86400852  1  0  0.302162  0  3.75089  0  0  0.266553  0  4.022465  0  0  0.278864  0  4.040318  0  0  0.22574  0.258413  0  4.010202  0
C  C30  1  0.37518515  0.58709609  0.36395094  1  0  0.298335  0  3.752182  0  0  0.263475  0  4.023179  0  0  0.275759  0  4.041088  0  0  0.224196  0.255293  0  4.01096  0
C  C31  1  0.32639964  0.91329465  0.13599213  1  0  0.302099  0  3.750915  0  0  0.266567  0  4.022384  0  0  0.278878  0  4.040239  0  0  0.225724  0.258426  0  4.010121  0
C  C32  1  0.57871819  0.49324923  0.71078079  1  0  -0.012165  0  3.749972  0  0  -6.3e-05  0  3.98585  0  0  -0.001195  0  4.008177  0  0  -0.005521  0.000737  0  3.970671  0
C  C33  1  0.78261852  0.00634737  0.78927584  1  0  -0.016324  0  3.751376  0  0  -0.003905  0  3.987419  0  0  -0.005063  0  4.009788  0  0  -0.006578  -0.002992  0  3.972312  0
C  C34  1  0.42127767  0.50675275  0.28921792  1  0  -0.012132  0  3.749968  0  0  -2.9e-05  0  3.985871  0  0  -0.001163  0  4.008201  0  0  -0.005552  0.000776  0  3.97068  0
C  C35  1  0.21738387  0.99365248  0.21072481  1  0  -0.016387  0  3.751417  0  0  -0.003927  0  3.987439  0  0  -0.005086  0  4.009808  0  0  -0.006595  -0.003013  0  3.972339  0
C  C36  1  0.37251180  0.56053862  0.73766986  1  0  -0.10807  0  3.733798  0  0  -0.131933  0  3.991508  0  0  -0.134081  0  4.011188  0  0  -0.087741  -0.130224  0  3.97798  0
C  C37  1  0.67082301  0.93912076  0.76212597  1  0  -0.104486  0  3.729577  0  0  -0.128709  0  3.987068  0  0  -0.130897  0  4.006734  0  0  -0.087329  -0.127327  0  3.974347  0
C  C38  1  0.62748670  0.43946334  0.26232766  1  0  -0.108024  0  3.733823  0  0  -0.13188  0  3.991515  0  0  -0.134029  0  4.011199  0  0  -0.0877  -0.13018  0  3.977991  0
C  C39  1  0.32917722  0.06088124  0.23787413  1  0  -0.104446  0  3.729633  0  0  -0.128698  0  3.987095  0  0  -0.130876  0  4.006769  0  0  -0.087305  -0.127319  0  3.974384  0
C  C40  1  0.30694504  0.62786970  0.81434290  1  0  -0.040025  0  3.731351  0  0  -0.054703  0  3.978825  0  0  -0.055798  0  3.999231  0  0  -0.082105  -0.053814  0  3.964671  0
C  C41  1  0.74967323  0.87188994  0.68540973  1  0  -0.039438  0  3.732538  0  0  -0.054758  0  3.980062  0  0  -0.055787  0  4.00056  0  0  -0.081845  -0.054083  0  3.966525  0
C  C42  1  0.69305366  0.37213012  0.18565569  1  0  -0.040001  0  3.731393  0  0  -0.05466  0  3.978857  0  0  -0.055754  0  3.999264  0  0  -0.082088  -0.053774  0  3.964711  0
C  C43  1  0.25032712  0.12811203  0.31458882  1  0  -0.039393  0  3.732614  0  0  -0.054709  0  3.980133  0  0  -0.055737  0  4.000628  0  0  -0.081799  -0.054032  0  3.966594  0
C  C44  1  0.44623495  0.62747705  0.86673038  1  0  -0.048105  0  3.726017  0  0  -0.062072  0  3.977669  0  0  -0.064124  0  3.998016  0  0  -0.082368  -0.060453  0  3.96389  0
C  C45  1  0.94113970  0.87223159  0.63325720  1  0  -0.048844  0  3.727642  0  0  -0.062223  0  3.979079  0  0  -0.064288  0  3.999423  0  0  -0.081818  -0.061066  0  3.965605  0
C  C46  1  0.55376351  0.37252170  0.13326908  1  0  -0.048209  0  3.725984  0  0  -0.062177  0  3.977633  0  0  -0.064228  0  3.997975  0  0  -0.08245  -0.060562  0  3.963865  0
C  C47  1  0.05886224  0.12776934  0.36674326  1  0  -0.0489  0  3.72769  0  0  -0.06229  0  3.979128  0  0  -0.064356  0  3.999472  0  0  -0.081835  -0.061137  0  3.965655  0
C  C48  1  0.65097252  0.56201366  0.84060782  1  0  -0.06724  0  3.721751  0  0  -0.090575  0  3.970038  0  0  -0.091602  0  3.990831  0  0  -0.079783  -0.090034  0  3.956265  0
C  C49  1  0.05407905  0.93761868  0.65961944  1  0  -0.066774  0  3.723659  0  0  -0.090021  0  3.971498  0  0  -0.091068  0  3.992313  0  0  -0.079653  -0.089064  0  3.957373  0
C  C50  1  0.34902706  0.43798401  0.15939114  1  0  -0.067261  0  3.721784  0  0  -0.090575  0  3.97009  0  0  -0.0916  0  3.990882  0  0  -0.079786  -0.09004  0  3.956329  0
C  C51  1  0.94592606  0.06237904  0.34038262  1  0  -0.066744  0  3.723586  0  0  -0.089928  0  3.971445  0  0  -0.090972  0  3.992257  0  0  -0.079631  -0.088974  0  3.957322  0
C  C52  1  0.72029013  0.49726613  0.76189984  1  0  -0.08938  0  3.72817  0  0  -0.074743  0  3.965144  0  0  -0.081467  0  3.986356  0  0  -0.013816  -0.070357  0  3.950802  0
C  C53  1  0.97946754  0.00235713  0.73832508  1  0  -0.086671  0  3.72765  0  0  -0.071921  0  3.965063  0  0  -0.07866  0  3.98626  0  0  -0.012784  -0.067688  0  3.950789  0
C  C54  1  0.27970762  0.50273153  0.23809809  1  0  -0.089322  0  3.728228  0  0  -0.074766  0  3.965284  0  0  -0.081492  0  3.986499  0  0  -0.013838  -0.070382  0  3.95094  0
C  C55  1  0.02053655  0.99764165  0.26167593  1  0  -0.086486  0  3.727549  0  0  -0.071872  0  3.965068  0  0  -0.07861  0  3.986264  0  0  -0.012718  -0.06764  0  3.950796  0
C  C56  1  0.94244361  0.43745657  0.73544673  1  0  0.673259  0  3.85384  0  0  0.619234  0  4.143062  0  0  0.654289  0  4.134434  0  0  0.219404  0.595538  0  4.148126  0
C  C57  1  0.11501057  0.06251204  0.76474299  1  0  0.671238  0  3.853808  0  0  0.616244  0  4.144451  0  0  0.651309  0  4.135847  0  0  0.218138  0.592433  0  4.149435  0
C  C58  1  0.05755710  0.56254002  0.26455174  1  0  0.673199  0  3.853966  0  0  0.619223  0  4.143142  0  0  0.654278  0  4.134518  0  0  0.219406  0.595527  0  4.148205  0
C  C59  1  0.88499341  0.93748676  0.23525956  1  0  0.671055  0  3.853861  0  0  0.616143  0  4.144439  0  0  0.651212  0  4.135837  0  0  0.218146  0.592337  0  4.149414  0
N  N60  1  0.75967040  0.41416625  0.55300772  1  0  -0.332242  0  3.16001  0  0  -0.268452  0  3.452647  0  0  -0.286662  0  3.465752  0  0  -0.227179  -0.256166  0  3.443696  0
N  N61  1  0.72686390  0.08565193  0.94693985  1  0  -0.334479  0  3.161494  0  0  -0.269952  0  3.453613  0  0  -0.288173  0  3.466707  0  0  -0.227288  -0.25773  0  3.444646  0
N  N62  1  0.24032717  0.58583466  0.44699136  1  0  -0.332318  0  3.159985  0  0  -0.268538  0  3.452616  0  0  -0.286747  0  3.465718  0  0  -0.2272  -0.256257  0  3.44367  0
N  N63  1  0.27313849  0.91434792  0.05306080  1  0  -0.334461  0  3.161492  0  0  -0.269966  0  3.453594  0  0  -0.288186  0  3.466688  0  0  -0.227286  -0.257749  0  3.444633  0
N  N64  1  0.72337394  0.33520353  0.50432515  1  0  -0.032079  0  2.945418  0  0  -0.024363  0  3.232211  0  0  -0.023146  0  3.244576  0  0  -0.070759  -0.024839  0  3.223679  0
N  N65  1  0.56313155  0.16482729  0.99556925  1  0  -0.032091  0  2.945337  0  0  -0.024753  0  3.232218  0  0  -0.023555  0  3.244631  0  0  -0.071023  -0.025208  0  3.223846  0
N  N66  1  0.27662396  0.66479633  0.49567566  1  0  -0.032023  0  2.945378  0  0  -0.024309  0  3.232181  0  0  -0.023094  0  3.244544  0  0  -0.070719  -0.024793  0  3.22366  0
N  N67  1  0.43686957  0.83517256  0.00443123  1  0  -0.03205  0  2.945241  0  0  -0.024701  0  3.232114  0  0  -0.023504  0  3.244527  0  0  -0.070998  -0.025156  0  3.223741  0
N  N68  1  0.57452079  0.28520085  0.55540324  1  0  -0.087979  0  3.01194  0  0  -0.067527  0  3.294468  0  0  -0.068203  0  3.306231  0  0  -0.083419  -0.066839  0  3.286575  0
N  N69  1  0.41529824  0.21474857  0.94457425  1  0  -0.08639  0  3.01023  0  0  -0.065822  0  3.292464  0  0  -0.066487  0  3.304232  0  0  -0.08246  -0.065245  0  3.284626  0
N  N70  1  0.42547824  0.71479792  0.44459708  1  0  -0.088005  0  3.011978  0  0  -0.067543  0  3.294508  0  0  -0.06822  0  3.306273  0  0  -0.083452  -0.066863  0  3.286625  0
N  N71  1  0.58470553  0.78525126  0.05542503  1  0  -0.086428  0  3.010216  0  0  -0.065858  0  3.292457  0  0  -0.066524  0  3.304225  0  0  -0.08249  -0.06528  0  3.284611  0
N  N72  1  0.51024235  0.33112485  0.63841767  1  0  -0.350476  0  3.240361  0  0  -0.283343  0  3.548581  0  0  -0.302736  0  3.560837  0  0  -0.239615  -0.270261  0  3.540446  0
N  N73  1  0.47971654  0.16855015  0.86166355  1  0  -0.353223  0  3.243675  0  0  -0.285796  0  3.55207  0  0  -0.305197  0  3.564295  0  0  -0.241376  -0.272718  0  3.543875  0
N  N74  1  0.48975580  0.66887606  0.36158227  1  0  -0.350474  0  3.240262  0  0  -0.283379  0  3.548527  0  0  -0.302773  0  3.560786  0  0  -0.239639  -0.270296  0  3.540378  0
N  N75  1  0.52028723  0.83144968  0.13833573  1  0  -0.353161  0  3.243594  0  0  -0.285779  0  3.552001  0  0  -0.305173  0  3.564207  0  0  -0.241358  -0.272696  0  3.543797  0
O  O76  1  0.04432507  0.36382172  0.80679827  1  0  -0.646639  0  2.082877  0  0  -0.563088  0  2.336188  0  0  -0.592873  0  2.322642  0  0  -0.310525  -0.542413  0  2.34503  0
O  O77  1  0.21413020  0.13645448  0.69333618  1  0  -0.644814  0  2.08441  0  0  -0.56044  0  2.337909  0  0  -0.590087  0  2.32414  0  0  -0.308973  -0.53971  0  2.346774  0
O  O78  1  0.95567314  0.63617597  0.19320207  1  0  -0.646617  0  2.082942  0  0  -0.563055  0  2.336219  0  0  -0.592828  0  2.322647  0  0  -0.310506  -0.542383  0  2.345048  0
O  O79  1  0.78587409  0.86354216  0.30666589  1  0  -0.644753  0  2.084408  0  0  -0.560436  0  2.337939  0  0  -0.590099  0  2.324179  0  0  -0.308999  -0.53971  0  2.346798  0
O  O80  1  0.03044215  0.45936392  0.64827281  1  0  -0.627074  0  2.113783  0  0  -0.566216  0  2.38953  0  0  -0.592274  0  2.375708  0  0  -0.301687  -0.548108  0  2.398579  0
O  O81  1  0.13797675  0.04061613  0.85185939  1  0  -0.627372  0  2.115431  0  0  -0.566157  0  2.391723  0  0  -0.592243  0  2.377877  0  0  -0.302186  -0.547881  0  2.400718  0
O  O82  1  0.96955979  0.54062946  0.35172777  1  0  -0.627097  0  2.113739  0  0  -0.566257  0  2.389483  0  0  -0.592315  0  2.375655  0  0  -0.301703  -0.548151  0  2.398533  0
O  O83  1  0.86202211  0.95938589  0.14814208  1  0  -0.627323  0  2.115444  0  0  -0.566129  0  2.391708  0  0  -0.592216  0  2.377862  0  0  -0.302215  -0.547857  0  2.4007  0
O  O84  1  0.78534610  0.71644623  0.49789642  1  0  -0.79927  0  1.897178  0  0  -0.745655  0  2.107592  0  0  -0.765555  0  2.075393  0  0  -0.572044  -0.731422  0  2.130053  0
O  O85  1  0.99952064  0.78351296  0.00193279  1  0  -0.800376  0  1.898007  0  0  -0.747515  0  2.10766  0  0  -0.767344  0  2.075443  0  0  -0.572972  -0.733354  0  2.129959  0
O  O86  1  0.21465477  0.28355256  0.50210493  1  0  -0.799254  0  1.897198  0  0  -0.745657  0  2.107644  0  0  -0.765557  0  2.075448  0  0  -0.57204  -0.731419  0  2.130107  0
O  O87  1  0.00048017  0.21648905  0.99806817  1  0  -0.800367  0  1.898019  0  0  -0.747502  0  2.107651  0  0  -0.767332  0  2.075434  0  0  -0.572976  -0.73334  0  2.129952  0
