# generated using pymatgen
data_HoH8(C3O5)2
_symmetry_space_group_name_H-M   'P 1'
_cell_length_a   5.98664022
_cell_length_b   7.35283190
_cell_length_c   13.09054812
_cell_angle_alpha   105.17312857
_cell_angle_beta   102.11470593
_cell_angle_gamma   90.03469624
_symmetry_Int_Tables_number   1
_chemical_formula_structural   HoH8(C3O5)2
_chemical_formula_sum   'Ho2 H16 C12 O20'
_cell_volume   542.81382656
_cell_formula_units_Z   2
loop_
 _symmetry_equiv_pos_site_id
 _symmetry_equiv_pos_as_xyz
  1  'x, y, z'
loop_
 _atom_site_type_symbol
 _atom_site_label
 _atom_site_symmetry_multiplicity
 _atom_site_fract_x
 _atom_site_fract_y
 _atom_site_fract_z
 _atom_site_occupancy
 _atom_site_pbe_bader_charge
 _atom_site_pbe_bader_spin_density
 _atom_site_pbe_cm5_charge
 _atom_site_pbe_ddec_charge
 _atom_site_pbe_ddec_spin_density
 _atom_site_pbe_ddec_sum_bond_order
 _atom_site_pbe_magmom
Ho  Ho0  1  0.01473138  0.82457943  0.68046297  1  2.166963  0  1.506112  2.005067  0  2.144804  0
Ho  Ho1  1  0.98698593  0.15666268  0.31390048  1  2.167327  0  1.50476  2.005061  0  2.150415  0
H  H2  1  0.37252037  0.96108437  0.05978391  1  0.047024  0  0.108399  0.054839  0  0.99873  0
H  H3  1  0.62746956  0.90004828  0.93827181  1  0.031342  0  0.109374  0.059118  0  0.990051  0
H  H4  1  0.50154619  0.32162717  0.56546229  1  0.1368  0  0.131372  0.113569  0  0.938512  0
H  H5  1  0.47182997  0.30457704  0.73774889  1  0.135389  0  0.132707  0.107964  0  0.944224  0
H  H6  1  0.50301532  0.76003683  0.43072877  1  0.123748  0  0.132003  0.11436  0  0.939343  0
H  H7  1  0.53015027  0.58965828  0.25744983  1  0.098932  0  0.132891  0.108129  0  0.938796  0
H  H8  1  0.18575691  0.24518997  0.07914041  1  0.636715  0  0.296545  0.350254  0  0.976446  0
H  H9  1  0.79891808  0.15609626  0.90531798  1  0.631596  0  0.29771  0.351045  0  0.973287  0
H  H10  1  0.19470457  0.99390507  0.48531619  1  0.64875  0  0.304919  0.344087  0  1.00437  0
H  H11  1  0.15508714  0.20980427  0.77078336  1  0.659702  0  0.335205  0.388659  0  0.88053  0
H  H12  1  0.81113990  0.50410765  0.50764887  1  0.654383  0  0.304717  0.344531  0  1.007812  0
H  H13  1  0.84051879  0.45280957  0.22041722  1  0.621897  0  0.333444  0.3852  0  0.884936  0
H  H14  1  0.77548213  0.65709957  0.81666849  1  0.636567  0  0.338641  0.427268  0  0.85263  0
H  H15  1  0.59540116  0.71719695  0.72313677  1  0.651424  0  0.307649  0.410079  0  0.92231  0
H  H16  1  0.22732254  0.86413316  0.17903403  1  0.61091  0  0.335163  0.422588  0  0.861768  0
H  H17  1  0.40778141  0.01264510  0.27196119  1  0.654404  0  0.307281  0.40927  0  0.924091  0
C  C18  1  0.20320543  0.96742194  0.90175069  1  1.551818  0  0.187762  0.54327  0  4.203131  0
C  C19  1  0.37476533  0.05772347  0.00780086  1  0.519248  0  -0.000753  0.064564  0  3.906656  0
C  C20  1  0.61766032  0.04811379  0.98438252  1  0.549207  0  -0.000248  0.064988  0  3.900139  0
C  C21  1  0.79018473  0.07435350  0.09214703  1  1.539083  0  0.187941  0.545371  0  4.19867  0
C  C22  1  0.15186188  0.38704295  0.56652130  1  1.60472  0  0.242355  0.636007  0  4.097566  0
C  C23  1  0.34200976  0.24801092  0.56608598  1  0.447399  0  0.007461  0.04689  0  3.842001  0
C  C24  1  0.37418998  0.18850576  0.67257400  1  0.417284  0  0.008418  0.03713  0  3.842842  0
C  C25  1  0.50899446  0.01102097  0.67103490  1  1.606685  0  0.232052  0.618142  0  4.141171  0
C  C26  1  0.85253761  0.82498846  0.42962030  1  1.609219  0  0.241652  0.639179  0  4.1006  0
C  C27  1  0.66201547  0.68558674  0.42891018  1  0.462136  0  0.006639  0.045206  0  3.842248  0
C  C28  1  0.62765900  0.53012437  0.32083295  1  0.452632  0  0.009409  0.038413  0  3.837364  0
C  C29  1  0.49166522  0.35358828  0.32106657  1  1.612706  0  0.234345  0.623129  0  4.133852  0
O  O30  1  0.22120895  0.79543403  0.85505301  1  -1.179246  0  -0.380573  -0.609918  0  2.190905  0
O  O31  1  0.04950017  0.06415532  0.85921148  1  -1.207526  0  -0.363709  -0.645471  0  2.291577  0
O  O32  1  0.33673070  0.24467869  0.05979869  1  -1.148877  0  -0.407523  -0.481323  0  2.234504  0
O  O33  1  0.64830378  0.17673015  0.92472767  1  -1.148772  0  -0.407226  -0.482791  0  2.236975  0
O  O34  1  0.78229093  0.95115511  0.14359177  1  -1.180676  0  -0.381702  -0.610072  0  2.198135  0
O  O35  1  0.93468847  0.21803839  0.13115331  1  -1.205096  0  -0.364078  -0.64683  0  2.276467  0
O  O36  1  0.97743692  0.34174064  0.48690101  1  -1.17345  0  -0.379927  -0.630111  0  2.36367  0
O  O37  1  0.17388097  0.53460338  0.64295186  1  -1.200938  0  -0.380606  -0.607464  0  2.308325  0
O  O38  1  0.28702716  0.09578012  0.46998035  1  -1.172092  0  -0.422668  -0.547304  0  2.377389  0
O  O39  1  0.15384069  0.15693244  0.69357104  1  -1.156715  0  -0.417394  -0.539103  0  2.406601  0
O  O40  1  0.40809818  0.87096447  0.68662763  1  -1.176657  0  -0.370126  -0.633017  0  2.37934  0
O  O41  1  0.71008322  0.01503242  0.65650930  1  -1.189113  0  -0.387489  -0.618749  0  2.30511  0
O  O42  1  0.02992377  0.84841223  0.50739687  1  -1.200674  0  -0.377817  -0.629116  0  2.351239  0
O  O43  1  0.82744161  0.90689131  0.35554114  1  -1.18096  0  -0.382175  -0.610987  0  2.323416  0
O  O44  1  0.71709049  0.61917352  0.52371592  1  -1.176441  0  -0.423723  -0.551055  0  2.3776  0
O  O45  1  0.84716401  0.47913146  0.29855403  1  -1.114382  0  -0.412143  -0.533208  0  2.393395  0
O  O46  1  0.59390375  0.19965238  0.30658435  1  -1.187254  0  -0.369335  -0.633771  0  2.378351  0
O  O47  1  0.28940241  0.36983264  0.33399501  1  -1.192109  0  -0.388724  -0.622326  0  2.297533  0
O  O48  1  0.74790055  0.66241213  0.74175340  1  -1.258234  0  -0.628835  -0.835973  0  2.052979  0
O  O49  1  0.25561472  0.93976926  0.25383582  1  -1.236801  0  -0.630157  -0.834788  0  2.066486  0
