# generated using pymatgen
data_CdH14C20(NO)4
_symmetry_space_group_name_H-M   'P 1'
_cell_length_a   10.19655945
_cell_length_b   10.19663280
_cell_length_c   23.80017215
_cell_angle_alpha   89.99990958
_cell_angle_beta   89.99990797
_cell_angle_gamma   90.00011697
_symmetry_Int_Tables_number   1
_chemical_formula_structural   CdH14C20(NO)4
_chemical_formula_sum   'Cd4 H56 C80 N16 O16'
_cell_volume   2474.51752528
_cell_formula_units_Z   4
loop_
 _symmetry_equiv_pos_site_id
 _symmetry_equiv_pos_as_xyz
  1  'x, y, z'
loop_
 _atom_site_type_symbol
 _atom_site_label
 _atom_site_symmetry_multiplicity
 _atom_site_fract_x
 _atom_site_fract_y
 _atom_site_fract_z
 _atom_site_occupancy
 _atom_site_pbe_bader_charge
 _atom_site_pbe_bader_spin_density
 _atom_site_pbe_cm5_charge
 _atom_site_pbe_ddec_charge
 _atom_site_pbe_ddec_spin_density
 _atom_site_pbe_ddec_sum_bond_order
 _atom_site_pbe_magmom
Cd  Cd0  1  0.49999960  0.49999994  0.50000066  1  1.304857  0  0.752008  0.988558  0  2.017037  0
Cd  Cd1  1  0.49999960  0.99999977  0.25000020  1  1.1762  0  0.848532  0.81601  0  2.053401  0
Cd  Cd2  1  0.99999916  0.49999999  0.75000037  1  1.176198  0  0.848573  0.816053  0  2.053399  0
Cd  Cd3  1  0.99999907  0.00000004  0.00000092  1  1.304843  0  0.752002  0.988546  0  2.017053  0
H  H4  1  0.66734113  0.19288512  0.96800321  1  0.096976  0  0.103273  0.106812  0  1.031554  0
H  H5  1  0.35350963  0.52158398  0.17933328  1  0.047232  0  0.098407  0.094559  0  1.011837  0
H  H6  1  0.38235652  0.04748770  0.49724331  1  0.092005  0  0.100429  0.095351  0  1.02277  0
H  H7  1  0.31380400  0.59050361  0.78454654  1  0.089178  0  0.11876  0.116228  0  1.001557  0
H  H8  1  0.18619570  0.09050503  0.28454659  1  0.089185  0  0.118763  0.116238  0  1.001561  0
H  H9  1  0.23793084  0.65063850  0.56214395  1  0.578141  0  0.308543  0.294627  0  1.00797  0
H  H10  1  0.52158780  0.64648989  0.82066636  1  0.047367  0  0.098411  0.094539  0  1.01181  0
H  H11  1  0.16734215  0.30711442  0.46800234  1  0.096945  0  0.103303  0.10687  0  1.031513  0
H  H12  1  0.23092594  0.23523062  0.64492627  1  0.101437  0  0.097154  0.094306  0  1.019958  0
H  H13  1  0.97841291  0.14649092  0.32066704  1  0.047396  0  0.098413  0.094553  0  1.011841  0
H  H14  1  0.02158794  0.85351158  0.32066629  1  0.047214  0  0.098413  0.094547  0  1.011779  0
H  H15  1  0.64649077  0.47841709  0.17933319  1  0.047385  0  0.098435  0.09458  0  1.011854  0
H  H16  1  0.15064000  0.73793026  0.93785594  1  0.578174  0  0.308564  0.294626  0  1.007961  0
H  H17  1  0.09050256  0.81380468  0.71545250  1  0.089187  0  0.118775  0.116237  0  1.001535  0
H  H18  1  0.81380431  0.90949564  0.28454651  1  0.089173  0  0.118759  0.116211  0  1.001571  0
H  H19  1  0.14648835  0.02158151  0.67933284  1  0.047226  0  0.09843  0.09455  0  1.011861  0
H  H20  1  0.76907271  0.76476775  0.64492633  1  0.101416  0  0.097175  0.094322  0  1.020018  0
H  H21  1  0.83265716  0.69288460  0.46800198  1  0.096943  0  0.103277  0.106823  0  1.031552  0
H  H22  1  0.34936040  0.23793104  0.43785588  1  0.578174  0  0.308549  0.294598  0  1.007986  0
H  H23  1  0.11764425  0.54748588  0.99724340  1  0.092007  0  0.100452  0.095392  0  1.022763  0
H  H24  1  0.59050536  0.68619732  0.21545305  1  0.089107  0  0.118752  0.116223  0  1.001525  0
H  H25  1  0.23523437  0.76907210  0.35507524  1  0.10164  0  0.097174  0.094333  0  1.020051  0
H  H26  1  0.15837724  0.46693845  0.62292427  1  0.186775  0  0.136705  0.102362  0  1.003404  0
H  H27  1  0.26206883  0.15063910  0.06214395  1  0.578165  0  0.308543  0.294621  0  1.007958  0
H  H28  1  0.34162285  0.96693795  0.12292388  1  0.18676  0  0.136696  0.102341  0  1.003428  0
H  H29  1  0.04748629  0.61764223  0.50275580  1  0.09204  0  0.10041  0.095288  0  1.022778  0
H  H30  1  0.90949582  0.18619637  0.71545369  1  0.089176  0  0.118761  0.116225  0  1.001527  0
H  H31  1  0.19288593  0.33265603  0.03199665  1  0.096951  0  0.103278  0.106825  0  1.031504  0
H  H32  1  0.03306279  0.34162296  0.87707630  1  0.186742  0  0.136701  0.102386  0  1.003412  0
H  H33  1  0.76476537  0.23092930  0.35507440  1  0.101634  0  0.097184  0.094332  0  1.020017  0
H  H34  1  0.33265729  0.80711402  0.96800186  1  0.096952  0  0.103287  0.106859  0  1.031512  0
H  H35  1  0.47841509  0.35351077  0.82066689  1  0.047229  0  0.098394  0.094558  0  1.011806  0
H  H36  1  0.73092596  0.26476926  0.14492550  1  0.101453  0  0.097171  0.094337  0  1.019918  0
H  H37  1  0.65064001  0.76206810  0.43785644  1  0.578172  0  0.308549  0.294595  0  1.00798  0
H  H38  1  0.96693793  0.65837652  0.87707629  1  0.186745  0  0.136686  0.102324  0  1.003436  0
H  H39  1  0.30711423  0.83265656  0.53199661  1  0.096959  0  0.103277  0.106828  0  1.03152  0
H  H40  1  0.80711601  0.66734558  0.03199717  1  0.096904  0  0.103298  0.106832  0  1.031491  0
H  H41  1  0.84162248  0.53306196  0.62292402  1  0.186768  0  0.136711  0.102402  0  1.003408  0
H  H42  1  0.95251289  0.38235764  0.50275557  1  0.092324  0  0.100419  0.095304  0  1.02271  0
H  H43  1  0.46693706  0.84162369  0.37707708  1  0.1867  0  0.13671  0.102369  0  1.003411  0
H  H44  1  0.73793103  0.84936240  0.06214397  1  0.578156  0  0.308544  0.294612  0  1.007959  0
H  H45  1  0.26907359  0.73523096  0.14492550  1  0.101449  0  0.097167  0.094328  0  1.019926  0
H  H46  1  0.45251059  0.11764321  0.00275609  1  0.092303  0  0.100422  0.095349  0  1.022797  0
H  H47  1  0.76206812  0.34936115  0.56214429  1  0.578171  0  0.308547  0.294632  0  1.007945  0
H  H48  1  0.73523440  0.73092870  0.85507483  1  0.101638  0  0.097163  0.094306  0  1.020062  0
H  H49  1  0.54748655  0.88235752  0.00275580  1  0.09204  0  0.100418  0.095289  0  1.022751  0
H  H50  1  0.53306259  0.15837566  0.37707645  1  0.186767  0  0.136709  0.102371  0  1.00343  0
H  H51  1  0.26476445  0.26907183  0.85507431  1  0.101651  0  0.097162  0.094288  0  1.020044  0
H  H52  1  0.88235504  0.45251511  0.99724317  1  0.092288  0  0.10038  0.095257  0  1.022782  0
H  H53  1  0.65837580  0.03306234  0.12292366  1  0.186739  0  0.136694  0.102326  0  1.003434  0
H  H54  1  0.68619413  0.40949522  0.78454773  1  0.089102  0  0.118749  0.116194  0  1.001526  0
H  H55  1  0.40949589  0.31380361  0.21545324  1  0.089189  0  0.118768  0.116222  0  1.001551  0
H  H56  1  0.85350821  0.97841673  0.67933396  1  0.047356  0  0.098418  0.09453  0  1.011895  0
H  H57  1  0.84936049  0.26206800  0.93785628  1  0.578163  0  0.308543  0.294601  0  1.007986  0
H  H58  1  0.69288681  0.16734222  0.53199670  1  0.096976  0  0.103259  0.106841  0  1.031524  0
H  H59  1  0.61764563  0.95251317  0.49724377  1  0.09231  0  0.100398  0.095283  0  1.022813  0
C  C60  1  0.77909017  0.08905260  0.60832555  1  0.048118  0  -0.004056  0.056095  0  4.045976  0
C  C61  1  0.31097752  0.15555748  0.56869657  1  -0.00617  0  -0.021391  -0.036916  0  3.986458  0
C  C62  1  0.34444208  0.18902084  0.93130401  1  -0.006143  0  -0.021382  -0.036956  0  3.986439  0
C  C63  1  0.78392137  0.86655570  0.95014046  1  1.539544  0  0.192302  0.556904  0  4.235451  0
C  C64  1  0.19838241  0.02649404  0.63932807  1  -0.097826  0  -0.091408  -0.129448  0  3.994283  0
C  C65  1  0.88022529  0.24865330  0.68077704  1  0.407752  0  -0.007499  -0.097237  0  3.983245  0
C  C66  1  0.04141476  0.67010275  0.46299767  1  -0.01025  0  -0.08461  -0.083307  0  3.989145  0
C  C67  1  0.93058615  0.34864778  0.86534246  1  0.962673  0  0.144295  0.158534  0  3.952068  0
C  C68  1  0.80161626  0.97350434  0.63932923  1  -0.097824  0  -0.091375  -0.129377  0  3.994233  0
C  C69  1  0.24429609  0.14642980  0.62008446  1  -0.048825  0  -0.087229  -0.091324  0  4.009323  0
C  C70  1  0.28462252  0.67956224  0.86957406  1  0.359519  0  0.090454  0.120189  0  4.003657  0
C  C71  1  0.91094949  0.77908779  0.39167390  1  0.048128  0  -0.004072  0.05618  0  4.045908  0
C  C72  1  0.85356686  0.24429650  0.37991536  1  -0.049112  0  -0.087225  -0.0913  0  4.009315  0
C  C73  1  0.25134662  0.61977393  0.81922277  1  0.407769  0  -0.007518  -0.097225  0  3.983343  0
C  C74  1  0.69838383  0.47350481  0.13932800  1  -0.097815  0  -0.091399  -0.129492  0  3.994231  0
C  C75  1  0.24865300  0.11977548  0.31922320  1  0.407774  0  -0.007527  -0.097241  0  3.983393  0
C  C76  1  0.84444219  0.31098116  0.43130279  1  -0.00666  0  -0.021417  -0.037019  0  3.986475  0
C  C77  1  0.13344866  0.78391569  0.04985815  1  1.539363  0  0.192264  0.556809  0  4.235626  0
C  C78  1  0.67956304  0.71537975  0.13042631  1  0.359506  0  0.090525  0.120289  0  4.003812  0
C  C79  1  0.35356689  0.25570276  0.87991486  1  -0.049105  0  -0.087214  -0.091267  0  4.009211  0
C  C80  1  0.34864879  0.06941224  0.13465729  1  0.962596  0  0.144252  0.158658  0  3.951979  0
C  C81  1  0.67010836  0.95858673  0.53700102  1  -0.010717  0  -0.084586  -0.083239  0  3.9891  0
C  C82  1  0.25570335  0.64643010  0.12008370  1  -0.048829  0  -0.08723  -0.09132  0  4.009279  0
C  C83  1  0.17010688  0.54141217  0.03700033  1  -0.010741  0  -0.084617  -0.08345  0  3.989155  0
C  C84  1  0.56941382  0.84864869  0.36534309  1  0.962668  0  0.14422  0.158537  0  3.952084  0
C  C85  1  0.02649731  0.80161399  0.36067106  1  -0.097824  0  -0.091379  -0.129411  0  3.994139  0
C  C86  1  0.43058687  0.15135169  0.36534296  1  0.962655  0  0.144207  0.158536  0  3.952129  0
C  C87  1  0.22090862  0.91094688  0.60832463  1  0.048073  0  -0.004103  0.05613  0  4.045976  0
C  C88  1  0.61977615  0.74865431  0.18077722  1  0.407835  0  -0.007558  -0.097294  0  3.98346  0
C  C89  1  0.81097671  0.34444382  0.06869575  1  -0.006186  0  -0.021426  -0.037017  0  3.986528  0
C  C90  1  0.64643284  0.74429670  0.87991501  1  -0.049101  0  -0.087224  -0.091272  0  4.009318  0
C  C91  1  0.15135338  0.56941343  0.63465777  1  0.962552  0  0.14428  0.158689  0  3.952005  0
C  C92  1  0.57954785  0.21301133  0.94336097  1  -0.075081  0  -0.088676  -0.118409  0  3.944756  0
C  C93  1  0.52649728  0.69838538  0.86067067  1  -0.09784  0  -0.091387  -0.129416  0  3.994155  0
C  C94  1  0.08905012  0.22091249  0.39167353  1  0.048127  0  -0.004058  0.056195  0  4.045869  0
C  C95  1  0.54141500  0.82989627  0.96299803  1  -0.010236  0  -0.084636  -0.083315  0  3.98916  0
C  C96  1  0.21608104  0.13344546  0.95014049  1  1.539821  0  0.192261  0.556858  0  4.235706  0
C  C97  1  0.42045164  0.78698986  0.94335957  1  -0.075011  0  -0.088722  -0.118551  0  3.944815  0
C  C98  1  0.65135080  0.93058801  0.13465731  1  0.96278  0  0.144263  0.158708  0  3.951952  0
C  C99  1  0.32043754  0.28462052  0.13042616  1  0.359517  0  0.090459  0.120173  0  4.003747  0
C  C100  1  0.71301209  0.07954949  0.55663982  1  -0.075088  0  -0.088765  -0.118656  0  3.944903  0
C  C101  1  0.75134785  0.88022507  0.31922277  1  0.40776  0  -0.007518  -0.097207  0  3.983303  0
C  C102  1  0.47350253  0.30161415  0.86067124  1  -0.097828  0  -0.091367  -0.129432  0  3.994188  0
C  C103  1  0.17956018  0.78462176  0.63042579  1  0.359492  0  0.090426  0.120188  0  4.003759  0
C  C104  1  0.28391714  0.63344485  0.45014055  1  1.539776  0  0.192253  0.55681  0  4.23576  0
C  C105  1  0.82043656  0.21537764  0.63042660  1  0.35947  0  0.090465  0.120295  0  4.003717  0
C  C106  1  0.75570363  0.85356964  0.62008488  1  -0.048839  0  -0.08725  -0.091311  0  4.009308  0
C  C107  1  0.14643278  0.75570382  0.37991501  1  -0.049104  0  -0.087235  -0.091327  0  4.009296  0
C  C108  1  0.21301139  0.42044871  0.05663971  1  -0.075058  0  -0.088712  -0.118483  0  3.944817  0
C  C109  1  0.63344964  0.71608308  0.54985859  1  1.539349  0  0.192283  0.556768  0  4.235534  0
C  C110  1  0.41094944  0.72091127  0.89167384  1  0.04813  0  -0.004071  0.056164  0  4.045931  0
C  C111  1  0.74865236  0.38022477  0.81922352  1  0.407858  0  -0.007548  -0.097228  0  3.983355  0
C  C112  1  0.58904926  0.27908913  0.89167477  1  0.048151  0  -0.004096  0.056132  0  4.045976  0
C  C113  1  0.82989307  0.45858746  0.03700055  1  -0.01074  0  -0.084544  -0.083194  0  3.989019  0
C  C114  1  0.28698787  0.92045018  0.55663926  1  -0.075042  0  -0.088695  -0.118452  0  3.944756  0
C  C115  1  0.30161672  0.52649543  0.13932812  1  -0.097813  0  -0.091368  -0.129448  0  3.994204  0
C  C116  1  0.78462265  0.82043665  0.36957409  1  0.359535  0  0.090474  0.120166  0  4.003627  0
C  C117  1  0.11977322  0.75134690  0.68077671  1  0.407737  0  -0.007483  -0.09718  0  3.983241  0
C  C118  1  0.06941265  0.65135075  0.86534308  1  0.962713  0  0.144253  0.158674  0  3.95199  0
C  C119  1  0.45858442  0.17010485  0.96299912  1  -0.010747  0  -0.084662  -0.083492  0  3.989154  0
C  C120  1  0.21537704  0.17956274  0.36957408  1  0.359519  0  0.090456  0.12014  0  4.003678  0
C  C121  1  0.95858653  0.32989628  0.46299747  1  -0.010233  0  -0.084606  -0.083318  0  3.989084  0
C  C122  1  0.71608225  0.36655522  0.45014049  1  1.539813  0  0.192232  0.556756  0  4.235787  0
C  C123  1  0.27909043  0.41094653  0.10832503  1  0.048087  0  -0.004106  0.056158  0  4.045968  0
C  C124  1  0.92045155  0.71300903  0.44335968  1  -0.075018  0  -0.088722  -0.118541  0  3.944803  0
C  C125  1  0.71537725  0.32043628  0.86957445  1  0.359481  0  0.090498  0.120166  0  4.003842  0
C  C126  1  0.15555825  0.68901898  0.43130290  1  -0.00666  0  -0.021402  -0.037009  0  3.986583  0
C  C127  1  0.68902338  0.84444215  0.56869663  1  -0.006161  0  -0.021397  -0.037004  0  3.986468  0
C  C128  1  0.97350142  0.19838445  0.36067178  1  -0.097848  0  -0.091399  -0.129429  0  3.994281  0
C  C129  1  0.32989364  0.04141400  0.53700061  1  -0.010739  0  -0.084626  -0.083466  0  3.989104  0
C  C130  1  0.65555942  0.81098040  0.93130285  1  -0.006762  0  -0.021389  -0.037067  0  3.986536  0
C  C131  1  0.72091121  0.58905382  0.10832566  1  0.048111  0  -0.004076  0.056218  0  4.045952  0
C  C132  1  0.38022523  0.25134675  0.18077705  1  0.40774  0  -0.007497  -0.097173  0  3.983292  0
C  C133  1  0.74429727  0.35357020  0.12008363  1  -0.048831  0  -0.087224  -0.091317  0  4.009282  0
C  C134  1  0.07954982  0.28699008  0.44335969  1  -0.075042  0  -0.08875  -0.118588  0  3.944842  0
C  C135  1  0.84864825  0.43058694  0.63465758  1  0.962564  0  0.144279  0.158527  0  3.952076  0
C  C136  1  0.78699045  0.57955182  0.05663988  1  -0.07503  0  -0.088767  -0.118641  0  3.944793  0
C  C137  1  0.18902214  0.65555667  0.06869586  1  -0.006171  0  -0.021421  -0.036995  0  3.986515  0
C  C138  1  0.36655035  0.28391662  0.54985883  1  1.539332  0  0.192325  0.556855  0  4.235507  0
C  C139  1  0.86655125  0.21608487  0.04985809  1  1.539372  0  0.192235  0.556716  0  4.235612  0
N  N140  1  0.60229980  0.88264852  0.18268641  1  -1.248505  0  -0.377982  -0.331448  0  3.604382  0
N  N141  1  0.30187631  0.16696602  0.10252473  1  -1.302715  0  -0.360632  -0.225642  0  3.60289  0
N  N142  1  0.11735043  0.60230038  0.81731359  1  -1.24856  0  -0.378005  -0.331488  0  3.604388  0
N  N143  1  0.88264856  0.39769931  0.81731340  1  -1.248496  0  -0.37801  -0.331337  0  3.604265  0
N  N144  1  0.10229954  0.61735166  0.68268599  1  -1.248484  0  -0.377998  -0.331469  0  3.604425  0
N  N145  1  0.39769961  0.11735155  0.18268632  1  -1.248489  0  -0.378003  -0.331471  0  3.604372  0
N  N146  1  0.80187557  0.33303318  0.60252509  1  -1.302642  0  -0.360665  -0.22568  0  3.602928  0
N  N147  1  0.61735071  0.89769933  0.31731400  1  -1.248472  0  -0.37799  -0.331394  0  3.604312  0
N  N148  1  0.83303353  0.30187532  0.89747505  1  -1.302735  0  -0.360665  -0.225627  0  3.602997  0
N  N149  1  0.89769995  0.38264853  0.68268664  1  -1.248503  0  -0.378004  -0.331353  0  3.604282  0
N  N150  1  0.38265015  0.10230122  0.31731393  1  -1.248549  0  -0.377964  -0.331398  0  3.60439  0
N  N151  1  0.69812340  0.83303533  0.10252479  1  -1.302879  0  -0.360633  -0.225663  0  3.602876  0
N  N152  1  0.66696622  0.80187545  0.39747520  1  -1.302725  0  -0.360616  -0.22556  0  3.602927  0
N  N153  1  0.16696613  0.69812408  0.89747473  1  -1.302807  0  -0.360631  -0.225643  0  3.602909  0
N  N154  1  0.19812324  0.66696731  0.60252476  1  -1.302651  0  -0.360662  -0.225725  0  3.602966  0
N  N155  1  0.33303336  0.19812383  0.39747509  1  -1.302787  0  -0.360618  -0.225554  0  3.602954  0
O  O156  1  0.11773457  0.87571552  0.08436880  1  -1.157523  0  -0.330386  -0.545575  0  2.107691  0
O  O157  1  0.09973062  0.79419868  0.99736685  1  -1.182189  0  -0.336453  -0.587666  0  2.314193  0
O  O158  1  0.20580089  0.09972823  0.00263391  1  -1.182184  0  -0.336506  -0.587777  0  2.314092  0
O  O159  1  0.12428640  0.11773142  0.91563363  1  -1.158003  0  -0.330327  -0.545533  0  2.108041  0
O  O160  1  0.87571908  0.88226987  0.91563227  1  -1.157632  0  -0.330322  -0.545531  0  2.107769  0
O  O161  1  0.37571384  0.61773197  0.41563447  1  -1.157941  0  -0.330324  -0.545533  0  2.108032  0
O  O162  1  0.79419920  0.90027349  0.00263344  1  -1.182169  0  -0.336528  -0.587754  0  2.314096  0
O  O163  1  0.61773438  0.62428309  0.58436972  1  -1.157536  0  -0.330386  -0.545536  0  2.107637  0
O  O164  1  0.70580126  0.40027409  0.50263380  1  -1.182188  0  -0.336501  -0.587719  0  2.314045  0
O  O165  1  0.29419792  0.59972480  0.50263388  1  -1.18218  0  -0.336493  -0.587719  0  2.314081  0
O  O166  1  0.88226717  0.12428589  0.08436879  1  -1.157493  0  -0.330379  -0.545537  0  2.107707  0
O  O167  1  0.38226450  0.37571648  0.58437030  1  -1.157544  0  -0.330429  -0.545611  0  2.107656  0
O  O168  1  0.59973149  0.70580034  0.49736739  1  -1.182172  0  -0.336473  -0.587663  0  2.314135  0
O  O169  1  0.90026769  0.20580035  0.99736678  1  -1.182204  0  -0.336432  -0.587605  0  2.314147  0
O  O170  1  0.40026869  0.29420053  0.49736801  1  -1.182141  0  -0.336471  -0.587685  0  2.314171  0
O  O171  1  0.62428764  0.38226822  0.41563405  1  -1.157974  0  -0.330297  -0.545479  0  2.108098  0
