# generated using pymatgen
data_CdH6C12N2(ClO2)2
_symmetry_space_group_name_H-M   'P 1'
_cell_length_a   9.87829859
_cell_length_b   11.16355287
_cell_length_c   13.09718774
_cell_angle_alpha   107.89570389
_cell_angle_beta   90.00002601
_cell_angle_gamma   89.99998965
_symmetry_Int_Tables_number   1
_chemical_formula_structural   CdH6C12N2(ClO2)2
_chemical_formula_sum   'Cd4 H24 C48 N8 Cl8 O16'
_cell_volume   1374.43761225
_cell_formula_units_Z   4
loop_
 _symmetry_equiv_pos_site_id
 _symmetry_equiv_pos_as_xyz
  1  'x, y, z'
loop_
 _atom_site_type_symbol
 _atom_site_label
 _atom_site_symmetry_multiplicity
 _atom_site_fract_x
 _atom_site_fract_y
 _atom_site_fract_z
 _atom_site_occupancy
 _atom_site_hle17_bader_spin_density
 _atom_site_hle17_ddec_charge
 _atom_site_hle17_ddec_spin_density
 _atom_site_hle17_ddec_sum_bond_order
 _atom_site_hle17_magmom
 _atom_site_hse06_10hf_bader_spin_density
 _atom_site_hse06_10hf_ddec_charge
 _atom_site_hse06_10hf_ddec_spin_density
 _atom_site_hse06_10hf_ddec_sum_bond_order
 _atom_site_hse06_10hf_magmom
 _atom_site_hse06_bader_spin_density
 _atom_site_hse06_ddec_charge
 _atom_site_hse06_ddec_spin_density
 _atom_site_hse06_ddec_sum_bond_order
 _atom_site_hse06_magmom
 _atom_site_pbe_bader_spin_density
 _atom_site_pbe_cm5_charge
 _atom_site_pbe_ddec_charge
 _atom_site_pbe_ddec_spin_density
 _atom_site_pbe_ddec_sum_bond_order
 _atom_site_pbe_magmom
Cd  Cd0  1  0.87689001  0.41067502  0.59455256  1  0  1.148168  0  1.681622  0  0  0.954523  0  2.13775  0  0  1.012689  0  2.084223  0  0  0.782571  0.91283  0  2.174487  0
Cd  Cd1  1  0.37689006  0.08932421  0.90544705  1  0  1.148167  0  1.681594  0  0  0.954531  0  2.137717  0  0  1.012694  0  2.084196  0  0  0.782576  0.912836  0  2.174458  0
Cd  Cd2  1  0.12310932  0.58932464  0.40544703  1  0  1.148146  0  1.681619  0  0  0.954508  0  2.137747  0  0  1.012677  0  2.084224  0  0  0.782565  0.912817  0  2.174487  0
Cd  Cd3  1  0.62310926  0.91067639  0.09455278  1  0  1.148239  0  1.681557  0  0  0.954615  0  2.137673  0  0  1.012777  0  2.084152  0  0  0.782622  0.912921  0  2.174414  0
H  H4  1  0.79527485  0.52738310  0.99880030  1  0  0.136493  0  0.916611  0  0  0.144595  0  0.978087  0  0  0.14891  0  0.973824  0  0  0.118031  0.141406  0  0.9812  0
H  H5  1  0.29527458  0.97261781  0.50120015  1  0  0.136449  0  0.916589  0  0  0.14456  0  0.978052  0  0  0.148874  0  0.97379  0  0  0.118001  0.141361  0  0.981177  0
H  H6  1  0.20472650  0.47261750  0.00119877  1  0  0.136471  0  0.916571  0  0  0.144581  0  0.978035  0  0  0.148894  0  0.973774  0  0  0.11801  0.14139  0  0.981152  0
H  H7  1  0.70472575  0.02738373  0.49880070  1  0  0.136493  0  0.916675  0  0  0.144591  0  0.978158  0  0  0.148906  0  0.973896  0  0  0.118032  0.141402  0  0.981271  0
H  H8  1  0.48465431  0.32161175  0.10760878  1  0  0.091559  0  0.96089  0  0  0.09842  0  1.027575  0  0  0.100735  0  1.025838  0  0  0.114453  0.096693  0  1.028841  0
H  H9  1  0.98465347  0.17838854  0.39239054  1  0  0.091588  0  0.960893  0  0  0.098446  0  1.027577  0  0  0.100762  0  1.025841  0  0  0.114468  0.096719  0  1.028842  0
H  H10  1  0.51534805  0.67838980  0.89239054  1  0  0.091559  0  0.960912  0  0  0.098406  0  1.027616  0  0  0.100719  0  1.025878  0  0  0.114475  0.096681  0  1.028877  0
H  H11  1  0.01534586  0.82161113  0.60760905  1  0  0.091574  0  0.960858  0  0  0.098435  0  1.02754  0  0  0.100751  0  1.025802  0  0  0.114462  0.096708  0  1.028805  0
H  H12  1  0.59202220  0.20535335  0.78499683  1  0  0.10011  0  0.933016  0  0  0.103097  0  1.005272  0  0  0.106969  0  1.000772  0  0  0.116951  0.100245  0  1.008567  0
H  H13  1  0.09202210  0.29464684  0.71500293  1  0  0.100132  0  0.933013  0  0  0.103115  0  1.005274  0  0  0.106988  0  1.000774  0  0  0.116958  0.100263  0  1.008569  0
H  H14  1  0.40797813  0.79464725  0.21500301  1  0  0.100121  0  0.933021  0  0  0.1031  0  1.005276  0  0  0.106974  0  1.000773  0  0  0.116948  0.100248  0  1.00857  0
H  H15  1  0.90797722  0.70535377  0.28499690  1  0  0.100135  0  0.932981  0  0  0.103115  0  1.005243  0  0  0.106988  0  1.000743  0  0  0.116968  0.100262  0  1.008539  0
H  H16  1  0.78927778  0.65131439  0.78083183  1  0  0.099402  0  0.960891  0  0  0.103693  0  1.031284  0  0  0.106952  0  1.027967  0  0  0.11677  0.101216  0  1.033856  0
H  H17  1  0.28927565  0.84868464  0.71916812  1  0  0.099404  0  0.960863  0  0  0.103701  0  1.031251  0  0  0.10696  0  1.027934  0  0  0.116791  0.101224  0  1.033823  0
H  H18  1  0.21072255  0.34868716  0.21916825  1  0  0.099396  0  0.96087  0  0  0.103686  0  1.031276  0  0  0.106946  0  1.027956  0  0  0.116768  0.101208  0  1.03385  0
H  H19  1  0.71072266  0.15131314  0.28083098  1  0  0.09939  0  0.960896  0  0  0.103683  0  1.031293  0  0  0.106941  0  1.027975  0  0  0.116768  0.101205  0  1.033866  0
H  H20  1  0.68106980  0.53774953  0.45875784  1  0  0.098593  0  0.945864  0  0  0.102969  0  1.015205  0  0  0.106322  0  1.011826  0  0  0.114699  0.100485  0  1.017655  0
H  H21  1  0.18106956  0.96225056  0.04124251  1  0  0.098596  0  0.945857  0  0  0.102973  0  1.015192  0  0  0.10633  0  1.011806  0  0  0.114703  0.10049  0  1.017642  0
H  H22  1  0.31892953  0.46225013  0.54124175  1  0  0.098589  0  0.945871  0  0  0.102968  0  1.015205  0  0  0.106322  0  1.011827  0  0  0.114699  0.100484  0  1.017655  0
H  H23  1  0.81893078  0.03774911  0.95875708  1  0  0.09858  0  0.945865  0  0  0.102956  0  1.015208  0  0  0.106313  0  1.011822  0  0  0.114699  0.100473  0  1.017657  0
H  H24  1  0.51277363  0.88387234  0.66946780  1  0  0.14528  0  0.95618  0  0  0.152547  0  1.020815  0  0  0.156992  0  1.016123  0  0  0.115457  0.14931  0  1.024221  0
H  H25  1  0.01277263  0.61612670  0.83053282  1  0  0.145282  0  0.956181  0  0  0.15255  0  1.020807  0  0  0.156996  0  1.016113  0  0  0.115451  0.149313  0  1.02421  0
H  H26  1  0.48722670  0.11612732  0.33053179  1  0  0.145311  0  0.956151  0  0  0.152553  0  1.020804  0  0  0.156997  0  1.016114  0  0  0.115466  0.149315  0  1.024209  0
H  H27  1  0.98722670  0.38387202  0.16946804  1  0  0.145311  0  0.956172  0  0  0.152577  0  1.020801  0  0  0.157022  0  1.01611  0  0  0.115466  0.14934  0  1.024207  0
C  C28  1  0.77949880  0.38436584  0.78673577  1  0  0.626596  0  3.970585  0  0  0.576933  0  4.261728  0  0  0.611469  0  4.256922  0  0  0.188425  0.553698  0  4.263918  0
C  C29  1  0.27949874  0.11563528  0.71326430  1  0  0.626606  0  3.970581  0  0  0.576959  0  4.261695  0  0  0.611498  0  4.256888  0  0  0.188452  0.553727  0  4.263888  0
C  C30  1  0.22050255  0.61563382  0.21326382  1  0  0.626611  0  3.970579  0  0  0.576962  0  4.261702  0  0  0.611499  0  4.256899  0  0  0.188428  0.553726  0  4.263895  0
C  C31  1  0.72050059  0.88436721  0.28673603  1  0  0.626557  0  3.970644  0  0  0.576894  0  4.261781  0  0  0.611431  0  4.256975  0  0  0.188413  0.553659  0  4.263969  0
C  C32  1  0.70276902  0.36847988  0.88095334  1  0  -0.086604  0  3.737742  0  0  -0.059688  0  3.977692  0  0  -0.071521  0  4.000452  0  0  -0.009696  -0.052373  0  3.962632  0
C  C33  1  0.20276991  0.13152030  0.61904646  1  0  -0.086576  0  3.737748  0  0  -0.059669  0  3.977692  0  0  -0.071505  0  4.000452  0  0  -0.009694  -0.052365  0  3.962645  0
C  C34  1  0.29723132  0.63152073  0.11904573  1  0  -0.086642  0  3.737736  0  0  -0.059758  0  3.977727  0  0  -0.071591  0  4.000486  0  0  -0.009717  -0.052442  0  3.962667  0
C  C35  1  0.79723043  0.86848030  0.38095338  1  0  -0.086579  0  3.737763  0  0  -0.05967  0  3.977707  0  0  -0.071503  0  4.000466  0  0  -0.009697  -0.052355  0  3.962647  0
C  C36  1  0.72146457  0.45137535  0.98442806  1  0  -0.067606  0  3.652595  0  0  -0.10707  0  3.900681  0  0  -0.102479  0  3.916546  0  0  -0.060576  -0.109666  0  3.890013  0
C  C37  1  0.22146440  0.04862576  0.51557275  1  0  -0.067545  0  3.652575  0  0  -0.107023  0  3.900675  0  0  -0.102431  0  3.91654  0  0  -0.060535  -0.109608  0  3.890012  0
C  C38  1  0.27853678  0.54862619  0.01557202  1  0  -0.067554  0  3.65251  0  0  -0.10702  0  3.900625  0  0  -0.102427  0  3.916489  0  0  -0.060548  -0.109615  0  3.889955  0
C  C39  1  0.77853493  0.95137578  0.48442809  1  0  -0.067599  0  3.652639  0  0  -0.107068  0  3.900733  0  0  -0.102474  0  3.916598  0  0  -0.06058  -0.109663  0  3.890062  0
C  C40  1  0.64238084  0.43394268  0.06701341  1  0  0.082359  0  3.804812  0  0  0.098236  0  4.077099  0  0  0.095477  0  4.100758  0  0  0.015487  0.099457  0  4.061383  0
C  C41  1  0.14238092  0.06605761  0.43298655  1  0  0.082346  0  3.804838  0  0  0.098218  0  4.07713  0  0  0.095458  0  4.100789  0  0  0.01548  0.099439  0  4.06141  0
C  C42  1  0.35762051  0.56605886  0.93298591  1  0  0.082329  0  3.804789  0  0  0.098194  0  4.077097  0  0  0.095435  0  4.100753  0  0  0.015467  0.099415  0  4.06138  0
C  C43  1  0.85762043  0.93394205  0.56701303  1  0  0.082316  0  3.804837  0  0  0.098195  0  4.077114  0  0  0.09543  0  4.100783  0  0  0.015471  0.099417  0  4.061397  0
C  C44  1  0.54903582  0.33537736  0.04468740  1  0  0.066899  0  3.695788  0  0  0.025538  0  3.948351  0  0  0.03305  0  3.9663  0  0  0.039405  0.020859  0  3.935964  0
C  C45  1  0.04903589  0.16462294  0.45531177  1  0  0.066901  0  3.69583  0  0  0.025552  0  3.948388  0  0  0.033064  0  3.966339  0  0  0.039402  0.020873  0  3.936001  0
C  C46  1  0.45096451  0.66462324  0.95531091  1  0  0.066917  0  3.69576  0  0  0.025577  0  3.948343  0  0  0.033095  0  3.966286  0  0  0.03939  0.020898  0  3.935955  0
C  C47  1  0.95096445  0.83537767  0.54468806  1  0  0.066901  0  3.695826  0  0  0.025545  0  3.948389  0  0  0.033059  0  3.966338  0  0  0.039393  0.020866  0  3.936  0
C  C48  1  0.60816366  0.27124656  0.86487762  1  0  0.121064  0  3.657649  0  0  0.071442  0  3.919755  0  0  0.081435  0  3.935245  0  0  0.049416  0.06491  0  3.909247  0
C  C49  1  0.10816353  0.22875456  0.63512240  1  0  0.120975  0  3.657547  0  0  0.071361  0  3.919651  0  0  0.081357  0  3.935138  0  0  0.049365  0.064833  0  3.909146  0
C  C50  1  0.39183769  0.72875404  0.13512146  1  0  0.121019  0  3.657526  0  0  0.071427  0  3.919628  0  0  0.08142  0  3.935118  0  0  0.049416  0.064895  0  3.909119  0
C  C51  1  0.89183580  0.77124698  0.36487845  1  0  0.121029  0  3.657615  0  0  0.071419  0  3.919714  0  0  0.081412  0  3.935203  0  0  0.0494  0.064887  0  3.909206  0
C  C52  1  0.63884905  0.86364421  0.85279726  1  0  0.651752  0  3.946226  0  0  0.598329  0  4.243375  0  0  0.634235  0  4.235047  0  0  0.201864  0.57391  0  4.248256  0
C  C53  1  0.13884894  0.63635293  0.64720444  1  0  0.651849  0  3.94612  0  0  0.598455  0  4.243238  0  0  0.634361  0  4.234906  0  0  0.201851  0.574037  0  4.248121  0
C  C54  1  0.36115230  0.13635639  0.14720258  1  0  0.651753  0  3.946248  0  0  0.59833  0  4.243392  0  0  0.634234  0  4.235068  0  0  0.201869  0.573911  0  4.248274  0
C  C55  1  0.86115039  0.36364484  0.35279695  1  0  0.651792  0  3.946079  0  0  0.598343  0  4.243242  0  0  0.63425  0  4.234912  0  0  0.201868  0.573924  0  4.248125  0
C  C56  1  0.65003516  0.77837746  0.73888262  1  0  -0.101488  0  3.750743  0  0  -0.073637  0  3.991085  0  0  -0.086462  0  4.014334  0  0  -0.016551  -0.065479  0  3.975695  0
C  C57  1  0.15003510  0.72162157  0.76111881  1  0  -0.101514  0  3.750681  0  0  -0.073664  0  3.991011  0  0  -0.086488  0  4.014257  0  0  -0.016541  -0.065507  0  3.975621  0
C  C58  1  0.34996518  0.22162314  0.26111722  1  0  -0.101428  0  3.75069  0  0  -0.073573  0  3.991017  0  0  -0.086393  0  4.014264  0  0  -0.016535  -0.065413  0  3.975627  0
C  C59  1  0.84996119  0.27837809  0.23888154  1  0  -0.1015  0  3.750697  0  0  -0.073583  0  3.990962  0  0  -0.086406  0  4.01421  0  0  -0.016534  -0.065424  0  3.975574  0
C  C60  1  0.73225175  0.67161691  0.71694622  1  0  0.112046  0  3.665352  0  0  0.066428  0  3.917284  0  0  0.076489  0  3.933038  0  0  0.044644  0.059776  0  3.907033  0
C  C61  1  0.23225067  0.82838307  0.78305396  1  0  0.112102  0  3.6653  0  0  0.066475  0  3.917237  0  0  0.076535  0  3.932992  0  0  0.044648  0.059823  0  3.906987  0
C  C62  1  0.26774758  0.32838370  0.28305438  1  0  0.112059  0  3.66534  0  0  0.066425  0  3.917286  0  0  0.076484  0  3.933041  0  0  0.044643  0.059772  0  3.907036  0
C  C63  1  0.76774663  0.17161660  0.21694563  1  0  0.112107  0  3.665404  0  0  0.066461  0  3.917331  0  0  0.076521  0  3.933086  0  0  0.044651  0.059807  0  3.907082  0
C  C64  1  0.67100937  0.60770509  0.53743090  1  0  0.074547  0  3.685073  0  0  0.030408  0  3.94224  0  0  0.039202  0  3.957566  0  0  0.042424  0.02492  0  3.931654  0
C  C65  1  0.17100738  0.89229582  0.96256950  1  0  0.074529  0  3.685023  0  0  0.030398  0  3.942196  0  0  0.039192  0  3.957524  0  0  0.042423  0.02491  0  3.93161  0
C  C66  1  0.32899096  0.39229551  0.46256970  1  0  0.07458  0  3.685066  0  0  0.030443  0  3.942234  0  0  0.039237  0  3.957561  0  0  0.042442  0.024954  0  3.93165  0
C  C67  1  0.82899195  0.10770478  0.03743033  1  0  0.074593  0  3.685135  0  0  0.03046  0  3.942277  0  0  0.039255  0  3.957603  0  0  0.04244  0.024968  0  3.931698  0
C  C68  1  0.58642193  0.71225319  0.55354803  1  0  0.078811  0  3.80052  0  0  0.095756  0  4.07153  0  0  0.09276  0  4.094551  0  0  0.016227  0.097064  0  4.056388  0
C  C69  1  0.08641994  0.78774678  0.94645209  1  0  0.078825  0  3.800401  0  0  0.095734  0  4.071455  0  0  0.092739  0  4.094477  0  0  0.016203  0.097041  0  4.056312  0
C  C70  1  0.41357841  0.28774647  0.44645155  1  0  0.078798  0  3.800536  0  0  0.095723  0  4.071563  0  0  0.092727  0  4.094585  0  0  0.016208  0.097031  0  4.056421  0
C  C71  1  0.91357938  0.21225288  0.05354826  1  0  0.078805  0  3.800537  0  0  0.09575  0  4.071551  0  0  0.092754  0  4.094574  0  0  0.01621  0.097058  0  4.056412  0
C  C72  1  0.57646173  0.80045700  0.65532139  1  0  -0.07455  0  3.651771  0  0  -0.115293  0  3.900395  0  0  -0.11074  0  3.916878  0  0  -0.065865  -0.117928  0  3.889263  0
C  C73  1  0.07646071  0.69954297  0.84467874  1  0  -0.074578  0  3.651787  0  0  -0.115311  0  3.900426  0  0  -0.11076  0  3.916909  0  0  -0.065875  -0.11795  0  3.889306  0
C  C74  1  0.42353861  0.19954360  0.34467845  1  0  -0.074626  0  3.651781  0  0  -0.115335  0  3.900409  0  0  -0.110783  0  3.916891  0  0  -0.065883  -0.117969  0  3.889272  0
C  C75  1  0.92353760  0.30045669  0.15532161  1  0  -0.074596  0  3.651769  0  0  -0.115353  0  3.900374  0  0  -0.110802  0  3.916857  0  0  -0.06587  -0.117981  0  3.889222  0
N  N76  1  0.53364681  0.25512681  0.94539025  1  0  -0.305584  0  3.260749  0  0  -0.224158  0  3.529194  0  0  -0.245177  0  3.548153  0  0  -0.321786  -0.20971  0  3.515818  0
N  N77  1  0.03364662  0.24487337  0.55460949  1  0  -0.305569  0  3.260688  0  0  -0.224155  0  3.52913  0  0  -0.245178  0  3.548092  0  0  -0.321776  -0.209708  0  3.515754  0
N  N78  1  0.46635454  0.74487379  0.05460882  1  0  -0.305557  0  3.260635  0  0  -0.22414  0  3.529063  0  0  -0.245162  0  3.548024  0  0  -0.321788  -0.209694  0  3.51569  0
N  N79  1  0.96635270  0.75512723  0.44539035  1  0  -0.305607  0  3.260776  0  0  -0.224184  0  3.529211  0  0  -0.245206  0  3.548172  0  0  -0.321792  -0.209737  0  3.515837  0
N  N80  1  0.74304812  0.58903745  0.61813428  1  0  -0.315315  0  3.282756  0  0  -0.233818  0  3.554017  0  0  -0.255179  0  3.572749  0  0  -0.326169  -0.219319  0  3.54093  0
N  N81  1  0.24304607  0.91096347  0.88186615  1  0  -0.315339  0  3.282767  0  0  -0.23383  0  3.554011  0  0  -0.255192  0  3.572746  0  0  -0.326167  -0.219331  0  3.540924  0
N  N82  1  0.25695221  0.41096316  0.38186556  1  0  -0.315372  0  3.282828  0  0  -0.233859  0  3.554084  0  0  -0.255222  0  3.572818  0  0  -0.326188  -0.219362  0  3.541  0
N  N83  1  0.75695325  0.08903620  0.11813344  1  0  -0.315433  0  3.282861  0  0  -0.233931  0  3.554133  0  0  -0.255293  0  3.572865  0  0  -0.326209  -0.219434  0  3.541049  0
Cl  Cl84  1  0.65536286  0.53190122  0.19707630  1  0  -0.058869  0  1.372501  0  0  -0.041418  0  1.59987  0  0  -0.046792  0  1.598659  0  0  0.024572  -0.037417  0  1.600736  0
Cl  Cl85  1  0.15536278  0.96809887  0.30292404  1  0  -0.058868  0  1.372498  0  0  -0.041415  0  1.599867  0  0  -0.04679  0  1.598658  0  0  0.024575  -0.037412  0  1.600732  0
Cl  Cl86  1  0.34463849  0.46809938  0.80292353  1  0  -0.058861  0  1.372509  0  0  -0.041409  0  1.599883  0  0  -0.046784  0  1.598671  0  0  0.024579  -0.037406  0  1.600748  0
Cl  Cl87  1  0.84463756  0.03190080  0.69707555  1  0  -0.058845  0  1.372501  0  0  -0.041392  0  1.599866  0  0  -0.046766  0  1.598658  0  0  0.024588  -0.03739  0  1.600731  0
Cl  Cl88  1  0.49320341  0.72790925  0.44754755  1  0  -0.032148  0  1.414414  0  0  -0.015147  0  1.648796  0  0  -0.01872  0  1.644726  0  0  0.031924  -0.01274  0  1.651659  0
Cl  Cl89  1  0.99320134  0.77209271  0.05245263  1  0  -0.032156  0  1.414385  0  0  -0.015143  0  1.648776  0  0  -0.018716  0  1.644706  0  0  0.031927  -0.012734  0  1.651639  0
Cl  Cl90  1  0.50679591  0.27209041  0.55245203  1  0  -0.032127  0  1.414433  0  0  -0.015127  0  1.648823  0  0  -0.018699  0  1.644752  0  0  0.031936  -0.012719  0  1.651686  0
Cl  Cl91  1  0.00679900  0.22790789  0.94754797  1  0  -0.032133  0  1.414412  0  0  -0.015142  0  1.648802  0  0  -0.018716  0  1.644733  0  0  0.031925  -0.012736  0  1.651664  0
O  O92  1  0.74002133  0.31795073  0.69360564  1  0  -0.64949  0  2.025177  0  0  -0.588403  0  2.277332  0  0  -0.618469  0  2.268799  0  0  -0.336717  -0.567178  0  2.282203  0
O  O93  1  0.24002131  0.18204944  0.80639417  1  0  -0.649493  0  2.025187  0  0  -0.588421  0  2.277355  0  0  -0.618486  0  2.268822  0  0  -0.33673  -0.567196  0  2.282226  0
O  O94  1  0.25998001  0.68204799  0.30639370  1  0  -0.649465  0  2.025175  0  0  -0.588391  0  2.277339  0  0  -0.618457  0  2.268808  0  0  -0.336699  -0.567167  0  2.282212  0
O  O95  1  0.75997700  0.81795116  0.19360643  1  0  -0.649459  0  2.025129  0  0  -0.588381  0  2.277286  0  0  -0.618446  0  2.268755  0  0  -0.336704  -0.567157  0  2.282157  0
O  O96  1  0.87559834  0.46308857  0.80318312  1  0  -0.633786  0  1.940426  0  0  -0.57994  0  2.173437  0  0  -0.606802  0  2.163403  0  0  -0.328614  -0.560851  0  2.179333  0
O  O97  1  0.37559828  0.03691255  0.69681699  1  0  -0.633804  0  1.940416  0  0  -0.579962  0  2.173413  0  0  -0.606823  0  2.163381  0  0  -0.328632  -0.560872  0  2.179308  0
O  O98  1  0.12440301  0.53691109  0.19681647  1  0  -0.633807  0  1.940405  0  0  -0.579954  0  2.173387  0  0  -0.606816  0  2.163358  0  0  -0.328624  -0.560865  0  2.179283  0
O  O99  1  0.62440205  0.96309088  0.30318283  1  0  -0.633811  0  1.940455  0  0  -0.579953  0  2.173447  0  0  -0.606815  0  2.163414  0  0  -0.328637  -0.560864  0  2.179341  0
O  O100  1  0.70056820  0.82544626  0.92289166  1  0  -0.644209  0  2.009724  0  0  -0.579339  0  2.262474  0  0  -0.608535  0  2.251098  0  0  -0.330058  -0.558744  0  2.269351  0
O  O101  1  0.20056501  0.67455089  0.57710853  1  0  -0.644123  0  2.009688  0  0  -0.579307  0  2.26248  0  0  -0.6085  0  2.251097  0  0  -0.329975  -0.558711  0  2.269358  0
O  O102  1  0.29943214  0.17455435  0.07710818  1  0  -0.644227  0  2.009729  0  0  -0.579349  0  2.262479  0  0  -0.608548  0  2.251105  0  0  -0.330071  -0.558755  0  2.269356  0
O  O103  1  0.79943027  0.32544594  0.42289184  1  0  -0.644234  0  2.009649  0  0  -0.579361  0  2.262419  0  0  -0.608554  0  2.251026  0  0  -0.330072  -0.558766  0  2.269296  0
O  O104  1  0.57072800  0.96376164  0.87263720  1  0  -0.664034  0  2.060958  0  0  -0.605014  0  2.3356  0  0  -0.632823  0  2.321987  0  0  -0.337295  -0.585383  0  2.344477  0
O  O105  1  0.07073093  0.53623551  0.62736752  1  0  -0.664175  0  2.061005  0  0  -0.605112  0  2.335543  0  0  -0.632923  0  2.321925  0  0  -0.337329  -0.585483  0  2.344418  0
O  O106  1  0.42927234  0.03623896  0.12736264  1  0  -0.664016  0  2.060984  0  0  -0.605002  0  2.335626  0  0  -0.632811  0  2.322014  0  0  -0.337278  -0.585371  0  2.344502  0
O  O107  1  0.92927143  0.46375944  0.37263693  1  0  -0.664011  0  2.060962  0  0  -0.60499  0  2.335622  0  0  -0.632799  0  2.322005  0  0  -0.337273  -0.585361  0  2.344498  0
