# generated using pymatgen
data_CuH28C22(NO2)2
_symmetry_space_group_name_H-M   'P 1'
_cell_length_a   7.09164435
_cell_length_b   8.65431315
_cell_length_c   9.43524260
_cell_angle_alpha   94.71296779
_cell_angle_beta   96.71807478
_cell_angle_gamma   95.21716834
_symmetry_Int_Tables_number   1
_chemical_formula_structural   CuH28C22(NO2)2
_chemical_formula_sum   'Cu1 H28 C22 N2 O4'
_cell_volume   570.18676065
_cell_formula_units_Z   1
loop_
 _symmetry_equiv_pos_site_id
 _symmetry_equiv_pos_as_xyz
  1  'x, y, z'
loop_
 _atom_site_type_symbol
 _atom_site_label
 _atom_site_symmetry_multiplicity
 _atom_site_fract_x
 _atom_site_fract_y
 _atom_site_fract_z
 _atom_site_occupancy
 _atom_site_hle17_ddec_charge
 _atom_site_hle17_ddec_spin_density
 _atom_site_hle17_ddec_sum_bond_order
 _atom_site_hle17_magmom
 _atom_site_hse06_10hf_ddec_charge
 _atom_site_hse06_10hf_ddec_spin_density
 _atom_site_hse06_10hf_ddec_sum_bond_order
 _atom_site_hse06_10hf_magmom
 _atom_site_hse06_ddec_charge
 _atom_site_hse06_ddec_spin_density
 _atom_site_hse06_ddec_sum_bond_order
 _atom_site_hse06_magmom
 _atom_site_pbe_cm5_charge
 _atom_site_pbe_ddec_charge
 _atom_site_pbe_ddec_spin_density
 _atom_site_pbe_ddec_sum_bond_order
 _atom_site_pbe_magmom
Cu  Cu0  1  0.00000347  0.99999601  0.99999745  1  0.821031  -0.670544  1.785634  -0.483  0.793217  -0.754114  2.166179  -0.59  0.880467  -0.819706  2.099823  -0.671  0.750833  0.737272  -0.711258  2.212684  -0.541
H  H1  1  0.62413850  0.48015294  0.33612984  1  0.090986  -0.00072  0.97983  -0.001  0.110705  -0.00047  1.044999  -0.001  0.110562  -0.000276  1.047927  0.0  0.078536  0.110825  -0.00058  1.042937  -0.001
H  H2  1  0.37586330  0.51984165  0.66385311  1  0.090963  -0.00072  0.979846  -0.001  0.110685  -0.00047  1.045008  -0.001  0.110543  -0.000276  1.047939  0.0  0.078564  0.110802  -0.00058  1.04294  -0.001
H  H3  1  0.38156842  0.45151597  0.36719937  1  0.097582  7.4e-05  0.971234  0.0  0.116469  2.5e-05  1.036909  0.0  0.117492  1.9e-05  1.037669  0.0  0.08367  0.115837  2.5e-05  1.036233  0.0
H  H4  1  0.61844029  0.54847914  0.63279706  1  0.09748  7.4e-05  0.971352  0.0  0.116362  2.5e-05  1.037061  0.0  0.117387  1.9e-05  1.037818  0.0  0.083608  0.115729  2.5e-05  1.03639  0.0
H  H5  1  0.43914084  0.50224862  0.19730727  1  0.094226  4e-05  0.951215  0.0  0.114478  -1e-06  1.011878  0.0  0.115554  -3e-06  1.012199  0.0  0.082501  0.113256  -7e-06  1.013075  0.0
H  H6  1  0.56084328  0.49773566  0.80268452  1  0.094151  4.1e-05  0.951276  0.0  0.114403  -1e-06  1.011944  0.0  0.115474  -2e-06  1.012275  0.0  0.082465  0.113185  -7e-06  1.013132  0.0
H  H7  1  0.76642661  0.28378144  0.17722491  1  0.097642  4.7e-05  0.971614  0.0  0.115067  2.2e-05  1.044113  0.0  0.115707  4.3e-05  1.04522  0.0  0.08057  0.114373  1.6e-05  1.043656  0.0
H  H8  1  0.23356700  0.71621564  0.82276171  1  0.097732  4.7e-05  0.971701  0.0  0.1151  2.2e-05  1.04428  0.0  0.115744  4.2e-05  1.045382  0.0  0.080562  0.114407  1.6e-05  1.043822  0.0
H  H9  1  0.58691086  0.30988869  0.03498790  1  0.094163  9e-06  0.946871  0.0  0.115185  8e-06  1.008235  0.0  0.116573  9e-06  1.008101  0.0  0.081545  0.114059  -1e-06  1.008876  0.0
H  H10  1  0.41307113  0.69010841  0.96500921  1  0.094097  1e-05  0.946795  0.0  0.115152  8e-06  1.008135  0.0  0.116539  9e-06  1.008001  0.0  0.081556  0.114026  -1e-06  1.008776  0.0
H  H11  1  0.61912304  0.12009195  0.08366246  1  0.122974  -0.000114  0.968295  0.0  0.138916  -0.000106  1.036052  0.0  0.141998  2e-06  1.033942  0.0  0.088421  0.1368  -0.000242  1.037522  0.0
H  H12  1  0.38088006  0.87990973  0.91631815  1  0.122919  -0.000115  0.968278  0.0  0.13892  -0.000106  1.035972  0.0  0.142001  2e-06  1.033861  0.0  0.088405  0.136803  -0.000242  1.037449  0.0
H  H13  1  0.67632786  0.20963896  0.41616570  1  0.094742  -0.00027  0.964066  0.0  0.115957  -0.000129  1.027075  0.0  0.11636  -5.9e-05  1.029092  0.0  0.082531  0.115838  -0.00014  1.025107  0.0
H  H14  1  0.32369740  0.79036051  0.58382541  1  0.094736  -0.000269  0.964177  0.0  0.116023  -0.000129  1.027091  0.0  0.1164  -5.9e-05  1.029142  0.0  0.082552  0.115904  -0.00014  1.025115  0.0
H  H15  1  0.52810834  0.04280666  0.32915593  1  0.103089  -4.1e-05  0.944983  0.0  0.124345  -7.4e-05  1.002146  0.0  0.125853  -4.7e-05  1.002446  0.0  0.087422  0.122638  -0.000119  1.003325  0.0
H  H16  1  0.47191153  0.95718697  0.67083936  1  0.103158  -4.1e-05  0.944996  0.0  0.124459  -7.5e-05  1.002112  0.0  0.125971  -4.7e-05  1.002402  0.0  0.087474  0.122737  -0.000119  1.003307  0.0
H  H17  1  0.43342649  0.18136387  0.44508203  1  0.095147  -2e-05  0.9568  0.0  0.115473  -1.8e-05  1.019176  0.0  0.116637  -1.6e-05  1.019638  0.0  0.083605  0.114324  -2.5e-05  1.019396  0.0
H  H18  1  0.56659554  0.81863523  0.55492357  1  0.09533  -2e-05  0.956785  0.0  0.115609  -1.8e-05  1.019227  0.0  0.116774  -1.6e-05  1.01968  0.0  0.083639  0.114463  -2.5e-05  1.019441  0.0
H  H19  1  0.89891063  0.03262740  0.28869307  1  0.08668  -0.000991  0.948498  -0.001  0.09243  -0.00093  1.019625  -0.001  0.094086  -0.000651  1.017896  -0.001  0.121374  0.090823  -0.001098  1.021316  -0.002
H  H20  1  0.10108791  0.96737405  0.71129873  1  0.086589  -0.000992  0.948346  -0.001  0.092309  -0.000931  1.019537  -0.001  0.093969  -0.000651  1.017802  -0.001  0.121321  0.090703  -0.001099  1.021233  -0.002
H  H21  1  0.88628673  0.86706924  0.49481823  1  0.105281  -0.00053  0.963908  0.0  0.115549  -0.000535  1.025959  0.0  0.1182  -0.000404  1.026152  0.0  0.108771  0.113137  -0.000592  1.026834  -0.001
H  H22  1  0.11371011  0.13295648  0.50518748  1  0.10528  -0.00053  0.96372  0.0  0.115568  -0.000535  1.025745  0.0  0.118216  -0.000404  1.025938  0.0  0.108735  0.113152  -0.000592  1.026621  -0.001
H  H23  1  0.06585253  0.49330687  0.22395893  1  0.123751  -0.000557  0.984455  0.0  0.132238  -0.000506  1.046028  0.0  0.135905  -0.000381  1.044801  0.0  0.110795  0.129179  -0.000533  1.047848  -0.001
H  H24  1  0.93413114  0.50670238  0.77605972  1  0.123608  -0.000557  0.984633  0.0  0.132201  -0.000506  1.046102  0.0  0.135873  -0.000381  1.04487  0.0  0.110788  0.129148  -0.000533  1.047917  -0.001
H  H25  1  0.06325287  0.67297108  0.03001396  1  0.084381  -0.000899  0.949815  -0.001  0.092041  -0.000858  1.015919  -0.001  0.093728  -0.000607  1.014385  -0.001  0.120647  0.090704  -0.001015  1.016964  -0.001
H  H26  1  0.93672763  0.32701146  0.96999850  1  0.08438  -0.000899  0.949885  -0.001  0.092074  -0.000857  1.015929  -0.001  0.093762  -0.000607  1.014393  -0.001  0.12064  0.090734  -0.001014  1.016974  -0.001
H  H27  1  0.93653058  0.63342844  0.59786701  1  0.109103  -0.000137  0.985708  0.0  0.117553  -9e-05  1.051238  0.0  0.121503  -7.1e-05  1.048642  0.0  0.105038  0.114761  -8.9e-05  1.053116  0.0
H  H28  1  0.06345774  0.36658300  0.40215232  1  0.109348  -0.000137  0.985745  0.0  0.117784  -9.1e-05  1.051235  0.0  0.121729  -7.1e-05  1.048661  0.0  0.105131  0.115001  -8.9e-05  1.053085  0.0
C  C29  1  0.27614329  0.19282562  0.16805785  1  0.619828  0.008558  3.805435  0.009  0.58034  0.00268  4.104652  0.004  0.615119  0.003531  4.10104  0.004  0.203304  0.556967  0.002026  4.105881  0.004
C  C30  1  0.72384946  0.80715131  0.83193515  1  0.620023  0.008563  3.804532  0.009  0.580525  0.00268  4.103789  0.004  0.615307  0.003533  4.100169  0.004  0.203421  0.557154  0.00203  4.105025  0.004
C  C31  1  0.47839533  0.26115665  0.23543332  1  0.115629  -0.010122  3.610844  -0.011  0.16073  -0.005878  3.822931  -0.007  0.156027  -0.004089  3.842401  -0.005  -0.018982  0.164028  -0.00708  3.808948  -0.008
C  C32  1  0.52160909  0.73884674  0.76456563  1  0.115495  -0.010109  3.610927  -0.011  0.160613  -0.005871  3.82306  -0.007  0.155914  -0.004086  3.842517  -0.005  -0.019035  0.163896  -0.007072  3.809084  -0.008
C  C33  1  0.47984989  0.43379269  0.28716572  1  -0.326242  -0.001138  3.693599  -0.001  -0.404331  -0.000897  3.925674  -0.001  -0.406715  -0.00058  3.937697  -0.001  -0.248895  -0.402519  -0.001236  3.917755  -0.001
C  C34  1  0.52015386  0.56619801  0.71282658  1  -0.326019  -0.001138  3.693489  -0.001  -0.404128  -0.000897  3.925605  -0.001  -0.406507  -0.00058  3.937626  -0.001  -0.248839  -0.40231  -0.001236  3.917663  -0.001
C  C35  1  0.62117402  0.24192762  0.12652527  1  -0.34254  -5.7e-05  3.673673  0.0  -0.425227  -0.000446  3.914624  0.0  -0.427256  -0.00019  3.924179  0.0  -0.253742  -0.423328  -0.000651  3.90785  0.0
C  C36  1  0.37882225  0.75806823  0.87346043  1  -0.342475  -5.7e-05  3.673743  0.0  -0.425218  -0.000447  3.914718  0.0  -0.427241  -0.00019  3.924265  0.0  -0.25367  -0.42331  -0.000651  3.907936  0.0
C  C37  1  0.53169966  0.16751063  0.36400857  1  -0.320286  0.00057  3.658274  0.001  -0.395808  0.000141  3.886196  0.0  -0.398349  0.000214  3.897369  0.0  -0.241223  -0.393163  8.1e-05  3.877725  0.0
C  C38  1  0.46831831  0.83248788  0.63598277  1  -0.320472  0.00057  3.658388  0.001  -0.396075  0.000142  3.886319  0.0  -0.398598  0.000213  3.897496  0.0  -0.241294  -0.39341  8.1e-05  3.877852  0.0
C  C39  1  0.93286037  0.91220895  0.28030337  1  0.121126  0.010856  3.707661  0.007  0.092587  0.003171  3.959846  0.002  0.102204  0.004811  3.977668  0.003  0.045624  0.086732  0.001924  3.948271  0.001
C  C40  1  0.06712368  0.08779981  0.71969405  1  0.121242  0.010873  3.707652  0.007  0.092775  0.003173  3.95986  0.002  0.102391  0.004812  3.977672  0.003  0.045701  0.086916  0.001925  3.948293  0.001
C  C41  1  0.92782755  0.82011222  0.39363200  1  -0.167964  -0.007735  3.700811  -0.008  -0.183319  -0.003487  3.939944  -0.004  -0.191456  -0.00328  3.959725  -0.004  -0.078692  -0.177761  -0.003452  3.926737  -0.004
C  C42  1  0.07217040  0.17990399  0.60637606  1  -0.167954  -0.007745  3.701046  -0.008  -0.183375  -0.003489  3.940149  -0.004  -0.191488  -0.003281  3.95995  -0.004  -0.078632  -0.17782  -0.003453  3.926941  -0.004
C  C43  1  0.97768114  0.66642727  0.37839033  1  0.139104  0.010166  3.802955  0.007  0.154786  0.004199  4.030868  0.002  0.161269  0.004787  4.051873  0.003  0.01163  0.151312  0.00353  4.015271  0.002
C  C44  1  0.02232052  0.33358633  0.62162208  1  0.1393  0.010175  3.803267  0.007  0.155099  0.004202  4.031062  0.003  0.161514  0.004789  4.052159  0.003  0.011696  0.151627  0.003531  4.015459  0.002
C  C45  1  0.02664036  0.61157570  0.24397141  1  -0.155958  -0.007971  3.661825  -0.008  -0.168716  -0.003534  3.894269  -0.004  -0.177063  -0.003415  3.914497  -0.004  -0.075248  -0.16414  -0.003697  3.881838  -0.004
C  C46  1  0.97335697  0.38842975  0.75604293  1  -0.155836  -0.007981  3.661908  -0.008  -0.168752  -0.003533  3.894313  -0.004  -0.177077  -0.003416  3.914563  -0.004  -0.075259  -0.164182  -0.003697  3.881873  -0.004
C  C47  1  0.02709086  0.71040105  0.13569083  1  0.130018  0.010184  3.689666  0.007  0.103344  0.002792  3.936217  0.002  0.112283  0.004337  3.954737  0.003  0.05234  0.097863  0.001341  3.924085  0.001
C  C48  1  0.97289225  0.28959566  0.86431695  1  0.12993  0.010201  3.689455  0.007  0.103296  0.002791  3.936007  0.002  0.112229  0.004337  3.954531  0.003  0.052333  0.097823  0.00134  3.923862  0.001
C  C49  1  0.97716791  0.57428823  0.50049101  1  -0.106202  0.002318  3.69628  0.001  -0.12641  0.001108  3.948433  0.0  -0.12901  0.001248  3.965776  0.0  -0.078493  -0.124596  0.001129  3.93589  0.0
C  C50  1  0.02284618  0.42573187  0.49952649  1  -0.106779  0.002331  3.69659  0.001  -0.126996  0.001106  3.948753  0.0  -0.129594  0.001237  3.966127  0.0  -0.078562  -0.125168  0.001128  3.936209  0.0
N  N51  1  0.98300980  0.85859544  0.15365155  1  -0.282853  -0.072034  3.350655  -0.092  -0.229256  -0.052826  3.636091  -0.071  -0.25678  -0.044703  3.655056  -0.065  -0.35131  -0.213009  -0.056688  3.624701  -0.073
N  N52  1  0.01697717  0.14139790  0.84634781  1  -0.282752  -0.072043  3.350378  -0.092  -0.229273  -0.052827  3.635908  -0.071  -0.256785  -0.044707  3.654862  -0.065  -0.351333  -0.213024  -0.05669  3.624514  -0.073
O  O53  1  0.26875369  0.07122190  0.07807634  1  -0.582898  -0.105222  2.054741  -0.142  -0.5565  -0.067748  2.328157  -0.1  -0.599774  -0.052832  2.323464  -0.084  -0.324633  -0.527315  -0.077799  2.330949  -0.109
O  O54  1  0.73125044  0.92878022  0.92192563  1  -0.583087  -0.105279  2.054053  -0.142  -0.5567  -0.067779  2.327516  -0.1  -0.599985  -0.052854  2.322841  -0.084  -0.324729  -0.527507  -0.077825  2.330309  -0.109
O  O55  1  0.12957897  0.25081603  0.20324709  1  -0.650986  0.001011  1.954683  -0.001  -0.615202  0.001456  2.202045  0.0  -0.64083  0.002471  2.192635  0.001  -0.332598  -0.59624  0.000608  2.20774  -0.001
O  O56  1  0.87042667  0.74916978  0.79674916  1  -0.650939  0.001018  1.954419  -0.001  -0.615082  0.001461  2.201665  0.0  -0.640755  0.002473  2.192347  0.001  -0.332577  -0.596135  0.000611  2.207403  -0.001
