# generated using pymatgen
data_AlH15(C5O2)6
_symmetry_space_group_name_H-M   'P 1'
_cell_length_a   4.08914852
_cell_length_b   16.04055549
_cell_length_c   16.01267266
_cell_angle_alpha   119.98794139
_cell_angle_beta   89.41373771
_cell_angle_gamma   90.19589940
_symmetry_Int_Tables_number   1
_chemical_formula_structural   AlH15(C5O2)6
_chemical_formula_sum   'Al1 H15 C30 O12'
_cell_volume   909.65338033
_cell_formula_units_Z   1
loop_
 _symmetry_equiv_pos_site_id
 _symmetry_equiv_pos_as_xyz
  1  'x, y, z'
loop_
 _atom_site_type_symbol
 _atom_site_label
 _atom_site_symmetry_multiplicity
 _atom_site_fract_x
 _atom_site_fract_y
 _atom_site_fract_z
 _atom_site_occupancy
 _atom_site_pbe_bader_charge
 _atom_site_pbe_bader_spin_density
 _atom_site_pbe_cm5_charge
 _atom_site_pbe_ddec_charge
 _atom_site_pbe_ddec_spin_density
 _atom_site_pbe_ddec_sum_bond_order
 _atom_site_pbe_magmom
Al  Al0  1  0.98213959  0.50012468  0.49682666  1  2.51033  0  0.438326  1.612008  0  2.550797  0
H  H1  1  0.51948848  0.92358848  0.07973379  1  0.036891  0  0.10562  0.10628  0  1.022238  0
H  H2  1  0.49073793  0.65353691  0.07534903  1  0.047145  0  0.101956  0.100672  0  1.023132  0
H  H3  1  0.54984326  0.91856183  0.34530688  1  0.073365  0  0.106663  0.108723  0  1.014969  0
H  H4  1  0.70515380  0.23823228  0.25523090  1  0.112781  0  0.114164  0.12435  0  0.973911  0
H  H5  1  0.74498721  0.06161906  0.16291965  1  0.102725  0  0.110529  0.112659  0  0.987782  0
H  H6  1  0.29362578  0.04877314  0.40140988  1  0.10265  0  0.11187  0.11624  0  1.002839  0
H  H7  1  0.29344915  0.85046036  0.94968289  1  0.082081  0  0.111058  0.115008  0  1.004063  0
H  H8  1  0.70267985  0.51545773  0.75927515  1  0.11542  0  0.117934  0.130838  0  0.961901  0
H  H9  1  0.73641874  0.59980874  0.93615891  1  0.060288  0  0.107555  0.107782  0  0.994055  0
H  H10  1  0.78197371  0.60292023  0.15712341  1  0.076435  0  0.108722  0.113189  0  0.996713  0
H  H11  1  0.23850458  0.74083021  0.47763004  1  0.147169  0  0.120475  0.132595  0  0.968512  0
H  H12  1  0.24955310  0.83421381  0.39267363  1  0.0915  0  0.111088  0.114549  0  0.987587  0
H  H13  1  0.98050367  0.32929183  0.52316123  1  0.640602  0  0.307894  0.346204  0  0.981548  0
H  H14  1  0.99186843  0.69402963  0.66923866  1  0.628182  0  0.309742  0.347514  0  0.975485  0
H  H15  1  0.37175034  0.42003719  0.20104092  1  0.652497  0  0.313956  0.378311  0  0.961837  0
C  C16  1  0.47651646  0.58006822  0.64697649  1  1.52977  0  0.284024  0.66985  0  4.050712  0
C  C17  1  0.48508135  0.56716046  0.41915104  1  1.566964  0  0.280017  0.665214  0  4.050914  0
C  C18  1  0.47768180  0.35082142  0.43201644  1  1.632072  0  0.285321  0.67056  0  4.046532  0
C  C19  1  0.51560477  0.78231344  0.06470433  1  0.08797  0  -0.005644  0.07926  0  4.019377  0
C  C20  1  0.52088807  0.88325232  0.11786589  1  -0.16087  0  -0.083231  -0.169544  0  3.913781  0
C  C21  1  0.52416768  0.93361760  0.21884411  1  0.05212  0  -0.004438  0.081045  0  4.016651  0
C  C22  1  0.53091211  0.88076751  0.26700973  1  0.034303  0  -0.083882  -0.17362  0  3.919405  0
C  C23  1  0.52243137  0.77994795  0.21614330  1  -0.031335  0  -0.006803  0.07475  0  4.0261  0
C  C24  1  0.51272965  0.73170646  0.11507448  1  -0.179453  0  -0.086363  -0.175327  0  3.928995  0
C  C25  1  0.61202011  0.19597334  0.28655668  1  -0.064352  0  -0.07984  -0.089309  0  3.969551  0
C  C26  1  0.63146161  0.09605996  0.23437060  1  -0.018934  0  -0.078159  -0.111421  0  3.956076  0
C  C27  1  0.51498509  0.04017199  0.27364571  1  0.013864  0  -0.003042  0.067474  0  3.996776  0
C  C28  1  0.38609749  0.08853140  0.36744662  1  0.063226  0  -0.074092  -0.12547  0  3.931342  0
C  C29  1  0.37005874  0.18894139  0.42211954  1  -0.069353  0  -0.014435  -0.074337  0  3.991601  0
C  C30  1  0.48039021  0.24318659  0.38038219  1  -0.107064  0  -0.013665  -0.078909  0  3.977926  0
C  C31  1  0.38298452  0.77665673  0.90987991  1  0.116204  0  -0.073848  -0.124911  0  3.934922  0
C  C32  1  0.37172160  0.73107421  0.80937374  1  -0.131427  0  -0.014287  -0.074195  0  3.993971  0
C  C33  1  0.47832581  0.63502130  0.75480370  1  0.035993  0  -0.012846  -0.076898  0  3.975735  0
C  C34  1  0.60715791  0.58855074  0.80170595  1  -0.127836  0  -0.078317  -0.086919  0  3.961277  0
C  C35  1  0.62289133  0.63626235  0.90178591  1  0.033355  0  -0.079282  -0.112763  0  3.961484  0
C  C36  1  0.50515621  0.73100209  0.95808744  1  0.018232  0  -0.003864  0.066668  0  4.000208  0
C  C37  1  0.65745869  0.63348495  0.22675325  1  -0.002091  0  -0.077787  -0.142332  0  3.92995  0
C  C38  1  0.64321984  0.57934149  0.27280210  1  -0.037729  0  0.000406  -0.037546  0  3.966597  0
C  C39  1  0.49282296  0.61871499  0.36432803  1  0.002459  0  -0.009273  -0.076677  0  3.959959  0
C  C40  1  0.35358305  0.71095520  0.40667141  1  -0.104747  0  -0.067894  -0.063858  0  3.939034  0
C  C41  1  0.36526960  0.76352029  0.35930432  1  -0.006947  0  -0.078839  -0.12194  0  3.953641  0
C  C42  1  0.51663747  0.72552651  0.26816448  1  0.041193  0  0.004923  0.083931  0  3.985875  0
C  C43  1  0.26014936  0.22980606  0.52548047  1  1.531102  0  0.22528  0.568964  0  4.130741  0
C  C44  1  0.27592387  0.79384411  0.76825211  1  1.553628  0  0.225708  0.568127  0  4.13097  0
C  C45  1  0.79027443  0.48022862  0.22059998  1  1.576835  0  0.252268  0.621504  0  4.075139  0
O  O46  1  0.24606540  0.39127207  0.41335683  1  -1.25448  0  -0.227646  -0.582617  0  2.362448  0
O  O47  1  0.24347575  0.52175907  0.60590836  1  -1.251326  0  -0.230033  -0.58707  0  2.385919  0
O  O48  1  0.24744660  0.58554620  0.47828361  1  -1.263367  0  -0.236739  -0.608346  0  2.405372  0
O  O49  1  0.71531435  0.39529328  0.48896898  1  -1.253676  0  -0.227196  -0.594949  0  2.398668  0
O  O50  1  0.71752581  0.50812669  0.40551871  1  -1.265578  0  -0.239936  -0.616891  0  2.400493  0
O  O51  1  0.71794199  0.59332625  0.60300840  1  -1.257512  0  -0.226532  -0.59867  0  2.409232  0
O  O52  1  0.08946473  0.31334146  0.56840535  1  -1.143223  0  -0.344762  -0.475102  0  2.273436  0
O  O53  1  0.33213698  0.18966705  0.57023644  1  -1.088734  0  -0.27602  -0.434497  0  2.034921  0
O  O54  1  0.10739143  0.75435185  0.68486096  1  -1.137355  0  -0.339815  -0.467964  0  2.272289  0
O  O55  1  0.35861775  0.87791209  0.80788877  1  -1.098264  0  -0.276342  -0.435289  0  2.035361  0
O  O56  1  0.61388923  0.40359320  0.19989279  1  -1.141064  0  -0.322868  -0.462284  0  2.248096  0
O  O57  1  0.08001881  0.47235330  0.19492119  1  -1.172632  0  -0.277779  -0.504617  0  2.275002  0
