# generated using pymatgen
data_CuH14C16(N2O)5
_symmetry_space_group_name_H-M   'P 1'
_cell_length_a   7.67962066
_cell_length_b   9.12554823
_cell_length_c   14.60532478
_cell_angle_alpha   89.99973751
_cell_angle_beta   90.00025251
_cell_angle_gamma   107.48651944
_symmetry_Int_Tables_number   1
_chemical_formula_structural   CuH14C16(N2O)5
_chemical_formula_sum   'Cu2 H28 C32 N20 O10'
_cell_volume   976.25137306
_cell_formula_units_Z   2
loop_
 _symmetry_equiv_pos_site_id
 _symmetry_equiv_pos_as_xyz
  1  'x, y, z'
loop_
 _atom_site_type_symbol
 _atom_site_label
 _atom_site_symmetry_multiplicity
 _atom_site_fract_x
 _atom_site_fract_y
 _atom_site_fract_z
 _atom_site_occupancy
 _atom_site_hle17_ddec_charge
 _atom_site_hle17_ddec_spin_density
 _atom_site_hle17_ddec_sum_bond_order
 _atom_site_hle17_magmom
 _atom_site_hse06_10hf_ddec_charge
 _atom_site_hse06_10hf_ddec_spin_density
 _atom_site_hse06_10hf_ddec_sum_bond_order
 _atom_site_hse06_10hf_magmom
 _atom_site_hse06_ddec_charge
 _atom_site_hse06_ddec_spin_density
 _atom_site_hse06_ddec_sum_bond_order
 _atom_site_hse06_magmom
 _atom_site_pbe_cm5_charge
 _atom_site_pbe_ddec_charge
 _atom_site_pbe_ddec_spin_density
 _atom_site_pbe_ddec_sum_bond_order
 _atom_site_pbe_magmom
Cu  Cu0  1  0.81714254  0.53063898  0.66658242  1  0.868836  0.692076  1.74978  0.508  0.843845  0.773194  2.130963  0.619  0.932576  0.838573  2.064707  0.702  0.743681  0.790119  0.72768  2.17606  0.565
Cu  Cu1  1  0.18285363  0.46935890  0.16658399  1  0.868818  0.692088  1.749814  0.508  0.843882  0.773212  2.130945  0.619  0.932562  0.838583  2.064745  0.702  0.743683  0.790167  0.727708  2.176029  0.565
H  H2  1  0.04397600  0.34194789  0.34294709  1  0.083112  0.001065  0.963232  0.002  0.081641  0.000804  1.044479  0.001  0.08442  0.000557  1.040482  0.001  0.11392  0.079451  0.001015  1.047586  0.002
H  H3  1  0.95601741  0.65804902  0.84294136  1  0.083071  0.001068  0.963305  0.002  0.08158  0.000804  1.044557  0.001  0.084362  0.000557  1.040556  0.001  0.11391  0.079387  0.001015  1.047664  0.002
H  H4  1  0.11434493  0.40829606  0.50933844  1  0.118264  0.000543  0.960268  0.001  0.130005  0.000531  1.014  0.001  0.133445  0.000349  1.013545  0.0  0.110491  0.127489  0.000691  1.014447  0.001
H  H5  1  0.88565457  0.59170383  0.00933513  1  0.118321  0.000546  0.960261  0.001  0.130034  0.000531  1.014012  0.001  0.133474  0.000349  1.013559  0.0  0.110496  0.127521  0.000691  1.014461  0.001
H  H6  1  0.36444961  0.64558443  0.54768400  1  0.115042  0.000288  0.976987  0.001  0.123552  3.4e-05  1.039017  0.0  0.126682  -1.2e-05  1.036344  0.0  0.111861  0.12114  7e-05  1.041175  0.0
H  H7  1  0.63554623  0.35441528  0.04768215  1  0.115075  0.000285  0.976936  0.001  0.123573  3.4e-05  1.038961  0.0  0.126702  -1.1e-05  1.03629  0.0  0.111878  0.121162  7e-05  1.04112  0.0
H  H8  1  0.44004842  0.73620404  0.25706118  1  0.106363  0.001134  0.949351  0.002  0.109678  0.000898  1.020398  0.001  0.112672  0.000609  1.016603  0.001  0.12324  0.107227  0.00117  1.023484  0.002
H  H9  1  0.55995011  0.26378754  0.75706046  1  0.106387  0.001139  0.949335  0.002  0.109717  0.000898  1.020338  0.001  0.112709  0.000609  1.016546  0.001  0.12323  0.10726  0.00117  1.02342  0.002
H  H10  1  0.24586261  0.64785292  0.69046260  1  0.418422  -7.8e-05  0.88452  0.0  0.393859  -7.8e-05  0.93929  0.0  0.40585  -5.5e-05  0.921817  0.0  0.286842  0.385615  -8.6e-05  0.951283  0.0
H  H11  1  0.75413544  0.35214597  0.19046720  1  0.418446  -7.7e-05  0.884468  0.0  0.393903  -7.8e-05  0.939222  0.0  0.405894  -5.5e-05  0.921747  0.0  0.286847  0.385659  -8.6e-05  0.951216  0.0
H  H12  1  0.97154271  0.20939770  0.06086766  1  0.094888  0.001081  0.941873  0.002  0.10037  0.000822  1.01078  0.001  0.103057  0.00057  1.007102  0.001  0.12259  0.098007  0.001037  1.013966  0.002
H  H13  1  0.02844761  0.79060084  0.56087106  1  0.094999  0.001078  0.941824  0.002  0.100446  0.000821  1.010777  0.001  0.103135  0.00057  1.007094  0.001  0.12266  0.098084  0.001037  1.013961  0.002
H  H14  1  0.11978691  0.30636302  0.77708820  1  0.123809  0.000326  0.910207  0.001  0.137122  8.2e-05  0.962392  0.0  0.140381  1.3e-05  0.959863  0.0  0.121458  0.134543  0.000152  0.96452  0.0
H  H15  1  0.88022115  0.69364334  0.27709075  1  0.123834  0.000331  0.910277  0.001  0.137135  8.2e-05  0.96247  0.0  0.140398  1.3e-05  0.959933  0.0  0.121418  0.134549  0.000152  0.964605  0.0
H  H16  1  0.35445186  0.54533422  0.82927047  1  0.110467  0.000494  0.975254  0.001  0.120328  0.000465  1.032806  0.001  0.122739  0.000344  1.033371  0.0  0.108213  0.118479  0.00056  1.032681  0.001
H  H17  1  0.64556045  0.45466835  0.32926768  1  0.110376  0.000495  0.975367  0.001  0.120225  0.000465  1.032935  0.001  0.122635  0.000344  1.0335  0.0  0.108188  0.118378  0.00056  1.032813  0.001
H  H18  1  0.38182025  0.60955470  0.99740977  1  0.096197  0.00084  0.944175  0.002  0.098882  0.000666  1.01557  0.001  0.101376  0.000444  1.012527  0.001  0.122067  0.096949  0.000855  1.01767  0.001
H  H19  1  0.61818362  0.39044585  0.49740573  1  0.096176  0.000839  0.944196  0.002  0.098882  0.000666  1.015556  0.001  0.101375  0.000444  1.012518  0.001  0.12209  0.096946  0.000855  1.017653  0.001
H  H20  1  0.55250237  0.94449944  0.69642474  1  0.148643  -0.00071  0.915742  -0.001  0.157634  -0.000329  0.978963  0.0  0.1609  -0.000284  0.976217  0.0  0.13263  0.155376  -0.000234  0.980803  0.0
H  H21  1  0.44750388  0.05550740  0.19643154  1  0.148599  -0.000708  0.915786  -0.001  0.157611  -0.000329  0.978997  0.0  0.160881  -0.000284  0.976249  0.0  0.132626  0.155355  -0.000234  0.980841  0.0
H  H22  1  0.42129176  0.82331846  0.78353683  1  0.109644  0.000643  0.960801  0.001  0.115473  0.000631  1.032972  0.001  0.117094  0.000434  1.031572  0.001  0.123997  0.114215  0.000784  1.034066  0.001
H  H23  1  0.57871028  0.17668908  0.28354221  1  0.109589  0.00064  0.96088  0.001  0.115445  0.000631  1.033044  0.001  0.117067  0.000434  1.031646  0.001  0.123969  0.114186  0.000784  1.03414  0.001
H  H24  1  0.01173451  0.15680232  0.54660249  1  0.129616  -0.00046  0.926486  0.0  0.13789  -2.9e-05  0.989468  0.0  0.14097  -4.3e-05  0.986608  0.0  0.12588  0.135766  3.5e-05  0.991453  0.0
H  H25  1  0.98826694  0.84319849  0.04660554  1  0.129568  -0.00045  0.926436  0.0  0.137842  -3e-05  0.989424  0.0  0.140909  -4.4e-05  0.986578  0.0  0.125842  0.135726  3.5e-05  0.991408  0.0
H  H26  1  0.87824287  0.02656439  0.62879836  1  0.135966  -4e-05  0.915154  0.0  0.145818  7e-05  0.976889  0.0  0.14863  -8e-06  0.974681  0.0  0.128711  0.143278  -4.6e-05  0.979435  0.0
H  H27  1  0.12176128  0.97343478  0.12879972  1  0.135964  -5.4e-05  0.915135  0.0  0.14582  7e-05  0.976867  0.0  0.148637  -8e-06  0.974652  0.0  0.128718  0.143282  -4.5e-05  0.979415  0.0
H  H28  1  0.16280105  0.78245205  0.71399894  1  0.414842  -1.3e-05  0.831842  0.0  0.404949  -4.3e-05  0.878717  0.0  0.413765  -3.3e-05  0.868329  0.0  0.315228  0.398748  -4.9e-05  0.886216  0.0
H  H29  1  0.83720017  0.21754782  0.21400137  1  0.414788  -1.2e-05  0.83191  0.0  0.404903  -4.3e-05  0.878777  0.0  0.413717  -3.2e-05  0.86839  0.0  0.315221  0.398704  -4.9e-05  0.886274  0.0
C  C30  1  0.15002142  0.44535733  0.36363951  1  0.128677  -0.012505  3.681584  -0.008  0.093821  -0.00308  3.944599  -0.002  0.103389  -0.004803  3.964177  -0.003  0.044417  0.087229  -0.001818  3.932922  -0.001
C  C31  1  0.84997601  0.55463943  0.86363521  1  0.128759  -0.012517  3.681554  -0.008  0.0939  -0.003081  3.944604  -0.002  0.103467  -0.004806  3.964188  -0.003  0.044452  0.087309  -0.001819  3.932922  -0.001
C  C32  1  0.19083648  0.48174982  0.45508150  1  -0.104966  0.010117  3.710721  0.011  -0.114456  0.003588  3.95684  0.004  -0.123252  0.003249  3.978803  0.004  -0.079275  -0.108594  0.003856  3.942564  0.005
C  C33  1  0.80916415  0.51824293  0.95507995  1  -0.105051  0.010114  3.71085  0.011  -0.114509  0.003589  3.956932  0.004  -0.123311  0.00325  3.978911  0.004  -0.079315  -0.10865  0.003856  3.942663  0.005
C  C34  1  0.32757253  0.61592960  0.47666332  1  -0.021669  -0.013912  3.657301  -0.009  -0.050945  -0.004635  3.90213  -0.003  -0.046272  -0.00527  3.918719  -0.003  -0.059701  -0.053872  -0.004049  3.8908  -0.002
C  C35  1  0.67242390  0.38406538  0.97665978  1  -0.021901  -0.013892  3.657513  -0.009  -0.051123  -0.004635  3.902299  -0.003  -0.046456  -0.005271  3.918895  -0.003  -0.059766  -0.054053  -0.004049  3.890977  -0.002
C  C36  1  0.37275279  0.66751353  0.31535501  1  0.105037  -0.012261  3.630874  -0.008  0.063871  -0.002488  3.890291  -0.001  0.073389  -0.004168  3.907431  -0.003  0.054375  0.057777  -0.001213  3.879559  0.0
C  C37  1  0.62724438  0.33247659  0.81535288  1  0.104875  -0.012275  3.630942  -0.008  0.063715  -0.002488  3.890351  -0.001  0.073227  -0.004167  3.907505  -0.003  0.054397  0.057628  -0.001212  3.879597  0.0
C  C38  1  0.42106235  0.71117288  0.40600276  1  -0.045535  0.009232  3.794185  0.01  -0.023315  0.003548  4.025761  0.004  -0.030479  0.003286  4.049638  0.004  -0.001718  -0.018942  0.003736  4.009993  0.004
C  C39  1  0.57893233  0.28882251  0.90600065  1  -0.045271  0.009226  3.794126  0.01  -0.023077  0.003548  4.025784  0.004  -0.030206  0.003286  4.049624  0.004  -0.001714  -0.018705  0.003736  4.010008  0.004
C  C40  1  0.56807647  0.85066918  0.42739493  1  0.253229  0.000393  3.801709  0.0  0.232062  0.000663  4.080802  0.001  0.239559  0.00032  4.099933  0.0  0.218695  0.227216  0.001003  4.067488  0.001
C  C41  1  0.43191621  0.14932380  0.92739425  1  0.253316  0.000414  3.801613  0.0  0.232031  0.000662  4.080866  0.001  0.239496  0.000321  4.100042  0.0  0.218729  0.227185  0.001003  4.067543  0.001
C  C42  1  0.05507169  0.28004162  0.00761332  1  0.106114  -0.012809  3.65362  -0.009  0.06375  -0.003161  3.911483  -0.002  0.072671  -0.004773  3.929936  -0.003  0.053158  0.058103  -0.002002  3.899667  -0.001
C  C43  1  0.94492345  0.71996063  0.50761561  1  0.106059  -0.01279  3.653762  -0.009  0.063692  -0.003157  3.911661  -0.002  0.072613  -0.004776  3.930117  -0.003  0.053086  0.058051  -0.002001  3.899847  -0.001
C  C44  1  0.02992095  0.23696996  0.91546718  1  -0.04092  0.008643  3.789833  0.01  -0.016367  0.003117  4.020524  0.004  -0.022917  0.002846  4.044005  0.004  0.001758  -0.012569  0.003272  4.004713  0.004
C  C45  1  0.97007761  0.76303572  0.41547179  1  -0.040987  0.008646  3.790142  0.01  -0.016495  0.003114  4.020782  0.004  -0.023043  0.002846  4.044266  0.004  0.001702  -0.012708  0.003271  4.004996  0.004
C  C46  1  0.13791405  0.33474790  0.84966035  1  -0.009257  -0.01317  3.631414  -0.008  -0.041927  -0.004188  3.880391  -0.002  -0.036431  -0.004791  3.895337  -0.003  -0.053698  -0.045213  -0.003643  3.870214  -0.002
C  C47  1  0.86209146  0.66525692  0.34966224  1  -0.009261  -0.013201  3.631495  -0.008  -0.041908  -0.004187  3.880439  -0.002  -0.036413  -0.004791  3.895386  -0.003  -0.053669  -0.045182  -0.003642  3.870267  -0.002
C  C48  1  0.26677643  0.46908860  0.87886335  1  -0.10931  0.009603  3.724692  0.01  -0.119416  0.003551  3.975503  0.004  -0.127756  0.003261  3.997853  0.004  -0.079945  -0.113971  0.003739  3.960081  0.004
C  C49  1  0.73323188  0.53091258  0.37886260  1  -0.109164  0.009604  3.72487  0.01  -0.119268  0.003551  3.975672  0.004  -0.127605  0.00326  3.998025  0.004  -0.079874  -0.113825  0.003739  3.960253  0.004
C  C50  1  0.28364209  0.50478644  0.97174383  1  0.12496  -0.010786  3.659758  -0.007  0.092827  -0.001871  3.919262  -0.001  0.102232  -0.003457  3.937677  -0.002  0.051442  0.087009  -0.000755  3.90669  0.0
C  C51  1  0.71635903  0.49521428  0.47174177  1  0.124969  -0.010773  3.659779  -0.007  0.092828  -0.00187  3.919284  -0.001  0.102229  -0.003457  3.9377  -0.002  0.051428  0.087015  -0.000754  3.906705  0.0
C  C52  1  0.88699494  0.09700086  0.89092527  1  0.245094  2.2e-05  3.825714  0.0  0.219927  0.000435  4.10983  0.0  0.227344  0.00019  4.128657  0.0  0.215945  0.215294  0.000602  4.09674  0.001
C  C53  1  0.11301038  0.90300605  0.39093023  1  0.244861  1.1e-05  3.826026  0.0  0.219923  0.000434  4.109877  0.0  0.227334  0.000192  4.128714  0.0  0.215989  0.215293  0.000602  4.096791  0.001
C  C54  1  0.55471948  0.86013771  0.74989098  1  -0.232253  0.010268  3.623034  0.011  -0.289747  0.006301  3.874528  0.007  -0.292182  0.004332  3.879202  0.005  -0.049204  -0.288034  0.007776  3.871373  0.008
C  C55  1  0.44528454  0.13986539  0.24989890  1  -0.232205  0.010274  3.623069  0.011  -0.289781  0.006301  3.874536  0.007  -0.292232  0.004332  3.879235  0.005  -0.049176  -0.288068  0.007776  3.871382  0.008
C  C56  1  0.59499680  0.72026809  0.70714381  1  0.674554  -0.008842  3.882285  -0.009  0.624298  -0.002734  4.208017  -0.003  0.660596  -0.00324  4.200557  -0.003  0.208822  0.599848  -0.002085  4.21222  -0.003
C  C57  1  0.40501299  0.27973750  0.20714849  1  0.674481  -0.008852  3.882295  -0.009  0.62431  -0.002734  4.207924  -0.003  0.660609  -0.003238  4.200458  -0.003  0.208778  0.599864  -0.002084  4.212128  -0.003
C  C58  1  0.87342851  0.10594517  0.57307473  1  -0.211204  0.009494  3.579303  0.01  -0.268031  0.005491  3.828724  0.006  -0.27005  0.003822  3.8328  0.005  -0.044659  -0.26626  0.007222  3.826214  0.008
C  C59  1  0.12657481  0.89406009  0.07307495  1  -0.211163  0.009493  3.579382  0.01  -0.267996  0.005488  3.82885  0.006  -0.270009  0.003826  3.832931  0.005  -0.044617  -0.266233  0.007221  3.826345  0.008
C  C60  1  0.78804302  0.22731678  0.61029718  1  0.654456  -0.007927  3.905988  -0.008  0.610466  -0.002067  4.229357  -0.003  0.645788  -0.002556  4.224164  -0.003  0.200741  0.586695  -0.001311  4.231787  -0.003
C  C61  1  0.21194628  0.77268495  0.11029864  1  0.654473  -0.00793  3.90576  -0.008  0.610435  -0.002066  4.229187  -0.003  0.645758  -0.002555  4.22399  -0.003  0.200756  0.586669  -0.00131  4.231626  -0.003
N  N62  1  0.23982212  0.53747508  0.29556842  1  -0.297654  0.075121  3.349333  0.096  -0.245292  0.050221  3.645799  0.069  -0.276146  0.04113  3.668374  0.06  -0.34833  -0.226872  0.055573  3.632522  0.072
N  N63  1  0.76017059  0.46251750  0.79556554  1  -0.29762  0.075124  3.349408  0.096  -0.245209  0.050224  3.645838  0.069  -0.276076  0.041131  3.668421  0.06  -0.348321  -0.226784  0.055578  3.632544  0.072
N  N64  1  0.17764231  0.41118071  0.03465068  1  -0.293204  0.071768  3.3564  0.092  -0.242068  0.048568  3.65463  0.066  -0.271743  0.039842  3.676312  0.058  -0.34625  -0.224693  0.053104  3.642065  0.069
N  N65  1  0.82235215  0.58881909  0.53465169  1  -0.293213  0.071753  3.356304  0.092  -0.242043  0.048563  3.654537  0.066  -0.271721  0.03984  3.676211  0.058  -0.346267  -0.224666  0.053097  3.641968  0.069
N  N66  1  0.66460084  0.95520246  0.36513678  1  -0.272776  0.001774  2.946731  0.002  -0.2605  0.000607  3.243415  0.001  -0.26817  0.000447  3.25423  0.0  -0.201303  -0.254949  0.001142  3.235473  0.001
N  N67  1  0.33539572  0.04479545  0.86513617  1  -0.27277  0.001761  2.94682  0.002  -0.260455  0.000601  3.243519  0.001  -0.268117  0.000452  3.254348  0.0  -0.201283  -0.254904  0.001141  3.235569  0.001
N  N68  1  0.78774447  0.06071341  0.41181091  1  -0.113331  0.000763  2.840064  0.001  -0.112002  0.000668  3.13057  0.001  -0.109101  0.000418  3.140135  0.001  -0.077121  -0.113184  0.001094  3.123025  0.001
N  N69  1  0.21225152  0.93928540  0.91181019  1  -0.113316  0.000772  2.839963  0.001  -0.111978  0.000667  3.130433  0.001  -0.109077  0.000418  3.139997  0.001  -0.077105  -0.11316  0.001094  3.122886  0.001
N  N70  1  0.76418067  0.01699791  0.49971039  1  0.250693  0.00088  3.55693  0.001  0.30004  0.000545  3.835549  0.001  0.296834  0.000285  3.857908  0.0  -0.001354  0.301797  0.000834  3.82023  0.001
N  N71  1  0.23581933  0.98300267  0.99971029  1  0.25063  0.000879  3.556824  0.001  0.299985  0.000554  3.835428  0.001  0.296785  0.000275  3.857775  0.0  -0.001394  0.30174  0.000834  3.820109  0.001
N  N72  1  0.62911556  0.88874387  0.51300414  1  -0.277841  0.001184  2.81794  0.002  -0.26583  0.000644  3.08634  0.001  -0.272444  0.00054  3.100118  0.001  -0.182891  -0.261233  0.000817  3.077116  0.001
N  N73  1  0.37088006  0.11125604  0.01300375  1  -0.277826  0.001178  2.817771  0.002  -0.265786  0.000644  3.086217  0.001  -0.272394  0.000541  3.100006  0.001  -0.182877  -0.261193  0.000817  3.076993  0.001
N  N74  1  0.81617277  0.06727233  0.80649986  1  -0.286114  0.001051  2.817817  0.001  -0.272309  0.000358  3.084711  0.0  -0.279158  0.000332  3.09792  0.0  -0.18475  -0.267257  0.000353  3.075726  0.0
N  N75  1  0.18382811  0.93273509  0.30650490  1  -0.285943  0.001053  2.817758  0.001  -0.272211  0.00036  3.084585  0.0  -0.279057  0.000332  3.097795  0.0  -0.184662  -0.26716  0.000353  3.075604  0.0
N  N76  1  0.79973929  0.98589243  0.95191398  1  -0.258244  0.000731  2.930521  0.001  -0.245888  0.000116  3.224247  0.0  -0.25299  0.000135  3.233479  0.0  -0.193359  -0.241322  0.000141  3.218301  0.0
N  N77  1  0.20026167  0.01411186  0.45191827  1  -0.258183  0.000742  2.930463  0.001  -0.245908  0.000118  3.224141  0.0  -0.253007  0.000132  3.233376  0.0  -0.193421  -0.241339  0.000141  3.218188  0.0
N  N78  1  0.67128083  0.88475507  0.90580066  1  -0.088852  0.000275  2.816238  0.0  -0.087197  0.000215  3.098336  0.0  -0.083404  9.2e-05  3.107136  0.0  -0.069056  -0.090094  0.000283  3.093583  0.0
N  N79  1  0.32872157  0.11525062  0.40580632  1  -0.08874  0.000279  2.815922  0.0  -0.087084  0.000213  3.098042  0.0  -0.083293  9.4e-05  3.106842  0.0  -0.068942  -0.089982  0.000284  3.09329  0.0
N  N80  1  0.68402740  0.93670345  0.81949988  1  0.251552  -0.000264  3.552769  -0.001  0.301618  0.000106  3.829262  0.0  0.298896  8.5e-05  3.850124  0.0  -0.005775  0.303216  0.000183  3.815576  0.0
N  N81  1  0.31597445  0.06330273  0.31950566  1  0.251453  -0.000281  3.552436  -0.001  0.301527  0.000107  3.828992  0.0  0.29881  8.2e-05  3.849849  0.0  -0.00591  0.303125  0.000183  3.815311  0.0
O  O82  1  0.45976168  0.61188565  0.68145865  1  -0.610602  0.00039  1.945036  0.003  -0.565763  -0.000257  2.168083  0.002  -0.591781  -0.001278  2.157168  0.0  -0.30754  -0.547536  0.000673  2.174975  0.003
O  O83  1  0.54024233  0.38811899  0.18146060  1  -0.610621  0.000393  1.945071  0.003  -0.565779  -0.000257  2.168057  0.002  -0.591791  -0.001278  2.157134  0.0  -0.30755  -0.547554  0.000672  2.174953  0.003
O  O84  1  0.76308008  0.72628971  0.70205407  1  -0.589466  0.08753  2.051227  0.118  -0.565931  0.058819  2.336315  0.087  -0.608136  0.045091  2.331195  0.072  -0.321199  -0.538022  0.067839  2.340231  0.095
O  O85  1  0.23692797  0.27371131  0.20205290  1  -0.589358  0.087544  2.051297  0.118  -0.565882  0.05882  2.33633  0.087  -0.608084  0.045089  2.33123  0.072  -0.321134  -0.537972  0.067839  2.340244  0.095
O  O86  1  0.61929049  0.19593363  0.61509391  1  -0.593933  -0.000827  1.900199  0.001  -0.565057  -0.001227  2.126961  0.0  -0.588534  -0.002053  2.116866  -0.001  -0.322559  -0.548523  -0.000404  2.133226  0.001
O  O87  1  0.38071140  0.80406679  0.11509567  1  -0.593992  -0.000816  1.899768  0.001  -0.565102  -0.001225  2.126551  0.0  -0.588579  -0.002056  2.116455  -0.001  -0.322645  -0.548562  -0.000403  2.132818  0.001
O  O88  1  0.90871122  0.35412535  0.63341610  1  -0.593056  0.098602  2.021648  0.134  -0.570988  0.062065  2.301757  0.092  -0.614755  0.047012  2.29607  0.076  -0.326804  -0.541872  0.071849  2.305425  0.101
O  O89  1  0.09129600  0.64587146  0.13341422  1  -0.593081  0.098575  2.021799  0.134  -0.570944  0.06205  2.301901  0.092  -0.614695  0.047003  2.296214  0.076  -0.326755  -0.54183  0.07183  2.305572  0.101
O  O90  1  0.12969060  0.67495091  0.69626100  1  -0.818285  -0.001721  1.838877  0.0  -0.780751  -0.001638  2.013618  0.0  -0.799594  -0.00178  1.981404  -0.001  -0.58368  -0.767644  -0.001449  2.03606  0.0
O  O91  1  0.87031183  0.32504559  0.19625978  1  -0.81822  -0.001723  1.838877  0.0  -0.780747  -0.001638  2.01359  0.0  -0.799577  -0.00178  1.981368  -0.001  -0.583682  -0.767644  -0.00145  2.036031  0.0
