# generated using pymatgen
data_Mn3H38C54N4O17
_symmetry_space_group_name_H-M   'P 1'
_cell_length_a   11.61332500
_cell_length_b   11.61349937
_cell_length_c   23.22590935
_cell_angle_alpha   97.06511118
_cell_angle_beta   97.06497769
_cell_angle_gamma   114.41713022
_symmetry_Int_Tables_number   1
_chemical_formula_structural   Mn3H38C54N4O17
_chemical_formula_sum   'Mn6 H76 C108 N8 O34'
_cell_volume   2777.80753881
_cell_formula_units_Z   2
loop_
 _symmetry_equiv_pos_site_id
 _symmetry_equiv_pos_as_xyz
  1  'x, y, z'
loop_
 _atom_site_type_symbol
 _atom_site_label
 _atom_site_symmetry_multiplicity
 _atom_site_fract_x
 _atom_site_fract_y
 _atom_site_fract_z
 _atom_site_occupancy
 _atom_site_pbe_bader_charge
 _atom_site_pbe_bader_spin_density
 _atom_site_pbe_cm5_charge
 _atom_site_pbe_ddec_charge
 _atom_site_pbe_ddec_spin_density
 _atom_site_pbe_ddec_sum_bond_order
 _atom_site_pbe_magmom
Mn  Mn0  1  0.00526633  0.05593168  0.06933629  1  1.488792  4.565989  0.598525  0.953326  4.682663  2.302217  4.478
Mn  Mn1  1  0.05594340  0.00528076  0.56934531  1  1.488897  4.566  0.598546  0.953294  4.682688  2.302168  4.478
Mn  Mn2  1  0.43741382  0.12289862  0.96470833  1  1.491105  4.586128  0.596822  0.967294  4.704068  2.229813  4.492
Mn  Mn3  1  0.12289530  0.43741940  0.46470769  1  1.490899  4.586194  0.596815  0.967329  4.704083  2.229759  4.492
Mn  Mn4  1  0.71641594  0.07935538  0.02206996  1  1.574786  4.519187  0.617262  1.095688  4.650071  2.352344  4.462
Mn  Mn5  1  0.07935620  0.71643515  0.52207628  1  1.574754  4.51925  0.617325  1.09578  4.649966  2.352195  4.462
H  H6  1  0.16792291  0.06827262  0.93974852  1  0.656026  0.002088  0.294186  0.388278  0.001067  0.954257  0.003
H  H7  1  0.06826755  0.16792203  0.43974763  1  0.656039  0.002087  0.294187  0.388253  0.001066  0.954291  0.003
H  H8  1  0.20762085  0.97123825  0.90036822  1  0.632476  0.001847  0.328782  0.413595  0.0007  0.867932  0.001
H  H9  1  0.97122192  0.20759741  0.40036449  1  0.632315  0.001846  0.328765  0.413482  0.000699  0.868058  0.001
H  H10  1  0.27295431  0.11352139  0.09383803  1  0.640611  0.002021  0.292544  0.382552  0.001004  0.962386  0.002
H  H11  1  0.11352940  0.27295980  0.59383316  1  0.640514  0.002022  0.292515  0.382521  0.001004  0.962427  0.002
H  H12  1  0.23416815  0.21891056  0.12579992  1  0.638003  0.001604  0.323749  0.404212  0.000602  0.882963  0.001
H  H13  1  0.21891811  0.23417545  0.62580188  1  0.637932  0.001605  0.323836  0.404389  0.000602  0.882788  0.001
H  H14  1  0.71191244  0.99461240  0.89344502  1  0.097435  0.000691  0.107261  0.099776  0.000309  1.050534  0.0
H  H15  1  0.99458786  0.71189281  0.39344323  1  0.097314  0.000691  0.107298  0.099773  0.000307  1.050399  0.0
H  H16  1  0.64272713  0.01644631  0.79175265  1  0.073728  8.2e-05  0.106516  0.123593  -6e-06  1.011806  0.0
H  H17  1  0.01644766  0.64272995  0.29175114  1  0.073891  8.2e-05  0.106592  0.123675  -6e-06  1.011962  0.0
H  H18  1  0.03999569  0.19061833  0.77207729  1  0.094858  0.000101  0.115204  0.135295  8e-06  0.972717  0.0
H  H19  1  0.19062893  0.04000083  0.27207915  1  0.094897  0.000101  0.11517  0.135296  8e-06  0.972695  0.0
H  H20  1  0.10868359  0.16973695  0.87468705  1  0.106179  0.000558  0.10459  0.103901  -4.7e-05  1.022567  0.0
H  H21  1  0.16973076  0.10867229  0.37468661  1  0.106198  0.000557  0.104566  0.103822  -4.7e-05  1.022669  0.0
H  H22  1  0.19549299  0.91049049  0.05254771  1  0.172202  0.000687  0.136522  0.106263  8.8e-05  1.069839  0.0
H  H23  1  0.91049358  0.19550096  0.55254486  1  0.172135  0.000688  0.136506  0.106347  8.8e-05  1.069788  0.0
H  H24  1  0.68835111  0.27187113  0.72711655  1  0.086314  8.3e-05  0.104735  0.118776  1.9e-05  1.022118  0.0
H  H25  1  0.27188428  0.68833543  0.22712262  1  0.086164  8.3e-05  0.104747  0.118796  1.9e-05  1.022188  0.0
H  H26  1  0.45862496  0.20506879  0.67815199  1  0.0797  0.000332  0.104463  0.103425  -4.1e-05  1.007222  0.0
H  H27  1  0.20506825  0.45860641  0.17815219  1  0.079565  0.000332  0.104422  0.103375  -4e-05  1.007239  0.0
H  H28  1  0.41903987  0.82537611  0.61387379  1  0.070157  0.000213  0.109644  0.114242  -0.000362  0.999932  0.0
H  H29  1  0.82537716  0.41903858  0.11387058  1  0.070173  0.000213  0.109641  0.114202  -0.000362  0.99996  0.0
H  H30  1  0.65072921  0.89288924  0.66057667  1  0.099462  9e-05  0.106293  0.123047  9e-06  1.018009  0.0
H  H31  1  0.89290861  0.65073034  0.16057656  1  0.099062  9e-05  0.106325  0.123141  9e-06  1.017949  0.0
H  H32  1  0.50881609  0.77511637  0.11315844  1  0.099225  0.000245  0.100992  0.10248  -0.000115  1.026852  0.0
H  H33  1  0.77512227  0.50883276  0.61316015  1  0.09924  0.000245  0.100982  0.102369  -0.000115  1.026874  0.0
H  H34  1  0.41494945  0.59569016  0.16792095  1  0.062209  0.000105  0.10284  0.118848  4.1e-05  1.013012  0.0
H  H35  1  0.59570168  0.41495918  0.66792266  1  0.062354  0.000105  0.102803  0.118798  4.1e-05  1.012766  0.0
H  H36  1  0.79680775  0.69310248  0.26272630  1  0.094251  8.9e-05  0.098098  0.110467  2.2e-05  1.055134  0.0
H  H37  1  0.69311151  0.79679647  0.76273983  1  0.094339  8.9e-05  0.098154  0.110472  2.2e-05  1.055232  0.0
H  H38  1  0.88790980  0.86823798  0.20640152  1  0.113007  0.000289  0.104228  0.10727  -0.0002  1.015506  0.0
H  H39  1  0.86823755  0.88791558  0.70641283  1  0.112953  0.00029  0.104279  0.107325  -0.0002  1.015676  0.0
H  H40  1  0.49789754  0.09127937  0.37731266  1  0.058737  9.2e-05  0.110965  0.131323  3.3e-05  0.977463  0.0
H  H41  1  0.09127816  0.49787766  0.87730299  1  0.058889  9.2e-05  0.110874  0.131206  3.3e-05  0.9775  0.0
H  H42  1  0.53120372  0.75857147  0.29366643  1  0.083895  8.8e-05  0.102433  0.114625  4.1e-05  1.042664  0.0
H  H43  1  0.75857140  0.53120218  0.79366590  1  0.074971  8.8e-05  0.102426  0.11465  4.1e-05  1.042647  0.0
H  H44  1  0.37127035  0.92612234  0.24659141  1  0.09097  6.1e-05  0.099283  0.108777  1.9e-05  1.062404  0.0
H  H45  1  0.92612306  0.37126911  0.74658890  1  0.091035  6.1e-05  0.099302  0.108793  1.9e-05  1.062442  0.0
H  H46  1  0.31451074  0.96898473  0.14868629  1  0.112594  0.000329  0.103703  0.102087  -0.000132  1.023146  0.0
H  H47  1  0.96898104  0.31450070  0.64868290  1  0.112635  0.000329  0.103733  0.102109  -0.000132  1.023023  0.0
H  H48  1  0.71794097  0.18484107  0.14608508  1  0.14799  0.000671  0.109204  0.113733  -0.000105  1.058022  0.0
H  H49  1  0.18483503  0.71793728  0.64608352  1  0.148068  0.000672  0.109206  0.113776  -0.000105  1.058011  0.0
H  H50  1  0.77515867  0.13851612  0.24469576  1  0.091444  8.9e-05  0.113504  0.130188  -2.5e-05  0.972317  0.0
H  H51  1  0.13851681  0.77514723  0.74469726  1  0.091551  8.9e-05  0.113511  0.130208  -2.5e-05  0.972365  0.0
H  H52  1  0.33504094  0.95131480  0.43116027  1  0.109253  0.000229  0.102794  0.103343  -0.000214  1.033723  0.0
H  H53  1  0.95130550  0.33502388  0.93115101  1  0.108664  0.00023  0.102775  0.10341  -0.000214  1.033761  0.0
H  H54  1  0.36803016  0.61843175  0.34835304  1  0.111755  0.000264  0.108846  0.114862  -0.000155  0.991272  0.0
H  H55  1  0.61842032  0.36803632  0.84835399  1  0.11155  0.000264  0.10885  0.114886  -0.000155  0.991254  0.0
H  H56  1  0.79991306  0.33795073  0.30403891  1  0.101761  0.000285  0.104303  0.104339  -7.4e-05  1.018731  0.0
H  H57  1  0.33796469  0.79993126  0.80403457  1  0.101802  0.000285  0.104308  0.104316  -7.4e-05  1.018885  0.0
H  H58  1  0.64887733  0.36775764  0.22665029  1  0.103245  0.000111  0.106685  0.123876  1.8e-05  1.002858  0.0
H  H59  1  0.36776558  0.64888287  0.72665157  1  0.103654  0.000111  0.106647  0.123819  1.8e-05  1.00284  0.0
H  H60  1  0.61071416  0.64238195  0.35609260  1  0.078598  2.8e-05  0.105273  0.118945  -2.2e-05  1.017933  0.0
H  H61  1  0.64239161  0.61073314  0.85609791  1  0.078416  2.8e-05  0.105273  0.118928  -2.2e-05  1.017954  0.0
H  H62  1  0.76497027  0.61492402  0.43245423  1  0.10692  8.9e-05  0.105886  0.105121  -0.000495  1.017711  0.0
H  H63  1  0.61492570  0.76498908  0.93245665  1  0.10687  8.9e-05  0.105912  0.105195  -0.000495  1.017807  0.0
H  H64  1  0.65516761  0.43460317  0.01817329  1  0.078258  0.000737  0.121234  0.115441  0.00023  1.004177  0.0
H  H65  1  0.43459693  0.65516568  0.51816765  1  0.078209  0.000738  0.1213  0.115549  0.000231  1.003951  0.0
H  H66  1  0.58300615  0.63438846  0.03932314  1  0.152947  0.000713  0.124  0.12421  0.000358  1.03722  0.0
H  H67  1  0.63439195  0.58301157  0.53932296  1  0.152944  0.000713  0.123977  0.124163  0.000358  1.037111  0.0
H  H68  1  0.24951089  0.27907546  0.98117777  1  0.167593  0.000636  0.136887  0.108095  2e-06  1.050672  0.0
H  H69  1  0.27908172  0.24951579  0.48117043  1  0.167648  0.000635  0.136848  0.107926  2e-06  1.050838  0.0
H  H70  1  0.45004226  0.72247053  0.99841254  1  0.105274  0.000348  0.111928  0.125524  -0.000269  1.024731  0.0
H  H71  1  0.72247715  0.45004179  0.49840381  1  0.104061  0.000349  0.111905  0.125508  -0.000269  1.024649  0.0
H  H72  1  0.30134307  0.82300260  0.99869255  1  0.110517  0.000341  0.11332  0.122409  8.7e-05  1.023515  0.0
H  H73  1  0.82300562  0.30133685  0.49869207  1  0.110732  0.000341  0.113311  0.122432  8.7e-05  1.023472  0.0
H  H74  1  0.00568247  0.47531982  0.03147880  1  0.119001  0.000193  0.111199  0.119095  -3.1e-05  1.013809  0.0
H  H75  1  0.47532069  0.00569281  0.53148998  1  0.118975  0.000193  0.111184  0.119053  -3.1e-05  1.013917  0.0
H  H76  1  0.15373670  0.37327210  0.03179196  1  0.14222  0.000168  0.110788  0.1226  -0.000387  1.035194  0.0
H  H77  1  0.37327165  0.15375080  0.53179922  1  0.142114  0.000168  0.110777  0.122573  -0.000387  1.035154  0.0
H  H78  1  0.87190190  0.55440161  0.97983498  1  0.112036  0.000686  0.119338  0.118162  0.000391  1.050043  0.0
H  H79  1  0.55439212  0.87191069  0.47984752  1  0.111554  0.000685  0.119376  0.118109  0.000391  1.049912  0.0
H  H80  1  0.79030195  0.74654269  0.00497862  1  0.094886  0.000629  0.120954  0.114608  0.000164  1.008433  0.0
H  H81  1  0.74653462  0.79031044  0.50498579  1  0.09477  0.000629  0.12093  0.114509  0.000164  1.008614  0.0
C  C82  1  0.95357635  0.07506478  0.95353876  1  1.509262  0.018031  0.219978  0.584841  0.017557  4.148332  0.015
C  C83  1  0.07506936  0.95357703  0.45353627  1  1.509193  0.018028  0.219976  0.584828  0.017554  4.148261  0.015
C  C84  1  0.91426414  0.08145283  0.89141016  1  -0.060333  -0.000273  -0.033507  -0.085801  -0.001422  4.019013  -0.001
C  C85  1  0.08145385  0.91426003  0.39140799  1  -0.06055  -0.000272  -0.033464  -0.085825  -0.001421  4.018979  -0.001
C  C86  1  0.78356662  0.03736953  0.86684758  1  -0.012609  0.004106  -0.074948  -0.044534  0.002826  3.966161  0.003
C  C87  1  0.03737274  0.78356809  0.36685353  1  -0.012514  0.004105  -0.075025  -0.044489  0.002825  3.965922  0.003
C  C88  1  0.74458024  0.04921025  0.80974096  1  0.028296  -0.000656  -0.105932  -0.220321  -0.000731  3.985965  -0.001
C  C89  1  0.04921628  0.74456794  0.30974407  1  0.028195  -0.000655  -0.105999  -0.220433  -0.000731  3.98592  -0.001
C  C90  1  0.83838354  0.10591726  0.77631026  1  0.387022  0.003513  0.095947  0.278025  0.002887  4.027231  0.002
C  C91  1  0.10592093  0.83837149  0.27631415  1  0.386945  0.003512  0.09603  0.278075  0.002885  4.027016  0.002
C  C92  1  0.96952081  0.14810839  0.79942915  1  -0.023144  -0.000437  -0.099022  -0.201884  -0.000478  3.98188  0.0
C  C93  1  0.14810882  0.96951074  0.29942659  1  -0.023214  -0.000436  -0.099061  -0.202016  -0.000477  3.981878  0.0
C  C94  1  0.00669018  0.13600090  0.85661453  1  -0.01437  0.004735  -0.080882  -0.066462  0.003575  3.989576  0.003
C  C95  1  0.13599926  0.00668504  0.35660992  1  -0.014278  0.004733  -0.080841  -0.066266  0.003573  3.989469  0.003
C  C96  1  0.68021470  0.08567244  0.69560846  1  0.372314  0.004831  0.083915  0.254001  0.003968  4.035922  0.003
C  C97  1  0.08569226  0.68021824  0.19561665  1  0.372321  0.004828  0.083822  0.253872  0.003965  4.037134  0.003
C  C98  1  0.09532092  0.84145715  0.03745898  1  0.963001  0.0114  0.149201  0.10505  0.009575  3.872648  0.009
C  C99  1  0.84146226  0.09532368  0.53745678  1  0.962882  0.011391  0.149136  0.10477  0.009568  3.872879  0.008
C  C100  1  0.62870889  0.17484358  0.70173611  1  -0.005999  -0.000911  -0.095225  -0.188025  -0.000945  3.974191  -0.001
C  C101  1  0.17484889  0.62869312  0.20174004  1  -0.006289  -0.00091  -0.095186  -0.187888  -0.000944  3.97436  -0.001
C  C102  1  0.50134858  0.13733794  0.67499995  1  -0.008887  0.005213  -0.08074  -0.071253  0.00389  3.98739  0.003
C  C103  1  0.13733816  0.50133217  0.17499957  1  -0.00838  0.00521  -0.080692  -0.071293  0.003888  3.987322  0.003
C  C104  1  0.42594829  0.01157013  0.64330245  1  -0.048556  0.002041  -0.022297  -0.057703  0.000908  3.991057  0.001
C  C105  1  0.01157108  0.42593710  0.14330291  1  -0.04877  0.002042  -0.02233  -0.05763  0.00091  3.991105  0.001
C  C106  1  0.47914000  0.92281763  0.63878351  1  -0.015415  0.005088  -0.081193  -0.076779  0.003686  3.975374  0.003
C  C107  1  0.92282197  0.47913384  0.13878362  1  -0.015398  0.005088  -0.08119  -0.076635  0.003686  3.974715  0.003
C  C108  1  0.60707794  0.95978118  0.66437556  1  -0.012618  -0.000932  -0.096402  -0.192861  -0.00097  3.985711  -0.001
C  C109  1  0.95980340  0.60708592  0.16438366  1  -0.011755  -0.000932  -0.096504  -0.19316  -0.00097  3.985971  -0.001
C  C110  1  0.29195814  0.97215451  0.61082963  1  1.574482  0.020374  0.227977  0.599849  0.019719  4.165121  0.017
C  C111  1  0.97214894  0.29195154  0.11083277  1  1.574336  0.020367  0.227882  0.599388  0.019714  4.165509  0.017
C  C112  1  0.76340283  0.92463684  0.11669315  1  1.533912  0.021907  0.217669  0.58512  0.022008  4.204991  0.019
C  C113  1  0.92464835  0.76340825  0.61669119  1  1.534367  0.021909  0.217553  0.584836  0.022013  4.204967  0.019
C  C114  1  0.70484440  0.82980537  0.15480405  1  -0.022335  0.002293  -0.032774  -0.078237  0.00112  4.011275  0.001
C  C115  1  0.82980161  0.70485068  0.65480946  1  -0.022937  0.002297  -0.032633  -0.077826  0.001123  4.01079  0.001
C  C116  1  0.57103129  0.75507699  0.14543914  1  -0.00828  0.004537  -0.08517  -0.07084  0.0033  4.004046  0.003
C  C117  1  0.75508037  0.57104513  0.64544406  1  -0.008165  0.004534  -0.085268  -0.070854  0.003298  4.00418  0.003
C  C118  1  0.51852375  0.65582160  0.17601908  1  -0.027814  -0.000743  -0.108793  -0.214626  -0.000763  3.999095  -0.001
C  C119  1  0.65582778  0.51853848  0.67602254  1  -0.027926  -0.000742  -0.10868  -0.214532  -0.000763  3.99933  -0.001
C  C120  1  0.60028428  0.63119172  0.21720097  1  0.356513  0.004289  0.084597  0.264721  0.003507  4.049893  0.003
C  C121  1  0.63120878  0.60029735  0.71720508  1  0.356535  0.004287  0.084621  0.264854  0.003505  4.049677  0.003
C  C122  1  0.73333671  0.70957493  0.22961022  1  0.001247  -0.000824  -0.113437  -0.228799  -0.000811  4.01165  -0.001
C  C123  1  0.70959489  0.73335178  0.72962070  1  0.001093  -0.000823  -0.113506  -0.228685  -0.000811  4.011894  -0.001
C  C124  1  0.78433863  0.80780358  0.19817255  1  -0.065843  0.005122  -0.08112  -0.058255  0.003695  3.980902  0.003
C  C125  1  0.80781510  0.78435122  0.69817976  1  -0.065619  0.005119  -0.081266  -0.058657  0.003692  3.981272  0.003
C  C126  1  0.62315130  0.50726570  0.28744473  1  0.440379  0.00539  0.082397  0.257782  0.00446  4.038446  0.004
C  C127  1  0.50727477  0.62317808  0.78745405  1  0.441384  0.005388  0.082391  0.257481  0.004458  4.038289  0.004
C  C128  1  0.46912044  0.98793087  0.37147473  1  0.001412  -0.000762  -0.096378  -0.196299  -0.000788  3.989581  -0.001
C  C129  1  0.98792653  0.46909889  0.87146043  1  0.002579  -0.000764  -0.096291  -0.196097  -0.00079  3.989229  -0.001
C  C130  1  0.52323073  0.93100909  0.33364401  1  0.349307  0.004161  0.084042  0.259249  0.003425  4.046816  0.003
C  C131  1  0.93100687  0.52321657  0.83363684  1  0.348819  0.004164  0.08417  0.259528  0.003428  4.046949  0.003
C  C132  1  0.48792414  0.79879568  0.32454140  1  -0.002604  -0.000836  -0.101443  -0.202084  -0.000858  3.99454  -0.001
C  C133  1  0.79879151  0.48790921  0.82453588  1  0.006427  -0.000838  -0.101456  -0.202207  -0.00086  3.994551  -0.001
C  C134  1  0.57723018  0.02998677  0.25132491  1  0.384311  0.003701  0.094856  0.282935  0.003014  4.034564  0.002
C  C135  1  0.02998112  0.57721941  0.75132211  1  0.384091  0.003699  0.095074  0.283296  0.003013  4.034802  0.002
C  C136  1  0.44732713  0.98256029  0.22470035  1  -0.033567  -0.000418  -0.112626  -0.229609  -0.000425  4.009923  0.0
C  C137  1  0.98256081  0.44732184  0.72469502  1  -0.034103  -0.000417  -0.112694  -0.229685  -0.000424  4.010007  0.0
C  C138  1  0.41577399  0.00728149  0.16927532  1  -0.039847  0.00499  -0.081658  -0.059643  0.003637  3.983882  0.003
C  C139  1  0.00727866  0.41577034  0.66926910  1  -0.039443  0.004987  -0.081631  -0.059581  0.003636  3.983712  0.003
C  C140  1  0.51243551  0.07945577  0.14012024  1  0.026959  -0.001037  -0.034603  -0.085339  -0.002183  4.027157  -0.002
C  C141  1  0.07945348  0.51242923  0.64011564  1  0.026685  -0.001035  -0.034563  -0.085362  -0.002181  4.027288  -0.002
C  C142  1  0.64222547  0.12861298  0.16831462  1  -0.085189  0.003892  -0.078114  -0.062416  0.002773  3.968543  0.002
C  C143  1  0.12861433  0.64222701  0.66831421  1  -0.084898  0.003891  -0.078167  -0.062562  0.002772  3.968388  0.002
C  C144  1  0.67482713  0.10391681  0.22330039  1  0.00482  -0.000702  -0.097154  -0.197945  -0.000843  3.986043  -0.001
C  C145  1  0.10392276  0.67481833  0.72330229  1  0.004549  -0.0007  -0.09724  -0.198078  -0.000841  3.986047  -0.001
C  C146  1  0.48048589  0.09885224  0.07969916  1  1.487666  0.019335  0.218719  0.577199  0.019485  4.158463  0.016
C  C147  1  0.09884362  0.48047707  0.57969571  1  1.487416  0.019324  0.218669  0.577138  0.019472  4.159097  0.016
C  C148  1  0.25038029  0.69884504  0.42848093  1  1.560864  0.01999  0.218993  0.585832  0.019753  4.204434  0.018
C  C149  1  0.69884777  0.25038080  0.92847874  1  1.548504  0.020026  0.21893  0.585641  0.019767  4.204458  0.018
C  C150  1  0.37924022  0.91038997  0.40128547  1  0.011292  0.004613  -0.08406  -0.077432  0.003365  4.009463  0.003
C  C151  1  0.91038170  0.37922319  0.90127722  1  0.011057  0.004618  -0.084079  -0.077785  0.00337  4.009253  0.003
C  C152  1  0.34373198  0.77785480  0.39370266  1  -0.085529  0.002021  -0.025796  -0.065083  0.000862  3.99719  0.001
C  C153  1  0.77784491  0.34371465  0.89369483  1  -0.073782  0.001999  -0.025708  -0.064752  0.00086  3.997153  0.001
C  C154  1  0.39775378  0.72203477  0.35466808  1  -0.020843  0.004616  -0.081382  -0.077803  0.003339  3.981601  0.003
C  C155  1  0.72202317  0.39774520  0.85466335  1  -0.020576  0.00462  -0.081396  -0.077869  0.003343  3.981581  0.003
C  C156  1  0.89184967  0.47028997  0.41832847  1  1.561705  0.026541  0.216557  0.582502  0.02624  4.203102  0.022
C  C157  1  0.47028632  0.89186539  0.91833540  1  1.562306  0.026546  0.216684  0.582599  0.026251  4.203162  0.022
C  C158  1  0.79166061  0.47490621  0.37279562  1  -0.039453  0.000852  -0.023277  -0.060181  -0.000468  3.986817  0.0
C  C159  1  0.47491559  0.79167862  0.87279345  1  -0.039585  0.000859  -0.023299  -0.060129  -0.000464  3.986757  0.0
C  C160  1  0.75760516  0.40383303  0.31510187  1  -0.034946  0.006038  -0.078215  -0.062941  0.004509  3.963278  0.004
C  C161  1  0.40384343  0.75762911  0.81510143  1  -0.035681  0.006036  -0.078139  -0.062869  0.004507  3.963303  0.004
C  C162  1  0.67367125  0.42026400  0.27203607  1  -0.041769  -0.001301  -0.094847  -0.189346  -0.001346  3.971918  -0.001
C  C163  1  0.42026033  0.67368236  0.77203912  1  -0.041719  -0.001299  -0.09483  -0.18912  -0.001344  3.971704  -0.001
C  C164  1  0.65177593  0.57526565  0.34523463  1  -0.014366  -0.001251  -0.097784  -0.192447  -0.001282  3.985356  -0.001
C  C165  1  0.57527911  0.65179522  0.84524373  1  -0.014445  -0.001249  -0.097837  -0.192279  -0.00128  3.985519  -0.001
C  C166  1  0.73659465  0.55920571  0.38757366  1  -0.077305  0.005258  -0.081442  -0.07405  0.003696  3.991333  0.003
C  C167  1  0.55921332  0.73661701  0.88757623  1  -0.077899  0.005254  -0.081476  -0.074271  0.003693  3.991793  0.003
C  C168  1  0.56002724  0.43210426  0.01274901  1  0.374806  0.004389  0.002362  -0.026902  0.002743  3.997654  0.003
C  C169  1  0.43209713  0.56002090  0.51274296  1  0.374803  0.004389  0.002332  -0.026921  0.002742  3.997952  0.003
C  C170  1  0.52645545  0.53207607  0.02282000  1  0.363767  0.001367  -0.000359  -0.109876  0.000939  3.924304  0.001
C  C171  1  0.53207076  0.52646309  0.52281604  1  0.363897  0.001366  -0.000386  -0.10998  0.000939  3.924373  0.001
C  C172  1  0.35075855  0.34662204  0.99359088  1  0.964272  0.009643  0.148477  0.103546  0.007928  3.872277  0.007
C  C173  1  0.34662767  0.35075441  0.49358257  1  0.964016  0.009648  0.148453  0.10385  0.007931  3.871846  0.007
C  C174  1  0.31066140  0.53936065  0.01333605  1  0.321451  0.001086  0.094008  0.1589  0.000996  4.015648  0.001
C  C175  1  0.53936224  0.31066002  0.51332874  1  0.321581  0.001086  0.094115  0.158904  0.000996  4.015664  0.001
C  C176  1  0.35296784  0.66704907  0.00561648  1  -0.042538  0.00064  -0.083936  -0.146494  0.000414  3.962412  0.0
C  C177  1  0.66705012  0.35296761  0.50561945  1  -0.041102  0.000639  -0.083889  -0.146232  0.000413  3.962832  0.0
C  C178  1  0.26903305  0.72471915  0.00624103  1  0.00695  0.000918  -0.08282  -0.143017  0.000489  3.947672  0.0
C  C179  1  0.72471269  0.26904093  0.50624346  1  0.00636  0.000919  -0.082799  -0.143198  0.000489  3.948007  0.0
C  C180  1  0.14345591  0.65491549  0.01478181  1  0.276611  0.000922  0.093895  0.157113  0.000825  4.020257  0.001
C  C181  1  0.65491722  0.14345555  0.51478634  1  0.276856  0.000921  0.093905  0.15714  0.000824  4.020015  0.001
C  C182  1  0.10224052  0.52832025  0.02334256  1  -0.029213  0.000628  -0.082524  -0.137822  0.000507  3.992896  0.0
C  C183  1  0.52831013  0.10224393  0.52334412  1  -0.02917  0.000628  -0.082612  -0.137901  0.000508  3.992553  0.0
C  C184  1  0.18568754  0.47047876  0.02281540  1  -0.025213  0.00063  -0.087564  -0.155859  0.000379  3.964498  0.0
C  C185  1  0.47047101  0.18569482  0.52281919  1  -0.02515  0.000629  -0.087506  -0.155781  0.000379  3.963898  0.0
C  C186  1  0.92470643  0.65545028  0.00001801  1  0.288938  0.00166  -0.001016  -0.109162  0.00113  3.922067  0.001
C  C187  1  0.65543690  0.92472424  0.50002951  1  0.289981  0.00166  -0.001072  -0.109049  0.001129  3.921875  0.001
C  C188  1  0.88641712  0.75151541  0.01212990  1  0.457584  0.005133  0.003015  -0.026519  0.003266  3.990846  0.004
C  C189  1  0.75150856  0.88642610  0.51213769  1  0.457539  0.005128  0.00313  -0.026431  0.003262  3.990519  0.004
N  N190  1  0.44968342  0.31712244  0.99428985  1  -1.247548  0.049575  -0.338939  -0.293636  0.032594  3.506267  0.014
N  N191  1  0.31712539  0.44969282  0.49428231  1  -1.247417  0.049561  -0.338951  -0.293849  0.032589  3.505974  0.014
N  N192  1  0.39267326  0.47654181  0.01066688  1  -1.274448  0.004018  -0.222737  0.014369  0.002406  3.790928  0.002
N  N193  1  0.47654590  0.39267332  0.51066166  1  -1.27461  0.004019  -0.222766  0.014366  0.002405  3.790895  0.002
N  N194  1  0.05822643  0.71411264  0.01624196  1  -1.282466  0.004271  -0.222564  0.014729  0.002461  3.796614  0.002
N  N195  1  0.71410273  0.05822695  0.51625089  1  -1.282719  0.004268  -0.22254  0.014819  0.002459  3.796861  0.002
N  N196  1  0.99366976  0.86681787  0.03565632  1  -1.239331  0.04918  -0.343949  -0.295371  0.031407  3.521188  0.01
N  N197  1  0.86680969  0.99367476  0.53566250  1  -1.239346  0.049172  -0.343943  -0.29524  0.031404  3.521238  0.01
O  O198  1  0.88609297  0.98909936  0.12861212  1  -1.190847  0.08069  -0.320967  -0.56256  0.055133  2.313956  0.037
O  O199  1  0.98908761  0.88609886  0.62861146  1  -1.19094  0.080712  -0.320945  -0.562472  0.055138  2.314102  0.037
O  O200  1  0.68894060  0.93140696  0.07342034  1  -1.203423  0.065971  -0.312222  -0.575951  0.047683  2.30782  0.032
O  O201  1  0.93139988  0.68894032  0.57341687  1  -1.203496  0.06597  -0.312147  -0.575813  0.047678  2.307871  0.032
O  O202  1  0.54239671  0.52758697  0.24412932  1  -1.092671  0.002271  -0.16544  -0.231954  0.001512  2.514842  0.001
O  O203  1  0.52757858  0.54238739  0.74413411  1  -1.092724  0.002269  -0.165497  -0.232098  0.001511  2.513637  0.001
O  O204  1  0.36378180  0.07023585  0.05569293  1  -1.212014  0.049658  -0.304407  -0.578342  0.035882  2.281715  0.027
O  O205  1  0.07024849  0.36378442  0.55569476  1  -1.21208  0.049647  -0.30431  -0.578204  0.035872  2.282209  0.027
O  O206  1  0.56926636  0.14272951  0.04930253  1  -1.220911  0.091973  -0.294706  -0.570133  0.068122  2.392129  0.039
O  O207  1  0.14269384  0.56924362  0.54929069  1  -1.220538  0.091973  -0.294719  -0.570116  0.06814  2.392334  0.039
O  O208  1  0.61745436  0.00790308  0.30529863  1  -1.099302  0.001963  -0.15715  -0.221982  0.001293  2.532876  0.001
O  O209  1  0.00790702  0.61743749  0.80529524  1  -1.098871  0.001963  -0.157379  -0.222313  0.001293  2.53339  0.001
O  O210  1  0.22575072  0.76046396  0.47068927  1  -1.199915  0.061274  -0.310259  -0.574743  0.043853  2.343538  0.027
O  O211  1  0.76046852  0.22575170  0.97068842  1  -1.200201  0.061299  -0.310244  -0.574727  0.043862  2.343582  0.027
O  O212  1  0.20427775  0.57660358  0.41402741  1  -1.185973  0.074397  -0.314296  -0.556622  0.050727  2.301941  0.034
O  O213  1  0.57659748  0.20428254  0.91403838  1  -1.185475  0.07442  -0.31428  -0.556554  0.050738  2.302001  0.034
O  O214  1  0.22354959  0.85268875  0.59143046  1  -1.20913  0.064535  -0.299943  -0.566626  0.047047  2.415105  0.028
O  O215  1  0.85268069  0.22354742  0.09142429  1  -1.209086  0.064515  -0.29988  -0.566374  0.047037  2.415078  0.028
O  O216  1  0.25578223  0.06033924  0.60319940  1  -1.200547  0.063206  -0.31675  -0.575257  0.042879  2.296315  0.029
O  O217  1  0.06032419  0.25576894  0.10319384  1  -1.200596  0.063218  -0.31671  -0.575065  0.042869  2.296382  0.029
O  O218  1  0.86900507  0.03706352  0.98665025  1  -1.228688  0.099156  -0.296511  -0.578983  0.075  2.391395  0.044
O  O219  1  0.03705053  0.86900344  0.48664870  1  -1.228837  0.099191  -0.296577  -0.579072  0.075004  2.391056  0.044
O  O220  1  0.07205946  0.10763779  0.97540517  1  -1.20508  0.047159  -0.303516  -0.575121  0.034317  2.261527  0.027
O  O221  1  0.10763792  0.07205503  0.47540122  1  -1.204931  0.047148  -0.303494  -0.575093  0.034308  2.261571  0.027
O  O222  1  0.93160977  0.55570433  0.46546416  1  -1.220128  0.068222  -0.314091  -0.592  0.05012  2.4047  0.028
O  O223  1  0.55570219  0.93161331  0.96546999  1  -1.220159  0.068246  -0.314084  -0.591944  0.050131  2.405064  0.028
O  O224  1  0.93353988  0.38522243  0.40891237  1  -1.201723  0.063764  -0.316464  -0.569052  0.043225  2.243728  0.031
O  O225  1  0.38521580  0.93353801  0.90890530  1  -1.202026  0.063771  -0.316557  -0.569139  0.043229  2.243902  0.031
O  O226  1  0.23755357  0.06018744  0.92020273  1  -1.276788  0.060758  -0.563787  -0.756586  0.043542  2.098069  0.027
O  O227  1  0.06017240  0.23754401  0.42019953  1  -1.276549  0.060717  -0.563775  -0.756434  0.04353  2.098194  0.027
O  O228  1  0.80967536  0.12485015  0.72002208  1  -1.098889  0.001926  -0.150637  -0.215518  0.001247  2.54317  0.001
O  O229  1  0.12487205  0.80966482  0.22003182  1  -1.098938  0.001926  -0.150541  -0.215336  0.001247  2.543479  0.001
O  O230  1  0.20740456  0.12663540  0.11487717  1  -1.270933  0.061914  -0.564644  -0.744501  0.044163  2.07941  0.027
O  O231  1  0.12664466  0.20741321  0.61487291  1  -1.270802  0.061931  -0.564684  -0.744636  0.044167  2.079311  0.027
