# generated using pymatgen
data_CuH8C10(BrN)2
_symmetry_space_group_name_H-M   'P 1'
_cell_length_a   7.82296444
_cell_length_b   9.31313486
_cell_length_c   8.99307129
_cell_angle_alpha   121.15341144
_cell_angle_beta   106.54096547
_cell_angle_gamma   90.03434617
_symmetry_Int_Tables_number   1
_chemical_formula_structural   CuH8C10(BrN)2
_chemical_formula_sum   'Cu2 H16 C20 Br4 N4'
_cell_volume   528.70255413
_cell_formula_units_Z   2
loop_
 _symmetry_equiv_pos_site_id
 _symmetry_equiv_pos_as_xyz
  1  'x, y, z'
loop_
 _atom_site_type_symbol
 _atom_site_label
 _atom_site_symmetry_multiplicity
 _atom_site_fract_x
 _atom_site_fract_y
 _atom_site_fract_z
 _atom_site_occupancy
 _atom_site_hle17_ddec_charge
 _atom_site_hle17_ddec_spin_density
 _atom_site_hle17_ddec_sum_bond_order
 _atom_site_hle17_magmom
 _atom_site_hse06_10hf_ddec_charge
 _atom_site_hse06_10hf_ddec_spin_density
 _atom_site_hse06_10hf_ddec_sum_bond_order
 _atom_site_hse06_10hf_magmom
 _atom_site_hse06_ddec_charge
 _atom_site_hse06_ddec_spin_density
 _atom_site_hse06_ddec_sum_bond_order
 _atom_site_hse06_magmom
 _atom_site_pbe_cm5_charge
 _atom_site_pbe_ddec_charge
 _atom_site_pbe_ddec_spin_density
 _atom_site_pbe_ddec_sum_bond_order
 _atom_site_pbe_magmom
Cu  Cu0  1  0.74990696  0.93086632  0.00006131  1  0.633195  -0.559896  1.916066  -0.398  0.604107  -0.689031  2.333187  -0.526  0.698968  -0.780488  2.257881  -0.614  0.524949  0.554178  -0.634159  2.378921  -0.478
Cu  Cu1  1  0.25009154  0.06913745  0.99994074  1  0.633187  0.559844  1.91598  0.398  0.6041  0.689021  2.333123  0.526  0.698958  0.780451  2.257821  0.614  0.524961  0.554154  0.63417  2.37886  0.478
H  H2  1  0.09379554  0.05066480  0.33584578  1  0.072974  -0.000486  0.994531  -0.002  0.081141  -0.000696  1.063162  -0.002  0.08374  -0.000515  1.060552  -0.001  0.097291  0.079291  -0.000861  1.06489  -0.002
H  H3  1  0.40622248  0.71491068  0.66407639  1  0.073148  -0.000481  0.994333  -0.002  0.081335  -0.000687  1.062874  -0.002  0.083927  -0.000511  1.06027  -0.001  0.097307  0.079476  -0.00086  1.064633  -0.002
H  H4  1  0.90620974  0.94933300  0.66413939  1  0.072999  0.00049  0.994643  0.002  0.081155  0.000696  1.063257  0.002  0.083749  0.000515  1.060652  0.001  0.097282  0.079305  0.000861  1.064984  0.002
H  H5  1  0.59377896  0.28508789  0.33592269  1  0.07318  0.000479  0.994285  0.002  0.081353  0.000687  1.062834  0.002  0.083948  0.00051  1.060226  0.001  0.097316  0.079495  0.00086  1.064591  0.002
H  H6  1  0.25894103  0.91956726  0.50843667  1  0.104431  -0.002691  0.971034  -0.001  0.113582  -0.002308  1.037745  -0.001  0.117562  -0.001746  1.036184  -0.001  0.092737  0.110827  -0.002671  1.038938  -0.001
H  H7  1  0.24103524  0.41120029  0.49127421  1  0.104542  -0.002666  0.971394  -0.001  0.11376  -0.002291  1.037994  -0.001  0.117766  -0.001736  1.036417  -0.001  0.092873  0.111034  -0.002673  1.039124  -0.001
H  H8  1  0.74108435  0.08043098  0.49154145  1  0.104425  0.002688  0.971012  0.001  0.113576  0.002307  1.037702  0.001  0.117554  0.001745  1.036145  0.001  0.092719  0.110823  0.002671  1.038894  0.001
H  H9  1  0.75895906  0.58880253  0.50873189  1  0.10455  0.002665  0.971339  0.001  0.113797  0.00229  1.037903  0.001  0.117804  0.001735  1.036324  0.001  0.092868  0.111071  0.002673  1.039033  0.001
H  H10  1  0.13004979  0.62105079  0.39985834  1  0.097775  -0.000688  0.941771  0.0  0.111282  -0.000612  0.998513  0.0  0.114291  -0.000476  0.995802  0.0  0.103897  0.109184  -0.000698  1.000312  0.0
H  H11  1  0.36977128  0.22118368  0.59972520  1  0.09721  -0.000693  0.94198  0.0  0.1108  -0.000617  0.998648  0.0  0.113778  -0.000478  0.995953  0.0  0.103572  0.108681  -0.000698  1.000498  0.0
H  H12  1  0.86998314  0.37894520  0.60012833  1  0.097683  0.00069  0.941808  0.0  0.111207  0.000613  0.998538  0.0  0.11421  0.000477  0.99583  0.0  0.103855  0.109105  0.000699  1.000362  0.0
H  H13  1  0.63021588  0.77882338  0.40028793  1  0.097238  0.000692  0.94206  0.0  0.110828  0.000616  0.998709  0.0  0.113803  0.000478  0.996018  0.0  0.103558  0.108724  0.000698  1.00054  0.0
H  H14  1  0.85906675  0.46201492  0.12075028  1  0.11243  -0.000442  0.975209  -0.001  0.122287  -0.000649  1.03772  -0.001  0.126723  -0.000511  1.034773  -0.001  0.097602  0.119271  -0.000723  1.039658  -0.001
H  H15  1  0.64070798  0.34113114  0.87886625  1  0.112707  -0.000438  0.975024  -0.001  0.122523  -0.000645  1.037612  -0.001  0.126962  -0.000509  1.034665  -0.001  0.097778  0.119508  -0.000724  1.039546  -0.001
H  H16  1  0.14094132  0.53799002  0.87925472  1  0.112465  0.000441  0.975181  0.001  0.122287  0.000649  1.037745  0.001  0.126722  0.000511  1.034801  0.001  0.097589  0.119274  0.000723  1.03968  0.001
H  H17  1  0.35926913  0.65887893  0.12115257  1  0.112695  0.00044  0.974922  0.001  0.122648  0.000645  1.037377  0.001  0.127091  0.000509  1.034423  0.001  0.097804  0.119631  0.000724  1.039303  0.001
C  C18  1  0.04696043  0.92115437  0.29460787  1  0.132853  0.004851  3.709616  0.006  0.106015  0.000845  3.952759  0.002  0.11603  0.001794  3.970672  0.003  0.042445  0.099903  4.2e-05  3.940901  0.001
C  C19  1  0.45297086  0.62663504  0.70529797  1  0.13293  0.004894  3.709462  0.006  0.106046  0.000844  3.952626  0.002  0.116072  0.001794  3.970566  0.003  0.042352  0.099933  4.1e-05  3.940754  0.001
C  C20  1  0.95304341  0.07884284  0.70539001  1  0.132763  -0.004895  3.709632  -0.006  0.105986  -0.000843  3.952737  -0.002  0.115999  -0.001792  3.970643  -0.003  0.042459  0.099873  -4.2e-05  3.940877  -0.001
C  C21  1  0.54703112  0.37337275  0.29471139  1  0.132934  -0.004868  3.709381  -0.006  0.106072  -0.000845  3.952515  -0.002  0.116103  -0.001793  3.970447  -0.003  0.042376  0.099957  -4.1e-05  3.940639  -0.001
C  C22  1  0.13653943  0.84766194  0.38881421  1  -0.107223  -0.0079  3.712934  -0.009  -0.116924  -0.0053  3.955567  -0.006  -0.12439  -0.004575  3.974078  -0.006  -0.082104  -0.112137  -0.0058  3.942833  -0.007
C  C23  1  0.36338010  0.45889342  0.61093172  1  -0.108171  -0.008008  3.713248  -0.009  -0.11788  -0.005343  3.955922  -0.006  -0.125392  -0.004596  3.97445  -0.006  -0.082383  -0.113101  -0.005806  3.943164  -0.007
C  C24  1  0.86347596  0.15233308  0.61116985  1  -0.107266  0.007949  3.712896  0.009  -0.116957  0.005301  3.955497  0.006  -0.124421  0.004574  3.974011  0.006  -0.082142  -0.112169  0.005801  3.942761  0.007
C  C25  1  0.63660810  0.54111213  0.38907645  1  -0.108103  0.007976  3.713293  0.009  -0.11784  0.005343  3.955926  0.006  -0.125353  0.004594  3.974451  0.006  -0.082365  -0.11306  0.005806  3.943171  0.007
C  C26  1  0.06665163  0.68169988  0.32746116  1  0.001583  0.004788  3.71568  0.005  -0.015433  0.001793  3.960561  0.002  -0.009692  0.002136  3.976095  0.002  -0.067697  -0.01898  0.001488  3.949754  0.002
C  C27  1  0.43319158  0.35424657  0.67221308  1  0.002748  0.004816  3.715544  0.005  -0.014315  0.001785  3.960421  0.002  -0.00855  0.002131  3.975962  0.002  -0.067297  -0.01788  0.001486  3.949654  0.002
C  C28  1  0.93336097  0.31829451  0.67253414  1  0.001821  -0.004826  3.715709  -0.005  -0.015212  -0.001792  3.960591  -0.002  -0.009465  -0.002136  3.976115  -0.002  -0.067615  -0.018769  -0.001487  3.949781  -0.002
C  C29  1  0.56680170  0.64576432  0.32780458  1  0.002599  -0.004787  3.715244  -0.005  -0.01447  -0.001785  3.960163  -0.002  -0.008699  -0.002131  3.975697  -0.002  -0.067329  -0.018045  -0.001486  3.949416  -0.002
C  C30  1  0.91299520  0.59284865  0.17127686  1  -0.137907  -0.00454  3.701439  -0.004  -0.153495  -0.003063  3.941884  -0.003  -0.160815  -0.002817  3.961626  -0.003  -0.080667  -0.148722  -0.00319  3.928348  -0.003
C  C31  1  0.58680849  0.42146463  0.82838844  1  -0.13825  -0.004595  3.700648  -0.004  -0.153916  -0.003079  3.941266  -0.003  -0.161251  -0.002826  3.961007  -0.003  -0.08067  -0.149136  -0.003193  3.927761  -0.003
C  C32  1  0.08700696  0.40715346  0.82871859  1  -0.138011  0.004579  3.701319  0.004  -0.153598  0.003064  3.94177  0.003  -0.160915  0.002817  3.96151  0.003  -0.08064  -0.148823  0.003191  3.928235  0.003
C  C33  1  0.41317047  0.57853492  0.17162004  1  -0.138275  0.004556  3.700297  0.004  -0.154049  0.003079  3.940907  0.003  -0.161385  0.002825  3.960642  0.003  -0.080704  -0.149265  0.003192  3.92741  0.003
C  C34  1  0.83044557  0.67398350  0.08286182  1  0.17378  0.001703  3.755433  0.002  0.170102  -0.000679  3.996246  0.0  0.177901  0.000299  4.01749  0.001  0.114807  0.165184  -0.001388  3.982238  -0.001
C  C35  1  0.66935868  0.59106402  0.91696307  1  0.174282  0.001742  3.754123  0.002  0.170632  -0.000677  3.994965  0.0  0.178447  0.000302  4.01622  0.001  0.11489  0.165692  -0.001387  3.980989  -0.001
C  C36  1  0.16955090  0.32601685  0.91714582  1  0.173816  -0.001737  3.755325  -0.002  0.170201  0.000679  3.996083  0.0  0.177996  -0.0003  4.017325  -0.001  0.11479  0.165278  0.001387  3.982078  0.001
C  C37  1  0.33063086  0.40894163  0.08304772  1  0.1743  -0.001714  3.754176  -0.002  0.170606  0.000679  3.995058  0.0  0.178421  -0.0003  4.016313  -0.001  0.114867  0.165668  0.001388  3.981083  0.001
Br  Br38  1  0.93430024  0.21372648  0.19798813  1  -0.4503  -0.180652  1.041306  -0.172  -0.463082  -0.113721  1.375962  -0.11  -0.502696  -0.090079  1.351249  -0.089  -0.239543  -0.440466  -0.126167  1.393229  -0.12
Br  Br39  1  0.56560737  0.01584618  0.80205578  1  -0.450461  -0.180427  1.041153  -0.171  -0.463182  -0.113677  1.375813  -0.11  -0.502772  -0.090147  1.351075  -0.089  -0.239429  -0.440477  -0.126172  1.393079  -0.12
Br  Br40  1  0.06568095  0.78627744  0.80203420  1  -0.450282  0.180643  1.041245  0.172  -0.463077  0.113752  1.37593  0.11  -0.502676  0.090124  1.351196  0.089  -0.239532  -0.440452  0.126178  1.393186  0.12
Br  Br41  1  0.43441172  0.98413424  0.19791193  1  -0.450468  0.180503  1.041225  0.171  -0.463195  0.113654  1.375891  0.11  -0.502798  0.090148  1.351172  0.089  -0.239423  -0.440488  0.126147  1.393159  0.12
N  N42  1  0.89618814  0.83770866  0.14723222  1  -0.317272  -0.061001  3.328302  -0.076  -0.257838  -0.055231  3.605124  -0.072  -0.288449  -0.049647  3.627269  -0.068  -0.341379  -0.240751  -0.057731  3.592634  -0.073
N  N43  1  0.60366575  0.69049998  0.85270577  1  -0.317003  -0.061162  3.327561  -0.076  -0.25754  -0.05529  3.604434  -0.072  -0.288152  -0.049662  3.626505  -0.068  -0.341326  -0.2405  -0.057694  3.592001  -0.073
N  N44  1  0.10380877  0.16229385  0.85276881  1  -0.317194  0.061028  3.328439  0.076  -0.257849  0.05523  3.605293  0.072  -0.288469  0.049641  3.627464  0.068  -0.341357  -0.240764  0.057733  3.592808  0.073
N  N45  1  0.39633020  0.30949782  0.14730047  1  -0.317058  0.061137  3.327419  0.076  -0.257576  0.05529  3.604282  0.072  -0.288186  0.049658  3.62634  0.068  -0.341341  -0.240534  0.057694  3.591852  0.073
