# generated using pymatgen
data_Ni3H14(C3O8)2
_symmetry_space_group_name_H-M   'P 1'
_cell_length_a   5.43255036
_cell_length_b   9.38160850
_cell_length_c   14.48854446
_cell_angle_alpha   101.30675760
_cell_angle_beta   89.99991127
_cell_angle_gamma   90.00048883
_symmetry_Int_Tables_number   1
_chemical_formula_structural   Ni3H14(C3O8)2
_chemical_formula_sum   'Ni6 H28 C12 O32'
_cell_volume   724.09236317
_cell_formula_units_Z   2
loop_
 _symmetry_equiv_pos_site_id
 _symmetry_equiv_pos_as_xyz
  1  'x, y, z'
loop_
 _atom_site_type_symbol
 _atom_site_label
 _atom_site_symmetry_multiplicity
 _atom_site_fract_x
 _atom_site_fract_y
 _atom_site_fract_z
 _atom_site_occupancy
 _atom_site_hle17_ddec_charge
 _atom_site_hle17_ddec_spin_density
 _atom_site_hle17_ddec_sum_bond_order
 _atom_site_hle17_magmom
 _atom_site_hse06_10hf_ddec_charge
 _atom_site_hse06_10hf_ddec_spin_density
 _atom_site_hse06_10hf_ddec_sum_bond_order
 _atom_site_hse06_10hf_magmom
 _atom_site_hse06_ddec_charge
 _atom_site_hse06_ddec_spin_density
 _atom_site_hse06_ddec_sum_bond_order
 _atom_site_hse06_magmom
 _atom_site_pbe_cm5_charge
 _atom_site_pbe_ddec_charge
 _atom_site_pbe_ddec_spin_density
 _atom_site_pbe_ddec_sum_bond_order
 _atom_site_pbe_magmom
Ni  Ni0  1  0.88593287  0.94853522  0.32612756  1  0.982224  1.751331  1.805794  1.526  0.995882  1.826013  2.186452  1.662  1.083119  1.885666  2.119489  1.745  0.604096  0.917627  1.756994  2.25007  1.577
Ni  Ni1  1  0.38534387  0.05166119  0.17390928  1  0.978455  -1.774479  1.807205  -1.516  0.992858  -1.842889  2.188606  -1.656  1.081463  -1.915123  2.120931  -1.743  0.60128  0.912114  -1.752668  2.253217  -1.562
Ni  Ni2  1  0.11465773  0.05166103  0.67390818  1  0.978401  -1.774486  1.807273  -1.516  0.992881  -1.842898  2.188569  -1.657  1.081403  -1.915127  2.121027  -1.743  0.601257  0.9121  -1.752653  2.253237  -1.562
Ni  Ni3  1  0.61406127  0.94853710  0.82612884  1  0.982221  1.751327  1.805735  1.526  0.995857  1.826011  2.186401  1.662  1.083119  1.885667  2.11941  1.745  0.604072  0.917606  1.756996  2.250006  1.577
Ni  Ni4  1  0.99967564  0.49990824  0.99982819  1  1.004217  1.769508  1.806734  1.539  1.017262  1.83935  2.194132  1.671  1.097252  1.895512  2.133544  1.75  0.617325  0.945369  1.778449  2.252676  1.593
Ni  Ni5  1  0.50032567  0.49990531  0.49983114  1  1.004225  1.769505  1.806774  1.539  1.017275  1.83936  2.194178  1.671  1.097258  1.895521  2.133592  1.75  0.61734  0.945364  1.778449  2.252717  1.593
H  H6  1  0.76081725  0.82093685  0.46058020  1  0.412589  4.8e-05  0.895701  -0.001  0.385572  0.000304  0.95906  0.0  0.397265  0.000135  0.941941  0.0  0.291582  0.376972  0.000468  0.971533  0.0
H  H7  1  0.26018845  0.17964194  0.03957131  1  0.412213  0.000115  0.896849  0.0  0.385718  -6.4e-05  0.958999  0.0  0.397345  -1.3e-05  0.941979  0.0  0.291621  0.377149  -8.6e-05  0.971439  0.0
H  H8  1  0.23980648  0.17964117  0.53957211  1  0.412202  0.000114  0.896905  0.0  0.385713  -6.4e-05  0.959004  0.0  0.397341  -1.3e-05  0.941983  0.0  0.291645  0.377145  -8.6e-05  0.971444  0.0
H  H9  1  0.73917804  0.82094594  0.96058113  1  0.412599  4.9e-05  0.895709  -0.001  0.385612  0.000304  0.959003  0.0  0.397307  0.000134  0.941883  0.0  0.291623  0.37701  0.000468  0.971478  0.0
H  H10  1  0.75916358  0.99092870  0.51152465  1  0.431136  0.000331  0.866614  0.0  0.405598  0.000483  0.926542  0.001  0.416751  0.000375  0.910479  0.0  0.297143  0.397357  0.000561  0.938374  0.001
H  H11  1  0.25909715  0.00951787  0.98868163  1  0.431258  -0.000339  0.866553  0.0  0.405668  -0.000477  0.926425  -0.001  0.416867  -0.000375  0.91031  0.0  0.297372  0.397349  -0.000547  0.938339  -0.001
H  H12  1  0.24089320  0.00951859  0.48868015  1  0.431188  -0.000339  0.866621  0.0  0.405596  -0.000477  0.926517  -0.001  0.416797  -0.000375  0.9104  0.0  0.297374  0.397281  -0.000547  0.938428  -0.001
H  H13  1  0.74083077  0.99093476  0.01152536  1  0.431073  0.000333  0.866644  0.0  0.405537  0.000483  0.926612  0.001  0.41669  0.000376  0.91055  0.0  0.297126  0.397301  0.000561  0.938437  0.001
H  H14  1  0.37020086  0.95116232  0.34433797  1  0.420459  -0.000272  0.888877  -0.001  0.386399  -5.4e-05  0.96714  0.0  0.399394  -0.000104  0.948699  0.0  0.29093  0.377151  -1.1e-05  0.980042  0.0
H  H15  1  0.87008859  0.04907577  0.15561476  1  0.420825  0.000272  0.887591  0.001  0.386548  6.8e-05  0.966671  0.0  0.399555  0.000114  0.948208  0.0  0.291144  0.37725  3.6e-05  0.979652  0.0
H  H16  1  0.62992219  0.04907474  0.65561145  1  0.42075  0.000272  0.887736  0.001  0.386491  6.8e-05  0.966767  0.0  0.399499  0.000114  0.948301  0.0  0.291096  0.377195  3.6e-05  0.979746  0.0
H  H17  1  0.12979515  0.95115654  0.84434015  1  0.420431  -0.000272  0.888915  -0.001  0.38635  -5.4e-05  0.967209  0.0  0.399345  -0.000105  0.948769  0.0  0.290879  0.377103  -1.1e-05  0.980108  0.0
H  H18  1  0.28520089  0.79885053  0.37368211  1  0.439184  1.4e-05  0.794111  0.0  0.424272  0.000394  0.842349  0.001  0.433375  0.000245  0.833392  0.0  0.331129  0.417345  0.000522  0.848964  0.001
H  H19  1  0.78573716  0.20122764  0.12597813  1  0.439092  -8.8e-05  0.793593  0.0  0.424169  -0.00043  0.841907  -0.001  0.433327  -0.000291  0.832851  0.0  0.330788  0.417163  -0.000538  0.84864  -0.001
H  H20  1  0.71427237  0.20122353  0.62597774  1  0.439098  -8.9e-05  0.793667  0.0  0.424173  -0.00043  0.841969  -0.001  0.43333  -0.00029  0.832918  0.0  0.330843  0.417168  -0.000538  0.848699  -0.001
H  H21  1  0.21480005  0.79884313  0.87368191  1  0.439252  1.4e-05  0.794118  0.0  0.424353  0.000394  0.842302  0.001  0.433454  0.000245  0.833351  0.0  0.331216  0.417426  0.000521  0.848917  0.001
H  H22  1  0.89130557  0.81426615  0.07916290  1  0.091818  5.6e-05  0.970153  0.0  0.098783  0.000202  1.035741  0.0  0.10133  0.000127  1.033617  0.0  0.121374  0.096741  0.000286  1.037682  0.0
H  H23  1  0.39186981  0.18537198  0.42097207  1  0.091583  -0.000798  0.971125  -0.001  0.098055  -0.000673  1.03703  0.0  0.100623  -0.00054  1.03493  0.0  0.121424  0.096012  -0.000782  1.038981  0.0
H  H24  1  0.10813638  0.18538170  0.92097042  1  0.091551  -0.000799  0.971046  -0.001  0.098013  -0.000673  1.03699  0.0  0.100578  -0.00054  1.034889  0.0  0.121409  0.095967  -0.000782  1.038946  0.0
H  H25  1  0.60869133  0.81426456  0.57916642  1  0.09187  5.6e-05  0.970243  0.0  0.09877  0.000202  1.035864  0.0  0.101316  0.000128  1.033742  0.0  0.121364  0.096728  0.000286  1.037809  0.0
H  H26  1  0.55588325  0.62442500  0.96914579  1  0.43422  0.000207  0.854025  0.0  0.404079  0.000358  0.922296  0.0  0.416664  0.00017  0.904121  0.0  0.302338  0.394848  0.000535  0.935515  0.001
H  H27  1  0.05568267  0.37525462  0.53091399  1  0.434286  0.000162  0.854199  0.0  0.404176  0.00034  0.922246  0.0  0.416727  0.000159  0.904132  0.0  0.302626  0.394973  0.000513  0.935405  0.0
H  H28  1  0.44432078  0.37525430  0.03091014  1  0.434266  0.000159  0.854236  0.0  0.404167  0.00034  0.922262  0.0  0.41672  0.000158  0.904144  0.0  0.302604  0.394967  0.000513  0.935418  0.0
H  H29  1  0.94411824  0.62442218  0.46914640  1  0.434187  0.000207  0.854042  0.0  0.404037  0.000358  0.922348  0.0  0.416623  0.00017  0.904172  0.0  0.302345  0.394807  0.000535  0.935566  0.001
H  H30  1  0.71597396  0.61733493  0.87487337  1  0.443024  -2.6e-05  0.81026  0.0  0.419307  0.000246  0.874715  0.0  0.430642  0.000104  0.861731  0.0  0.316514  0.410841  0.000383  0.884022  0.001
H  H31  1  0.21641549  0.38309270  0.62503506  1  0.442389  -0.000133  0.810362  0.0  0.418779  0.000129  0.874582  0.0  0.430044  6.7e-05  0.861727  0.0  0.316516  0.410293  0.000203  0.883921  0.0
H  H32  1  0.28358581  0.38310032  0.12503185  1  0.442433  -0.000135  0.810172  0.0  0.418825  0.000129  0.874395  0.0  0.430088  6.7e-05  0.861539  0.0  0.316536  0.410338  0.000203  0.883739  0.0
H  H33  1  0.78402600  0.61732686  0.37487534  1  0.442988  -2.6e-05  0.81034  0.0  0.419278  0.000246  0.874782  0.0  0.430613  0.000104  0.8618  0.0  0.316517  0.410811  0.000383  0.884092  0.001
C  C34  1  0.02101804  0.81044965  0.13705386  1  -0.065452  0.001321  3.722378  0.002  -0.082573  0.000859  3.972106  0.001  -0.085292  0.000447  3.982862  0.001  -0.020966  -0.081111  0.001362  3.962879  0.002
C  C35  1  0.52140213  0.18923288  0.36304602  1  -0.066333  2.2e-05  3.725684  0.002  -0.08214  -0.000679  3.973951  0.0  -0.084994  -0.000714  3.984968  0.0  -0.021366  -0.080662  -0.000557  3.964675  0.0
C  C36  1  0.97860063  0.18923902  0.86304289  1  -0.066222  3e-05  3.725409  0.002  -0.082054  -0.000678  3.973653  0.0  -0.084889  -0.000714  3.984645  0.0  -0.021365  -0.080583  -0.000556  3.964368  0.0
C  C37  1  0.47897677  0.81045212  0.63705638  1  -0.065521  0.001318  3.722477  0.002  -0.082564  0.000859  3.972122  0.001  -0.08528  0.000447  3.982873  0.001  -0.020918  -0.081095  0.001362  3.962886  0.002
C  C38  1  0.90674099  0.69140007  0.18419139  1  0.666845  -0.004864  3.815132  -0.009  0.624247  -4.2e-05  4.128381  -0.002  0.662258  -0.000359  4.119545  -0.002  0.212636  0.596765  0.000168  4.13341  -0.002
C  C39  1  0.40700567  0.30837847  0.31601138  1  0.665951  -0.001996  3.814699  -0.004  0.623933  -0.000724  4.126925  -0.002  0.662119  -0.000484  4.118156  -0.001  0.213011  0.596189  -0.000944  4.131833  -0.002
C  C40  1  0.09299549  0.30839015  0.81601211  1  0.665937  -0.001997  3.814852  -0.004  0.623937  -0.000724  4.127044  -0.002  0.662119  -0.000483  4.11827  -0.001  0.212999  0.596198  -0.000945  4.131948  -0.002
C  C41  1  0.59326095  0.69139863  0.68419149  1  0.666893  -0.004861  3.81503  -0.009  0.62427  -4.2e-05  4.128279  -0.002  0.662279  -0.00036  4.119444  -0.002  0.212614  0.596781  0.000168  4.133304  -0.002
C  C42  1  0.26670718  0.76291844  0.08862962  1  0.663084  -0.001102  3.784115  -0.002  0.617331  -0.000923  4.087088  -0.001  0.655467  -0.000638  4.078793  -0.001  0.219332  0.589407  -0.001276  4.092719  -0.002
C  C43  1  0.76715804  0.23679195  0.41126575  1  0.664826  -0.00423  3.782076  -0.008  0.617168  0.000892  4.087185  -0.001  0.65532  0.000426  4.078794  -0.001  0.218662  0.589267  0.001333  4.092945  0.0
C  C44  1  0.73284338  0.23679341  0.91126552  1  0.664765  -0.004236  3.782083  -0.008  0.617145  0.000892  4.087125  -0.001  0.655291  0.000426  4.078739  -0.001  0.218682  0.589249  0.001332  4.09288  0.0
C  C45  1  0.23329449  0.76291121  0.58862805  1  0.662992  -0.0011  3.784227  -0.002  0.617312  -0.000923  4.08707  -0.001  0.655451  -0.000639  4.07877  -0.001  0.219296  0.589386  -0.001275  4.092702  -0.002
O  O46  1  0.72815381  0.92121477  0.45142701  1  -0.820436  0.033972  1.999626  0.055  -0.788262  0.025587  2.215837  0.041  -0.816391  0.020667  2.180427  0.033  -0.58793  -0.765524  0.029484  2.242054  0.046
O  O47  1  0.22760077  0.07927923  0.04867698  1  -0.820446  -0.033599  2.000566  -0.053  -0.788382  -0.025313  2.21613  -0.04  -0.816654  -0.020779  2.180838  -0.033  -0.588436  -0.765364  -0.028432  2.242264  -0.044
O  O48  1  0.27239076  0.07927980  0.54867658  1  -0.820358  -0.033593  2.000704  -0.053  -0.788307  -0.025311  2.216276  -0.04  -0.816568  -0.020778  2.180991  -0.033  -0.588452  -0.765283  -0.02843  2.242417  -0.044
O  O49  1  0.77183751  0.92122062  0.95142949  1  -0.82034  0.033964  1.999639  0.055  -0.788211  0.025586  2.215875  0.041  -0.816344  0.020666  2.180464  0.033  -0.587967  -0.76548  0.029484  2.242085  0.046
O  O50  1  0.23632404  0.89967264  0.37760144  1  -0.807742  0.035229  1.988313  0.057  -0.770923  0.027027  2.204735  0.043  -0.800423  0.021347  2.173588  0.035  -0.550777  -0.747275  0.031625  2.227381  0.05
O  O51  1  0.73632132  0.10057332  0.12240509  1  -0.807584  -0.03512  1.986319  -0.055  -0.770396  -0.026978  2.203012  -0.043  -0.799887  -0.021531  2.171847  -0.035  -0.550905  -0.746768  -0.031026  2.225793  -0.048
O  O52  1  0.76368119  0.10057062  0.62240351  1  -0.80753  -0.035113  1.986556  -0.055  -0.770361  -0.026976  2.203168  -0.043  -0.799841  -0.02153  2.17201  -0.035  -0.550907  -0.746724  -0.031024  2.225958  -0.048
O  O53  1  0.26366919  0.89966846  0.87760584  1  -0.807842  0.035228  1.988384  0.057  -0.771011  0.027027  2.204829  0.043  -0.800514  0.021346  2.173672  0.035  -0.550842  -0.747368  0.031626  2.227482  0.05
O  O54  1  0.03738879  0.94853666  0.19694902  1  -0.629532  0.006697  2.176587  0.011  -0.618384  0.003058  2.480445  0.005  -0.663758  0.002742  2.477474  0.005  -0.364785  -0.577585  0.002477  2.478466  0.004
O  O55  1  0.53741580  0.05127318  0.30300181  1  -0.628299  -0.00489  2.176661  -0.007  -0.617618  -0.002456  2.479955  -0.004  -0.662981  -0.002761  2.477114  -0.004  -0.364361  -0.576793  -0.000613  2.477869  0.0
O  O56  1  0.96258883  0.05127801  0.80300056  1  -0.628276  -0.004885  2.176537  -0.007  -0.617595  -0.002454  2.479831  -0.004  -0.662955  -0.002759  2.476993  -0.004  -0.36431  -0.576764  -0.000612  2.477742  0.0
O  O57  1  0.46260416  0.94854018  0.69695103  1  -0.629446  0.006702  2.176401  0.011  -0.618347  0.00306  2.480213  0.005  -0.663714  0.002743  2.477245  0.005  -0.364771  -0.577547  0.002475  2.478226  0.004
O  O58  1  0.83314213  0.72876094  0.26910912  1  -0.597063  0.047714  2.014705  0.078  -0.568932  0.030403  2.273391  0.05  -0.603832  0.023515  2.258608  0.04  -0.308508  -0.541607  0.036  2.283464  0.058
O  O59  1  0.33255436  0.27105794  0.23124150  1  -0.594338  -0.039404  2.016105  -0.063  -0.567132  -0.025788  2.274891  -0.042  -0.602648  -0.021019  2.260221  -0.035  -0.307256  -0.538697  -0.028856  2.284827  -0.047
O  O60  1  0.16744478  0.27106044  0.73123732  1  -0.59443  -0.039403  2.015906  -0.063  -0.567238  -0.025787  2.274663  -0.042  -0.602744  -0.021019  2.260001  -0.035  -0.307293  -0.538794  -0.028856  2.284602  -0.047
O  O61  1  0.66685999  0.72876085  0.76911076  1  -0.597134  0.047715  2.014643  0.078  -0.568986  0.030403  2.273339  0.05  -0.603889  0.023515  2.258553  0.04  -0.308525  -0.541662  0.036  2.283411  0.058
O  O62  1  0.88203719  0.56408522  0.13607392  1  -0.584447  0.050578  2.021576  0.083  -0.569039  0.031378  2.287003  0.052  -0.602834  0.024083  2.272947  0.041  -0.317695  -0.542185  0.037026  2.296143  0.06
O  O63  1  0.38291287  0.43590400  0.36392700  1  -0.581941  0.048322  2.022887  0.08  -0.568232  0.029883  2.288952  0.05  -0.602721  0.023249  2.275021  0.04  -0.316628  -0.540362  0.035347  2.297879  0.058
O  O64  1  0.11709368  0.43590721  0.86392503  1  -0.581855  0.048312  2.023292  0.08  -0.568134  0.02988  2.289334  0.05  -0.602622  0.023247  2.275405  0.04  -0.316568  -0.54027  0.035342  2.298264  0.058
O  O65  1  0.61796304  0.56408594  0.63607641  1  -0.584424  0.050572  2.021616  0.083  -0.569025  0.031375  2.287074  0.052  -0.602814  0.024081  2.273012  0.041  -0.317692  -0.542174  0.037024  2.29622  0.06
O  O66  1  0.45638473  0.83867176  0.11291750  1  -0.557862  -0.037233  2.060445  -0.059  -0.520768  -0.024643  2.315186  -0.039  -0.557  -0.019986  2.305669  -0.032  -0.2948  -0.49264  -0.027683  2.322249  -0.044
O  O67  1  0.95739783  0.16206417  0.38604839  1  -0.559703  0.047022  2.056786  0.076  -0.52137  0.029884  2.311591  0.049  -0.557094  0.022999  2.301958  0.038  -0.295056  -0.494065  0.03577  2.318817  0.057
O  O68  1  0.54260073  0.16206131  0.88604969  1  -0.559744  0.047026  2.056852  0.076  -0.521355  0.029886  2.311567  0.049  -0.557083  0.023  2.301935  0.038  -0.295009  -0.494049  0.035771  2.318789  0.057
O  O69  1  0.04361614  0.83867587  0.61291296  1  -0.557818  -0.03724  2.060434  -0.059  -0.520789  -0.024645  2.315122  -0.039  -0.557012  -0.019988  2.305612  -0.032  -0.294767  -0.492655  -0.027687  2.322194  -0.044
O  O70  1  0.27162500  0.65167503  0.02105437  1  -0.616724  0.038486  2.118015  0.064  -0.581923  0.02604  2.384384  0.044  -0.618144  0.020734  2.371281  0.035  -0.305947  -0.553247  0.030077  2.393236  0.049
O  O71  1  0.77105744  0.34710663  0.47953167  1  -0.617168  0.0455  2.114438  0.075  -0.581899  0.030379  2.381335  0.05  -0.617916  0.023725  2.368229  0.04  -0.30611  -0.553615  0.035785  2.390294  0.058
O  O72  1  0.72894534  0.34710943  0.97952749  1  -0.617114  0.045497  2.11453  0.075  -0.581887  0.030377  2.381449  0.05  -0.6179  0.023724  2.368339  0.04  -0.306154  -0.553609  0.035783  2.39041  0.058
O  O73  1  0.22837347  0.65166972  0.52105656  1  -0.616699  0.038481  2.11817  0.064  -0.581885  0.026038  2.384464  0.044  -0.61811  0.020732  2.371369  0.035  -0.305958  -0.553206  0.030075  2.393315  0.049
O  O74  1  0.72683439  0.63283952  0.94413476  1  -0.808005  0.03098  1.966315  0.05  -0.769581  0.024457  2.178353  0.039  -0.797872  0.019024  2.14529  0.031  -0.543867  -0.745975  0.029413  2.20189  0.046
O  O75  1  0.22682684  0.36691503  0.55576646  1  -0.806613  0.030698  1.967613  0.049  -0.768287  0.024401  2.17925  0.039  -0.7965  0.019087  2.146406  0.031  -0.543471  -0.744731  0.029202  2.202664  0.045
O  O76  1  0.27317268  0.36691501  0.05576208  1  -0.806623  0.030702  1.967486  0.049  -0.768306  0.024401  2.179117  0.039  -0.796525  0.019087  2.146278  0.031  -0.543434  -0.744754  0.029201  2.202534  0.045
O  O77  1  0.77316734  0.63283257  0.44413554  1  -0.807943  0.030979  1.966417  0.05  -0.769498  0.024455  2.178445  0.039  -0.797783  0.019022  2.145383  0.031  -0.543885  -0.74589  0.02941  2.201984  0.046
