# generated using pymatgen
data_TbZnH12C22N5O8
_symmetry_space_group_name_H-M   'P 1'
_cell_length_a   10.70101384
_cell_length_b   12.96352843
_cell_length_c   17.97688842
_cell_angle_alpha   89.99999195
_cell_angle_beta   90.70467944
_cell_angle_gamma   90.00001497
_symmetry_Int_Tables_number   1
_chemical_formula_structural   TbZnH12C22N5O8
_chemical_formula_sum   'Tb4 Zn4 H48 C88 N20 O32'
_cell_volume   2493.61743291
_cell_formula_units_Z   4
loop_
 _symmetry_equiv_pos_site_id
 _symmetry_equiv_pos_as_xyz
  1  'x, y, z'
loop_
 _atom_site_type_symbol
 _atom_site_label
 _atom_site_symmetry_multiplicity
 _atom_site_fract_x
 _atom_site_fract_y
 _atom_site_fract_z
 _atom_site_occupancy
 _atom_site_pbe_bader_charge
 _atom_site_pbe_bader_spin_density
 _atom_site_pbe_cm5_charge
 _atom_site_pbe_ddec_charge
 _atom_site_pbe_ddec_spin_density
 _atom_site_pbe_ddec_sum_bond_order
 _atom_site_pbe_magmom
Tb  Tb0  1  0.56532002  0.85857799  0.49150741  1  2.167895  0  1.528621  2.022169  0  2.208716  0
Tb  Tb1  1  0.93467917  0.35857763  0.00849275  1  2.167856  0  1.528609  2.022157  0  2.208653  0
Tb  Tb2  1  0.43467983  0.14142214  0.50849289  1  2.167897  0  1.528621  2.02218  0  2.208695  0
Tb  Tb3  1  0.06532068  0.64142250  0.99150754  1  2.167823  0  1.528614  2.022175  0  2.208696  0
Zn  Zn4  1  0.76041996  0.84748070  0.72807367  1  1.277225  0  0.686171  0.704732  0  2.398631  0
Zn  Zn5  1  0.73958023  0.34748025  0.77192651  1  1.277259  0  0.686209  0.704789  0  2.398568  0
Zn  Zn6  1  0.23957988  0.15251943  0.27192607  1  1.277228  0  0.686176  0.704732  0  2.398628  0
Zn  Zn7  1  0.26042056  0.65251988  0.22807379  1  1.277229  0  0.686181  0.704719  0  2.398648  0
H  H8  1  0.99948166  0.97640858  0.79220849  1  0.091743  0  0.112306  0.115982  0  0.999986  0
H  H9  1  0.50051857  0.47640809  0.70779112  1  0.09174  0  0.112299  0.115979  0  1.000006  0
H  H10  1  0.00051819  0.02359155  0.20779124  1  0.09174  0  0.112299  0.115974  0  1.000022  0
H  H11  1  0.49948221  0.52359127  0.29220862  1  0.091742  0  0.112303  0.115992  0  1.000006  0
H  H12  1  0.15988234  0.00127736  0.89327140  1  0.081155  0  0.111626  0.118549  0  0.980119  0
H  H13  1  0.34011812  0.50127708  0.60672793  1  0.081163  0  0.111637  0.118581  0  0.980061  0
H  H14  1  0.84011750  0.99872200  0.10672833  1  0.081161  0  0.111627  0.118558  0  0.980112  0
H  H15  1  0.65988267  0.49872305  0.39327182  1  0.081152  0  0.111636  0.118584  0  0.980066  0
H  H16  1  0.12614357  0.14207698  0.98779565  1  0.109308  0  0.121601  0.093113  0  0.993214  0
H  H17  1  0.37385694  0.64207672  0.51220367  1  0.109302  0  0.121643  0.093164  0  0.993218  0
H  H18  1  0.87385628  0.85792315  0.01220409  1  0.109315  0  0.121645  0.09316  0  0.993213  0
H  H19  1  0.62614385  0.35792341  0.48779608  1  0.109311  0  0.121641  0.093158  0  0.993218  0
H  H20  1  0.77726073  0.20829360  0.90019686  1  0.099989  0  0.122746  0.095235  0  1.022596  0
H  H21  1  0.72273942  0.70829407  0.59980333  1  0.099976  0  0.122735  0.095222  0  1.022608  0
H  H22  1  0.22274006  0.79170654  0.09980288  1  0.09998  0  0.122745  0.095242  0  1.022594  0
H  H23  1  0.27726136  0.29170607  0.40019697  1  0.099988  0  0.122742  0.095234  0  1.022605  0
H  H24  1  0.79465564  0.25759736  0.37542069  1  0.097782  0  0.110907  0.117781  0  1.009727  0
H  H25  1  0.70534445  0.75759627  0.12457948  1  0.09779  0  0.11091  0.117779  0  1.009735  0
H  H26  1  0.20534421  0.74240278  0.62457904  1  0.097786  0  0.110907  0.117776  0  1.009733  0
H  H27  1  0.29465540  0.24240154  0.87542025  1  0.097697  0  0.110906  0.117766  0  1.009776  0
H  H28  1  0.00039531  0.28482597  0.31120534  1  0.076565  0  0.117247  0.089276  0  0.996851  0
H  H29  1  0.49960517  0.78482571  0.18879450  1  0.076569  0  0.117242  0.089282  0  0.996859  0
H  H30  1  0.99960454  0.71517416  0.68879440  1  0.076562  0  0.117233  0.089271  0  0.996852  0
H  H31  1  0.50039561  0.21517442  0.81120579  1  0.07657  0  0.117241  0.089281  0  0.996841  0
H  H32  1  0.12975733  0.99865556  0.37989896  1  0.108759  0  0.117303  0.085904  0  1.019063  0
H  H33  1  0.37024228  0.49865593  0.12010141  1  0.108799  0  0.117336  0.085949  0  1.019071  0
H  H34  1  0.87024252  0.00134457  0.62010077  1  0.1088  0  0.117335  0.085936  0  1.019039  0
H  H35  1  0.62975570  0.50134497  0.87989887  1  0.108811  0  0.117324  0.085918  0  1.019031  0
H  H36  1  0.92691657  0.95823069  0.44185898  1  0.137189  0  0.113429  0.124626  0  1.013859  0
H  H37  1  0.57308359  0.45823024  0.05814117  1  0.137182  0  0.113443  0.124629  0  1.013823  0
H  H38  1  0.07308328  0.04176945  0.55814075  1  0.13719  0  0.113425  0.124619  0  1.01387  0
H  H39  1  0.42691439  0.54176835  0.94185966  1  0.137198  0  0.113433  0.124609  0  1.013846  0
H  H40  1  0.78812176  0.76782265  0.25881135  1  0.105054  0  0.10974  0.118565  0  1.013684  0
H  H41  1  0.71187834  0.26782297  0.24118883  1  0.10505  0  0.109735  0.118557  0  1.013691  0
H  H42  1  0.21187809  0.23217748  0.74118839  1  0.105055  0  0.109764  0.118601  0  1.013709  0
H  H43  1  0.28812151  0.73217716  0.75881147  1  0.105052  0  0.109738  0.118567  0  1.013684  0
H  H44  1  0.97537701  0.70129449  0.18992548  1  0.139161  0  0.11895  0.092773  0  1.019914  0
H  H45  1  0.52462307  0.20129399  0.31007470  1  0.139156  0  0.118945  0.092764  0  1.019926  0
H  H46  1  0.02462284  0.29870564  0.81007481  1  0.139153  0  0.118941  0.092755  0  1.019924  0
H  H47  1  0.47537678  0.79870614  0.68992559  1  0.139164  0  0.11895  0.092775  0  1.019913  0
H  H48  1  0.16694693  0.64276788  0.38687667  1  0.087086  0  0.118211  0.094141  0  0.995895  0
H  H49  1  0.33305257  0.14276748  0.11312373  1  0.087078  0  0.118213  0.094124  0  0.995893  0
H  H50  1  0.83305291  0.35723225  0.61312306  1  0.087081  0  0.118207  0.094127  0  0.995895  0
H  H51  1  0.66694728  0.85723188  0.88687656  1  0.087081  0  0.118207  0.094134  0  0.995896  0
H  H52  1  0.98474450  0.70429905  0.46352412  1  0.068051  0  0.110497  0.12251  0  0.99997  0
H  H53  1  0.51525464  0.20429937  0.03647606  1  0.068048  0  0.110494  0.122506  0  0.999998  0
H  H54  1  0.01525535  0.29570108  0.53647562  1  0.068045  0  0.110491  0.122501  0  0.999999  0
H  H55  1  0.48474521  0.79570076  0.96352423  1  0.068049  0  0.110496  0.122507  0  0.999993  0
C  C56  1  0.61027451  0.98267691  0.62668714  1  1.540471  0  0.22013  0.606398  0  4.184375  0
C  C57  1  0.88972572  0.48267647  0.87331303  1  1.5405  0  0.220098  0.606348  0  4.184435  0
C  C58  1  0.38972534  0.01732322  0.37331315  1  1.540492  0  0.220083  0.606293  0  4.184498  0
C  C59  1  0.11027506  0.51732289  0.12668727  1  1.540467  0  0.220096  0.606306  0  4.184459  0
C  C60  1  0.66327517  0.05198894  0.68278046  1  0.404498  0  0.074939  -0.006269  0  3.98706  0
C  C61  1  0.83672492  0.55198862  0.81721975  1  0.404507  0  0.074949  -0.00623  0  3.987051  0
C  C62  1  0.33672467  0.94801119  0.31721928  1  0.404517  0  0.074981  -0.006199  0  3.987055  0
C  C63  1  0.16327492  0.44801074  0.18278054  1  0.404495  0  0.074958  -0.00629  0  3.987116  0
C  C64  1  0.65604120  0.15907861  0.69413596  1  0.426566  0  0.081525  0.000324  0  3.970306  0
C  C65  1  0.84395893  0.65907906  0.80586423  1  0.426585  0  0.081528  0.000324  0  3.970326  0
C  C66  1  0.34395958  0.84092075  0.30586378  1  0.426558  0  0.081508  0.000302  0  3.970331  0
C  C67  1  0.15604091  0.34092107  0.19413606  1  0.426577  0  0.08151  0.000308  0  3.970334  0
C  C68  1  0.61058362  0.24736090  0.64838202  1  1.626148  0  0.225496  0.609937  0  4.203159  0
C  C69  1  0.88941654  0.74736135  0.85161761  1  1.625959  0  0.225483  0.609907  0  4.203217  0
C  C70  1  0.38941622  0.75263923  0.35161771  1  1.625952  0  0.2255  0.60992  0  4.203189  0
C  C71  1  0.11058331  0.25263878  0.14838213  1  1.626151  0  0.225469  0.609879  0  4.203256  0
C  C72  1  0.77996923  0.09162475  0.77838579  1  0.946734  0  0.212454  0.307491  0  4.002647  0
C  C73  1  0.72003088  0.59162520  0.72161441  1  0.946809  0  0.21242  0.307432  0  4.002766  0
C  C74  1  0.22003062  0.90837538  0.22161450  1  0.946734  0  0.212445  0.30748  0  4.002664  0
C  C75  1  0.27996990  0.40837493  0.27838533  1  0.94674  0  0.212409  0.307494  0  4.002597  0
C  C76  1  0.87482493  0.09125449  0.83766721  1  0.03194  0  -0.002282  -0.022716  0  3.996294  0
C  C77  1  0.62517518  0.59125415  0.66233299  1  0.031966  0  -0.00226  -0.022675  0  3.996337  0
C  C78  1  0.12517491  0.90874564  0.16233308  1  0.031959  0  -0.002258  -0.022641  0  3.996277  0
C  C79  1  0.37482560  0.40874521  0.33766731  1  0.031955  0  -0.002308  -0.022766  0  3.996408  0
C  C80  1  0.98457213  0.03221965  0.83629287  1  0.056901  0  -0.055887  -0.031914  0  3.909098  0
C  C81  1  0.51542796  0.53221929  0.66370734  1  0.056866  0  -0.05589  -0.03195  0  3.909132  0
C  C82  1  0.01542772  0.96778048  0.16370743  1  0.056878  0  -0.055896  -0.031953  0  3.909162  0
C  C83  1  0.48457189  0.46778084  0.33629295  1  0.056892  0  -0.055904  -0.031976  0  3.909191  0
C  C84  1  0.07465947  0.04729183  0.89192309  1  -0.065829  0  -0.083016  -0.135931  0  3.978942  0
C  C85  1  0.42534194  0.54729157  0.60807623  1  -0.065812  0  -0.083014  -0.135945  0  3.97887  0
C  C86  1  0.92534131  0.95270830  0.10807665  1  -0.065821  0  -0.083009  -0.135943  0  3.97893  0
C  C87  1  0.57465885  0.45270856  0.39192351  1  -0.065826  0  -0.083007  -0.135936  0  3.978871  0
C  C88  1  0.05654348  0.12409807  0.94493437  1  0.504535  0  0.053803  0.10867  0  3.968221  0
C  C89  1  0.44345609  0.62409783  0.55506549  1  0.50453  0  0.053756  0.108648  0  3.968229  0
C  C90  1  0.94345637  0.87590206  0.05506537  1  0.504514  0  0.053767  0.10868  0  3.96819  0
C  C91  1  0.55654376  0.37590230  0.44493480  1  0.504518  0  0.053762  0.108654  0  3.968182  0
C  C92  1  0.86233886  0.16284996  0.89530764  1  0.513231  0  0.053416  0.063863  0  3.950171  0
C  C93  1  0.63766221  0.66285041  0.60469201  1  0.513244  0  0.05341  0.063886  0  3.950175  0
C  C94  1  0.13766192  0.83715017  0.10469211  1  0.513246  0  0.053398  0.063834  0  3.950207  0
C  C95  1  0.36233858  0.33714972  0.39530773  1  0.5132  0  0.053418  0.063871  0  3.950251  0
C  C96  1  0.72249795  0.07922306  0.44914724  1  1.613236  0  0.230594  0.631785  0  4.155658  0
C  C97  1  0.77750115  0.57922124  0.05085183  1  1.613062  0  0.230607  0.631812  0  4.15559  0
C  C98  1  0.27750283  0.92077707  0.55085250  1  1.613076  0  0.230517  0.631601  0  4.15586  0
C  C99  1  0.22249683  0.42077658  0.94914789  1  1.613065  0  0.230549  0.631683  0  4.155758  0
C  C100  1  0.84553422  0.10490436  0.41286768  1  -0.061998  0  0.008915  0.022617  0  3.910882  0
C  C101  1  0.65446583  0.60490405  0.08713196  1  -0.062025  0  0.00891  0.022597  0  3.910847  0
C  C102  1  0.15446563  0.89509577  0.58713206  1  -0.062011  0  0.008914  0.022649  0  3.910833  0
C  C103  1  0.34553309  0.39509531  0.91286888  1  -0.062026  0  0.008885  0.022585  0  3.910807  0
C  C104  1  0.86721700  0.19856251  0.37669939  1  -0.025553  0  -0.078321  -0.146844  0  3.950272  0
C  C105  1  0.63278308  0.69856218  0.12330079  1  -0.025548  0  -0.078297  -0.146785  0  3.950244  0
C  C106  1  0.13278285  0.80143762  0.62330090  1  -0.025545  0  -0.078293  -0.146797  0  3.95023  0
C  C107  1  0.36721490  0.30143640  0.87669949  1  -0.025493  0  -0.078336  -0.146823  0  3.950196  0
C  C108  1  0.98127633  0.21391251  0.34170428  1  0.522829  0  0.048929  0.090371  0  3.93823  0
C  C109  1  0.51872375  0.71391293  0.15829590  1  0.52281  0  0.048891  0.090275  0  3.938242  0
C  C110  1  0.01872351  0.78608685  0.65829601  1  0.522815  0  0.048906  0.09031  0  3.9382  0
C  C111  1  0.48127610  0.28608720  0.84170439  1  0.522833  0  0.048922  0.090318  0  3.93816  0
C  C112  1  0.05330284  0.05396213  0.37919648  1  0.419745  0  0.052313  0.10224  0  3.927965  0
C  C113  1  0.44669757  0.55396187  0.12080450  1  0.419716  0  0.052301  0.102169  0  3.928025  0
C  C114  1  0.94669795  0.94603800  0.62080382  1  0.419682  0  0.05231  0.102203  0  3.928054  0
C  C115  1  0.55330134  0.44603826  0.87919634  1  0.419692  0  0.052322  0.102236  0  3.927949  0
C  C116  1  0.94140249  0.03172445  0.41399097  1  0.04761  0  -0.074459  -0.137688  0  3.933293  0
C  C117  1  0.55859754  0.53172411  0.08600923  1  0.047607  0  -0.074479  -0.137678  0  3.933244  0
C  C118  1  0.05859736  0.96827568  0.58600988  1  0.047619  0  -0.074481  -0.137698  0  3.933351  0
C  C119  1  0.44140138  0.46827525  0.91399050  1  0.047622  0  -0.074484  -0.137694  0  3.933287  0
C  C120  1  0.76443236  0.78183502  0.40905427  1  1.55979  0  0.186097  0.557755  0  4.256754  0
C  C121  1  0.73556680  0.28183538  0.09094589  1  1.55979  0  0.186065  0.557709  0  4.256871  0
C  C122  1  0.23556748  0.21816511  0.59094602  1  1.55979  0  0.186068  0.557753  0  4.256819  0
C  C123  1  0.26443304  0.71816476  0.90905440  1  1.559791  0  0.186074  0.557745  0  4.256828  0
C  C124  1  0.87368369  0.74123498  0.36615696  1  -0.055528  0  0.005224  0.024672  0  3.943101  0
C  C125  1  0.62631546  0.24123530  0.13384321  1  -0.055517  0  0.005236  0.024697  0  3.943089  0
C  C126  1  0.12631615  0.25876515  0.63384333  1  -0.055519  0  0.00517  0.024612  0  3.942993  0
C  C127  1  0.37368439  0.75876483  0.86615653  1  -0.055523  0  0.005231  0.024686  0  3.943093  0
C  C128  1  0.87073413  0.73996682  0.28846971  1  -0.036855  0  -0.075798  -0.137142  0  3.938265  0
C  C129  1  0.62926596  0.23996712  0.21153047  1  -0.036854  0  -0.075791  -0.137131  0  3.938259  0
C  C130  1  0.12926665  0.26003332  0.71153059  1  -0.036877  0  -0.075768  -0.137166  0  3.938228  0
C  C131  1  0.37073389  0.76003301  0.78846983  1  -0.036867  0  -0.075807  -0.13717  0  3.938287  0
C  C132  1  0.97439502  0.70378224  0.25050920  1  0.473628  0  0.045804  0.088909  0  3.931048  0
C  C133  1  0.52560505  0.20378174  0.24949098  1  0.473634  0  0.045807  0.088904  0  3.931067  0
C  C134  1  0.02560576  0.29621789  0.74949110  1  0.473628  0  0.045855  0.089016  0  3.930975  0
C  C135  1  0.47439479  0.79621762  0.75050931  1  0.473634  0  0.045814  0.088921  0  3.931063  0
C  C136  1  0.08069690  0.67044244  0.36081211  1  0.439802  0  0.043003  0.083955  0  3.949413  0
C  C137  1  0.41930261  0.17044205  0.13918774  1  0.439803  0  0.043009  0.083979  0  3.949356  0
C  C138  1  0.91930295  0.32955769  0.63918763  1  0.439805  0  0.043019  0.084004  0  3.949349  0
C  C139  1  0.58069724  0.82955808  0.86081200  1  0.4398  0  0.043008  0.083953  0  3.949384  0
C  C140  1  0.98070035  0.70461302  0.40292878  1  0.076494  0  -0.079818  -0.144542  0  3.948089  0
C  C141  1  0.51929879  0.20461332  0.09707084  1  0.076491  0  -0.079827  -0.144561  0  3.948102  0
C  C142  1  0.01929950  0.29538712  0.59707096  1  0.076497  0  -0.079827  -0.144545  0  3.948095  0
C  C143  1  0.48070105  0.79538681  0.90292890  1  0.076501  0  -0.079818  -0.144537  0  3.948088  0
N  N144  1  0.74262990  0.01114898  0.73589569  1  -1.205497  0  -0.341373  -0.354014  0  3.461921  0
N  N145  1  0.75737018  0.51114942  0.76410452  1  -1.205611  0  -0.341356  -0.354001  0  3.46197  0
N  N146  1  0.25737088  0.98885115  0.26410405  1  -1.205508  0  -0.341351  -0.353999  0  3.461979  0
N  N147  1  0.24262966  0.48885071  0.23589577  1  -1.205485  0  -0.341314  -0.353915  0  3.461895  0
N  N148  1  0.72737859  0.18199984  0.75558532  1  -1.21659  0  -0.342165  -0.376678  0  3.480767  0
N  N149  1  0.77262155  0.68200029  0.74441488  1  -1.216585  0  -0.342172  -0.376687  0  3.480834  0
N  N150  1  0.27262126  0.81800029  0.24441498  1  -1.216589  0  -0.342178  -0.376694  0  3.480791  0
N  N151  1  0.22737924  0.31799984  0.25558486  1  -1.216613  0  -0.342159  -0.37669  0  3.480779  0
N  N152  1  0.95206843  0.18191730  0.94607458  1  -1.270049  0  -0.389377  -0.346731  0  3.532603  0
N  N153  1  0.54793171  0.68191697  0.55392506  1  -1.270041  0  -0.389381  -0.346781  0  3.532629  0
N  N154  1  0.04793142  0.81808283  0.05392515  1  -1.270046  0  -0.389381  -0.346779  0  3.532652  0
N  N155  1  0.45206907  0.31808239  0.44607469  1  -1.27001  0  -0.389367  -0.346727  0  3.532618  0
N  N156  1  0.07314130  0.14282374  0.34241512  1  -1.256511  0  -0.311943  -0.221572  0  3.501661  0
N  N157  1  0.42685913  0.64282425  0.15758529  1  -1.256516  0  -0.311948  -0.221521  0  3.501664  0
N  N158  1  0.92685855  0.85717639  0.65758517  1  -1.256489  0  -0.311945  -0.221539  0  3.501648  0
N  N159  1  0.57313978  0.35717588  0.84241444  1  -1.256473  0  -0.311931  -0.221523  0  3.501582  0
N  N160  1  0.07854446  0.67069315  0.28586433  1  -1.237313  0  -0.314825  -0.221728  0  3.498938  0
N  N161  1  0.42145505  0.17069275  0.21413607  1  -1.237315  0  -0.314833  -0.221716  0  3.498906  0
N  N162  1  0.92145539  0.32930698  0.71413596  1  -1.237293  0  -0.314869  -0.221817  0  3.498871  0
N  N163  1  0.57854480  0.82930738  0.78586422  1  -1.237318  0  -0.314835  -0.221719  0  3.498917  0
O  O164  1  0.64737796  0.88814015  0.62563326  1  -1.180263  0  -0.332954  -0.601801  0  2.325574  0
O  O165  1  0.85262318  0.38814048  0.87436637  1  -1.180289  0  -0.33293  -0.601763  0  2.325588  0
O  O166  1  0.35262282  0.11185998  0.37436704  1  -1.180291  0  -0.332949  -0.601772  0  2.325598  0
O  O167  1  0.14737761  0.61185966  0.12563338  1  -1.180258  0  -0.332946  -0.601766  0  2.325593  0
O  O168  1  0.53144684  0.01307823  0.57777666  1  -1.199757  0  -0.428951  -0.704019  0  2.50666  0
O  O169  1  0.96855418  0.51307869  0.92222356  1  -1.199763  0  -0.428949  -0.704037  0  2.506695  0
O  O170  1  0.46855394  0.98692190  0.42222308  1  -1.199724  0  -0.428933  -0.703986  0  2.506715  0
O  O171  1  0.03144660  0.48692221  0.07777674  1  -1.199738  0  -0.428939  -0.703971  0  2.506644  0
O  O172  1  0.56156974  0.23295664  0.58493687  1  -1.191282  0  -0.418371  -0.652699  0  2.404715  0
O  O173  1  0.93843135  0.73295710  0.91506333  1  -1.191274  0  -0.418355  -0.652661  0  2.404716  0
O  O174  1  0.43843104  0.76704349  0.41506288  1  -1.19127  0  -0.418362  -0.652673  0  2.404716  0
O  O175  1  0.06156943  0.26704304  0.08493697  1  -1.191278  0  -0.418349  -0.652641  0  2.404731  0
O  O176  1  0.63254123  0.33713044  0.67442259  1  -1.164263  0  -0.310813  -0.53136  0  2.334162  0
O  O177  1  0.86745896  0.83713090  0.82557704  1  -1.16409  0  -0.310814  -0.531356  0  2.334207  0
O  O178  1  0.36745862  0.66286892  0.32557715  1  -1.164082  0  -0.310816  -0.531342  0  2.334165  0
O  O179  1  0.13254089  0.16286924  0.17442270  1  -1.164277  0  -0.310808  -0.531341  0  2.334211  0
O  O180  1  0.71710084  0.99011935  0.47816596  1  -1.189838  0  -0.382623  -0.647255  0  2.348815  0
O  O181  1  0.78289559  0.49011973  0.02183305  1  -1.18984  0  -0.382607  -0.647228  0  2.348788  0
O  O182  1  0.28289901  0.00988078  0.52183433  1  -1.189843  0  -0.382609  -0.647187  0  2.348851  0
O  O183  1  0.21710145  0.50987963  0.97816666  1  -1.189767  0  -0.382599  -0.647178  0  2.348777  0
O  O184  1  0.63693759  0.14699550  0.44746185  1  -1.174936  0  -0.366074  -0.637819  0  2.276525  0
O  O185  1  0.86306248  0.64699446  0.05253722  1  -1.174678  0  -0.366078  -0.637832  0  2.276461  0
O  O186  1  0.36306320  0.85300463  0.55253789  1  -1.174749  0  -0.366007  -0.637711  0  2.276632  0
O  O187  1  0.13693550  0.35300490  0.94746250  1  -1.174767  0  -0.366031  -0.637753  0  2.276598  0
O  O188  1  0.76459711  0.77008281  0.47968416  1  -1.156467  0  -0.382998  -0.634207  0  2.214585  0
O  O189  1  0.73540298  0.27008241  0.02031602  1  -1.156468  0  -0.382988  -0.634176  0  2.214602  0
O  O190  1  0.23540273  0.22991732  0.52031613  1  -1.156461  0  -0.382982  -0.634193  0  2.214605  0
O  O191  1  0.26459686  0.72991695  0.97968427  1  -1.156475  0  -0.382993  -0.634199  0  2.214605  0
O  O192  1  0.67638467  0.82688602  0.37390836  1  -1.162622  0  -0.369951  -0.601442  0  2.166727  0
O  O193  1  0.82361452  0.32688639  0.12609125  1  -1.162611  0  -0.369929  -0.601435  0  2.166804  0
O  O194  1  0.32361518  0.17311411  0.62609138  1  -1.162621  0  -0.369939  -0.601452  0  2.166786  0
O  O195  1  0.17638533  0.67311374  0.87390904  1  -1.162605  0  -0.36992  -0.601436  0  2.166799  0
