# generated using pymatgen
data_Zn4H26C48O13F2
_symmetry_space_group_name_H-M   'P 1'
_cell_length_a   18.48051165
_cell_length_b   18.48236512
_cell_length_c   23.80781786
_cell_angle_alpha   112.80592248
_cell_angle_beta   112.84246273
_cell_angle_gamma   89.98756187
_symmetry_Int_Tables_number   1
_chemical_formula_structural   Zn4H26C48O13F2
_chemical_formula_sum   'Zn8 H52 C96 O26 F4'
_cell_volume   6799.36733128
_cell_formula_units_Z   2
loop_
 _symmetry_equiv_pos_site_id
 _symmetry_equiv_pos_as_xyz
  1  'x, y, z'
loop_
 _atom_site_type_symbol
 _atom_site_label
 _atom_site_symmetry_multiplicity
 _atom_site_fract_x
 _atom_site_fract_y
 _atom_site_fract_z
 _atom_site_occupancy
 _atom_site_pbe_bader_charge
 _atom_site_pbe_bader_spin_density
 _atom_site_pbe_cm5_charge
 _atom_site_pbe_ddec_charge
 _atom_site_pbe_ddec_spin_density
 _atom_site_pbe_ddec_sum_bond_order
 _atom_site_pbe_magmom
Zn  Zn0  1  0.52918210  0.11510021  0.05793138  1  1.314205  0  0.66965  0.956849  0  2.398517  0
Zn  Zn1  1  0.94286419  0.52869355  0.05792033  1  1.311797  0  0.670516  0.958332  0  2.395853  0
Zn  Zn2  1  0.52890098  0.94280652  0.05803684  1  1.31731  0  0.67046  0.958543  0  2.394231  0
Zn  Zn3  1  0.11534016  0.52917014  0.05818525  1  1.314706  0  0.669971  0.958091  0  2.395117  0
Zn  Zn4  1  0.38502910  0.97192134  0.94396858  1  1.314188  0  0.670192  0.956336  0  2.383104  0
Zn  Zn5  1  0.97198321  0.38499108  0.94392224  1  1.313487  0  0.669978  0.956216  0  2.383175  0
Zn  Zn6  1  0.55902744  0.97206720  0.94389342  1  1.305343  0  0.669675  0.955885  0  2.383845  0
Zn  Zn7  1  0.97218001  0.55899069  0.94397150  1  1.305288  0  0.669868  0.956081  0  2.384396  0
H  H8  1  0.67999157  0.29959402  0.07465288  1  0.092763  0  0.107214  0.114209  0  0.992901  0
H  H9  1  0.77452972  0.67923973  0.07417298  1  0.087774  0  0.107701  0.114642  0  0.992695  0
H  H10  1  0.39485639  0.77503086  0.07460905  1  0.074295  0  0.107737  0.114953  0  0.993247  0
H  H11  1  0.29976502  0.39488600  0.07418496  1  0.104725  0  0.107314  0.114554  0  0.994124  0
H  H12  1  0.67932750  0.77440623  0.07413027  1  0.089038  0  0.107308  0.11398  0  0.993425  0
H  H13  1  0.77523550  0.39469900  0.07460870  1  0.073117  0  0.107846  0.115133  0  0.993545  0
H  H14  1  0.39501612  0.29969760  0.07420765  1  0.104351  0  0.107247  0.114396  0  0.994115  0
H  H15  1  0.29972639  0.67982217  0.07463700  1  0.089842  0  0.107343  0.114594  0  0.992476  0
H  H16  1  0.79180109  0.16485127  0.85997233  1  0.044984  0  0.098393  0.108787  0  0.980491  0
H  H17  1  0.69609558  0.79265278  0.86045100  1  0.070172  0  0.098687  0.109298  0  0.979702  0
H  H18  1  0.06821649  0.69523278  0.86000681  1  0.06194  0  0.098308  0.108498  0  0.98072  0
H  H19  1  0.16460759  0.06796203  0.86043943  1  0.047367  0  0.098747  0.109564  0  0.979385  0
H  H20  1  0.79270520  0.69607475  0.86048219  1  0.070601  0  0.098744  0.109462  0  0.979928  0
H  H21  1  0.69501511  0.06829496  0.85993360  1  0.059886  0  0.098232  0.108527  0  0.980527  0
H  H22  1  0.06794131  0.16455587  0.86040267  1  0.046985  0  0.09881  0.109611  0  0.979267  0
H  H23  1  0.16480086  0.79198589  0.86007346  1  0.043646  0  0.098518  0.109329  0  0.97999  0
H  H24  1  0.87108495  0.15050937  0.92509241  1  0.047752  0  0.096554  0.105094  0  0.98613  0
H  H25  1  0.77528215  0.87185047  0.92595789  1  0.041891  0  0.096017  0.103963  0  0.986913  0
H  H26  1  0.05398666  0.77444208  0.92518499  1  0.058618  0  0.096303  0.104568  0  0.986884  0
H  H27  1  0.15100298  0.05432059  0.92602543  1  0.056125  0  0.096457  0.105198  0  0.985734  0
H  H28  1  0.87194368  0.77521823  0.92599007  1  0.07056  0  0.096116  0.103983  0  0.986779  0
H  H29  1  0.77430371  0.05392805  0.92502743  1  0.055372  0  0.096665  0.105109  0  0.986744  0
H  H30  1  0.05432894  0.15091541  0.92598915  1  0.057344  0  0.096448  0.105182  0  0.985743  0
H  H31  1  0.15061342  0.87119859  0.92528642  1  0.046061  0  0.096523  0.1051  0  0.986316  0
H  H32  1  0.87451560  0.48497702  0.73587572  1  0.114277  0  0.118488  0.151782  0  0.980356  0
H  H33  1  0.25141760  0.86177472  0.73651752  1  0.110422  0  0.118484  0.151427  0  0.981628  0
H  H34  1  0.86264814  0.25131270  0.73595361  1  0.114019  0  0.118272  0.15166  0  0.97972  0
H  H35  1  0.48441728  0.87380177  0.73520651  1  0.123809  0  0.118464  0.151146  0  0.980362  0
H  H36  1  0.65940688  0.24523925  0.26433718  1  0.102135  0  0.109984  0.122879  0  0.995749  0
H  H37  1  0.01841661  0.60724869  0.26448368  1  0.10857  0  0.109319  0.120532  0  0.996947  0
H  H38  1  0.60668416  0.01959040  0.26527209  1  0.114886  0  0.110076  0.120668  0  0.996619  0
H  H39  1  0.24513445  0.65973237  0.26519070  1  0.114663  0  0.109336  0.120343  0  0.997084  0
H  H40  1  0.62949188  0.37108871  0.35009944  1  0.059128  0  0.101448  0.101179  0  0.997725  0
H  H41  1  0.69274388  0.51388696  0.40555044  1  0.069759  0  0.09976  0.094792  0  0.995712  0
H  H42  1  0.83708020  0.55562411  0.48409349  1  0.063237  0  0.098536  0.092616  0  1.006535  0
H  H43  1  0.91742111  0.45362791  0.50657051  1  0.024201  0  0.102275  0.097969  0  0.990591  0
H  H44  1  0.85368627  0.31132115  0.45183524  1  0.054826  0  0.102074  0.103834  0  0.994749  0
H  H45  1  0.02614894  0.54449677  0.35055638  1  0.069774  0  0.101413  0.101147  0  0.997377  0
H  H46  1  0.93708977  0.54602957  0.40684015  1  0.066954  0  0.098547  0.094452  0  1.00758  0
H  H47  1  0.92267986  0.67530851  0.48560631  1  0.04138  0  0.096381  0.089028  0  1.010109  0
H  H48  1  0.99787426  0.80259947  0.50779790  1  0.065447  0  0.100514  0.096505  0  0.990042  0
H  H49  1  0.08741777  0.80058179  0.45227177  1  0.084272  0  0.10038  0.100926  0  0.998682  0
H  H50  1  0.72598077  0.98121465  0.35094011  1  0.048854  0  0.101579  0.101616  0  0.998233  0
H  H51  1  0.72226938  0.89461413  0.40807077  1  0.050997  0  0.100645  0.096266  0  0.994546  0
H  H52  1  0.65793093  0.93055091  0.48759186  1  0.039769  0  0.096869  0.089558  0  1.009863  0
H  H53  1  0.59742063  0.05335299  0.50944337  1  0.083854  0  0.100193  0.094631  0  0.993934  0
H  H54  1  0.60269373  0.14044131  0.45329770  1  0.059794  0  0.101765  0.103406  0  0.996096  0
H  H55  1  0.36820684  0.62983172  0.35114603  1  0.066041  0  0.101199  0.100856  0  0.999071  0
H  H56  1  0.51199713  0.69027037  0.40831350  1  0.077487  0  0.099947  0.094838  0  0.995393  0
H  H57  1  0.55587085  0.83403384  0.48779734  1  0.058887  0  0.096675  0.088801  0  1.010844  0
H  H58  1  0.45510527  0.91674355  0.50957401  1  0.057548  0  0.10017  0.094492  0  0.993783  0
H  H59  1  0.31179094  0.85586841  0.45316613  1  0.070301  0  0.100591  0.100842  0  0.9989  0
C  C60  1  0.40976088  0.90935157  0.81887818  1  1.598894  0  0.22814  0.603408  0  4.160784  0
C  C61  1  0.90971808  0.40959880  0.81889321  1  1.595883  0  0.22756  0.602464  0  4.162278  0
C  C62  1  0.87251574  0.37209775  0.74381380  1  -0.033042  0  -0.012664  0.018612  0  3.994518  0
C  C63  1  0.37193420  0.87185175  0.74380126  1  -0.029189  0  -0.012451  0.019059  0  3.993651  0
C  C64  1  0.80222825  0.30094387  0.60148936  1  0.229701  0  -0.011142  -0.068381  0  4.128616  0
C  C65  1  0.29970199  0.80190469  0.60139000  1  0.085824  0  -0.011475  -0.068968  0  4.129993  0
C  C66  1  0.76731449  0.26576449  0.53095701  1  -0.262526  0  -0.040988  -0.074256  0  4.126597  0
C  C67  1  0.26384656  0.76803952  0.53084934  1  0.072655  0  -0.040459  -0.073632  0  4.121802  0
C  C68  1  0.73670910  0.23525148  0.46964316  1  -0.02619  0  -0.022239  -0.064961  0  4.116283  0
C  C69  1  0.23246652  0.74008554  0.46957518  1  -0.32555  0  -0.023011  -0.065152  0  4.116309  0
C  C70  1  0.69923542  0.24634711  0.36264888  1  -0.042264  0  0.005751  0.040922  0  3.950666  0
C  C71  1  0.11439553  0.67065647  0.36268719  1  0.007564  0  0.006393  0.042692  0  3.948499  0
C  C72  1  0.66645261  0.11711551  0.36315467  1  0.097347  0  0.007494  0.040965  0  3.949168  0
C  C73  1  0.24459360  0.70214552  0.36306462  1  -0.088216  0  0.006013  0.042022  0  3.946899  0
C  C74  1  0.66166265  0.21031645  0.29263122  1  -0.066035  0  -0.080238  -0.146111  0  3.950829  0
C  C75  1  0.08167826  0.63297127  0.29271032  1  -0.014139  0  -0.079813  -0.144088  0  3.952217  0
C  C76  1  0.63273412  0.08278253  0.29310885  1  -0.152511  0  -0.079735  -0.141421  0  3.949226  0
C  C77  1  0.20959160  0.66264903  0.29311564  1  0.058373  0  -0.079823  -0.144296  0  3.948314  0
C  C78  1  0.62926695  0.12888688  0.25766145  1  0.107339  0  -0.017856  -0.025636  0  4.00813  0
C  C79  1  0.12850895  0.62879873  0.25773527  1  -0.108998  0  -0.017354  -0.024703  0  4.007666  0
C  C80  1  0.70093619  0.19969000  0.39865868  1  0.097921  0  0.009562  0.047374  0  4.020521  0
C  C81  1  0.19684204  0.70582543  0.39859591  1  0.140691  0  0.010446  0.047384  0  4.017051  0
C  C82  1  0.59146683  0.09134906  0.18279404  1  1.508178  0  0.227356  0.605417  0  4.166451  0
C  C83  1  0.09150226  0.59055779  0.18286154  1  1.597954  0  0.226522  0.605009  0  4.166033  0
C  C84  1  0.36272770  0.13896789  0.00093652  1  1.572602  0  0.226583  0.60696  0  4.178274  0
C  C85  1  0.86192765  0.36233061  0.00069251  1  1.557112  0  0.227677  0.609557  0  4.178661  0
C  C86  1  0.63844161  0.86208085  0.00099678  1  1.550849  0  0.22767  0.60839  0  4.178072  0
C  C87  1  0.13910184  0.63831058  0.00089859  1  1.567573  0  0.227559  0.609863  0  4.180588  0
C  C88  1  0.36244000  0.86191407  0.00079173  1  1.557451  0  0.228209  0.609742  0  4.179015  0
C  C89  1  0.86215210  0.63833252  0.00098522  1  1.547082  0  0.227926  0.608968  0  4.177529  0
C  C90  1  0.63832163  0.13905306  0.00083442  1  1.565469  0  0.227091  0.608681  0  4.181281  0
C  C91  1  0.13899933  0.36261681  0.00091996  1  1.574318  0  0.22707  0.607872  0  4.177511  0
C  C92  1  0.73572797  0.17052450  0.95969599  1  -0.029762  0  -0.003225  0.063649  0  3.884565  0
C  C93  1  0.78949161  0.73596429  0.95994505  1  0.042263  0  -0.003145  0.063741  0  3.883287  0
C  C94  1  0.22397423  0.78918506  0.95974775  1  -0.005067  0  -0.003233  0.063863  0  3.883811  0
C  C95  1  0.17067724  0.22407323  0.95985434  1  -0.053042  0  -0.003585  0.062868  0  3.882781  0
C  C96  1  0.73603651  0.78941191  0.95993326  1  -0.071384  0  -0.003067  0.063024  0  3.883624  0
C  C97  1  0.78920614  0.22390474  0.95970026  1  -0.005285  0  -0.002865  0.06401  0  3.883661  0
C  C98  1  0.22413711  0.17064993  0.95987068  1  0.066446  0  -0.003855  0.06274  0  3.883016  0
C  C99  1  0.17057241  0.73571854  0.95973294  1  -0.027435  0  -0.003108  0.063781  0  3.88451  0
C  C100  1  0.69512463  0.19559292  0.00054005  1  0.013644  0  -0.014077  -0.080124  0  3.984555  0
C  C101  1  0.80506857  0.69498261  0.00054284  1  -0.034632  0  -0.013582  -0.079683  0  3.983018  0
C  C102  1  0.30544678  0.80501747  0.00054156  1  -0.06775  0  -0.013775  -0.079937  0  3.984751  0
C  C103  1  0.19567692  0.30557282  0.00049017  1  -0.053868  0  -0.013362  -0.078545  0  3.979689  0
C  C104  1  0.69508160  0.80497914  0.00052279  1  -0.037827  0  -0.013587  -0.079138  0  3.981348  0
C  C105  1  0.80509856  0.30533982  0.00051001  1  -0.040103  0  -0.014173  -0.079936  0  3.984541  0
C  C106  1  0.30566862  0.19562935  0.00049987  1  -0.053967  0  -0.013108  -0.077851  0  3.979505  0
C  C107  1  0.19566316  0.69505478  0.00055936  1  0.013586  0  -0.013857  -0.079987  0  3.984514  0
C  C108  1  0.71082154  0.27808638  0.04209537  1  -0.074738  0  -0.082602  -0.098207  0  3.978957  0
C  C109  1  0.76375233  0.71032485  0.04180780  1  0.052341  0  -0.082633  -0.097792  0  3.981794  0
C  C110  1  0.33146315  0.76400514  0.04207361  1  0.028264  0  -0.082757  -0.097786  0  3.980216  0
C  C111  1  0.27825980  0.33148868  0.04180629  1  -0.106902  0  -0.08381  -0.099509  0  3.982  0
C  C112  1  0.71043206  0.76364489  0.04180199  1  -0.068145  0  -0.083308  -0.098606  0  3.981785  0
C  C113  1  0.76417574  0.33133029  0.04209112  1  0.001674  0  -0.083431  -0.09878  0  3.981845  0
C  C114  1  0.33159079  0.27818345  0.04181264  1  0.012822  0  -0.08347  -0.099417  0  3.981727  0
C  C115  1  0.27819786  0.71067130  0.04207966  1  -0.072498  0  -0.082245  -0.098241  0  3.978245  0
C  C116  1  0.80873343  0.15929150  0.90754646  1  -0.005273  0  -0.151298  -0.199431  0  3.887443  0
C  C117  1  0.74898424  0.80945091  0.90815338  1  -0.073672  0  -0.150115  -0.197186  0  3.887574  0
C  C118  1  0.09881614  0.74825985  0.90762564  1  -0.029613  0  -0.150408  -0.197507  0  3.886968  0
C  C119  1  0.15943834  0.09887864  0.90814222  1  0.037343  0  -0.150578  -0.199165  0  3.887335  0
C  C120  1  0.80951762  0.74892657  0.90817136  1  -0.017951  0  -0.150513  -0.197976  0  3.888288  0
C  C121  1  0.74813104  0.09881063  0.90752420  1  -0.024059  0  -0.150718  -0.198217  0  3.886782  0
C  C122  1  0.09888827  0.15938595  0.90812041  1  -0.049665  0  -0.150648  -0.199069  0  3.8869  0
C  C123  1  0.15932428  0.80885437  0.90766715  1  -0.001548  0  -0.151222  -0.200096  0  3.887145  0
C  C124  1  0.82446167  0.38443839  0.63939448  1  0.371639  0  0.109871  0.268487  0  4.039105  0
C  C125  1  0.25468705  0.81689849  0.63976675  1  0.387382  0  0.109635  0.268379  0  4.040743  0
C  C126  1  0.81742705  0.25534599  0.63942793  1  0.467105  0  0.108922  0.266964  0  4.038136  0
C  C127  1  0.38331499  0.82392676  0.63899992  1  0.546209  0  0.110136  0.268613  0  4.039868  0
C  C128  1  0.85859826  0.42038164  0.70881466  1  0.135071  0  -0.098212  -0.245186  0  3.993704  0
C  C129  1  0.28862892  0.85108387  0.70917341  1  0.132076  0  -0.098671  -0.246041  0  3.996103  0
C  C130  1  0.85183443  0.28884604  0.70886143  1  0.032318  0  -0.09835  -0.245743  0  3.992287  0
C  C131  1  0.41975375  0.85795108  0.70842937  1  -0.077599  0  -0.098305  -0.244858  0  3.992288  0
C  C132  1  0.73718958  0.33164837  0.39744750  1  -0.078758  0  -0.010028  0.067657  0  4.00723  0
C  C133  1  0.69271215  0.38939918  0.38435094  1  -0.043141  0  -0.091761  -0.133356  0  3.983536  0
C  C134  1  0.72835070  0.46957910  0.41557252  1  -0.01235  0  -0.095996  -0.085574  0  4.052146  0
C  C135  1  0.80918502  0.49298053  0.45966760  1  -0.033791  0  -0.095761  -0.092151  0  4.039004  0
C  C136  1  0.85415018  0.43580684  0.47251135  1  -0.06043  0  -0.094756  -0.082822  0  4.042296  0
C  C137  1  0.81837706  0.35582835  0.44192015  1  0.019244  0  -0.089112  -0.126302  0  3.980102  0
C  C138  1  0.06278238  0.67243571  0.39764830  1  -0.004971  0  -0.01101  0.065755  0  4.008645  0
C  C139  1  0.01947424  0.60105983  0.38484627  1  -0.053352  0  -0.091424  -0.130313  0  3.976925  0
C  C140  1  0.96961274  0.60198340  0.41655253  1  -0.070764  0  -0.098142  -0.087552  0  4.045758  0
C  C141  1  0.96166987  0.67445356  0.46083326  1  -0.064811  0  -0.098383  -0.095809  0  4.042126  0
C  C142  1  0.00394875  0.74580909  0.47340447  1  -0.035868  0  -0.094993  -0.078914  0  4.042744  0
C  C143  1  0.05448059  0.74481638  0.44236756  1  -0.033674  0  -0.089984  -0.127169  0  3.987352  0
C  C144  1  0.66504040  0.06686318  0.39858440  1  0.021189  0  -0.009931  0.06768  0  4.00715  0
C  C145  1  0.69771866  0.99680283  0.38568758  1  -0.072594  0  -0.092385  -0.133457  0  3.98274  0
C  C146  1  0.69562892  0.94827051  0.41786236  1  -0.023743  0  -0.096097  -0.086557  0  4.050889  0
C  C147  1  0.65976599  0.96854819  0.46256207  1  -0.030929  0  -0.095565  -0.090781  0  4.038694  0
C  C148  1  0.62615441  0.03760073  0.47504295  1  -0.072616  0  -0.094261  -0.079131  0  4.041632  0
C  C149  1  0.62916445  0.08669811  0.44362009  1  -0.05162  0  -0.090038  -0.127436  0  3.982141  0
C  C150  1  0.33031668  0.73865863  0.39848083  1  0.046492  0  -0.008337  0.069127  0  4.00365  0
C  C151  1  0.38743931  0.69284684  0.38578047  1  -0.022042  0  -0.091495  -0.132208  0  3.981928  0
C  C152  1  0.46819721  0.72686229  0.41802643  1  -0.093932  0  -0.095979  -0.085558  0  4.049861  0
C  C153  1  0.49279841  0.80736637  0.46272150  1  -0.050824  0  -0.094846  -0.089499  0  4.037761  0
C  C154  1  0.43632452  0.85366693  0.47513588  1  -0.019597  0  -0.094579  -0.079111  0  4.042882  0
C  C155  1  0.35575726  0.81952661  0.44356076  1  -0.109337  0  -0.090171  -0.126758  0  3.982685  0
O  O156  1  0.50026383  0.00016174  0.00034429  1  -1.227814  0  -0.572318  -1.026797  0  2.543913  0
O  O157  1  0.00035906  0.50014739  0.00038057  1  -1.223493  0  -0.572701  -1.027514  0  2.543977  0
O  O158  1  0.48586956  0.92456330  0.84756700  1  -1.161232  0  -0.314136  -0.542903  0  2.331028  0
O  O159  1  0.92478298  0.48566558  0.84771157  1  -1.160318  0  -0.313618  -0.542598  0  2.333026  0
O  O160  1  0.36260852  0.92306326  0.84781621  1  -1.172464  0  -0.314749  -0.5435  0  2.333707  0
O  O161  1  0.92322555  0.36228199  0.84769120  1  -1.170088  0  -0.314462  -0.542524  0  2.332264  0
O  O162  1  0.57933956  0.13839715  0.15370951  1  -1.180072  0  -0.315724  -0.544698  0  2.341028  0
O  O163  1  0.01543095  0.57306780  0.15363576  1  -1.16496  0  -0.314633  -0.543938  0  2.340487  0
O  O164  1  0.57439694  0.01528545  0.15385425  1  -1.167496  0  -0.31524  -0.544255  0  2.338355  0
O  O165  1  0.13879753  0.57874101  0.15403026  1  -1.179906  0  -0.31557  -0.544647  0  2.338375  0
O  O166  1  0.33326454  0.06596017  0.95992004  1  -1.172118  0  -0.312332  -0.542556  0  2.331333  0
O  O167  1  0.89451258  0.33275247  0.96010883  1  -1.154253  0  -0.312897  -0.543956  0  2.330454  0
O  O168  1  0.62696886  0.89421973  0.96003438  1  -1.146569  0  -0.312931  -0.543183  0  2.330346  0
O  O169  1  0.06591771  0.62736337  0.96031776  1  -1.166792  0  -0.312952  -0.544164  0  2.332541  0
O  O170  1  0.33279187  0.89459753  0.96025612  1  -1.154113  0  -0.312981  -0.543736  0  2.330572  0
O  O171  1  0.89422526  0.62683794  0.96000788  1  -1.147139  0  -0.312911  -0.543133  0  2.330638  0
O  O172  1  0.62734083  0.06590065  0.96027905  1  -1.167689  0  -0.312613  -0.543501  0  2.332615  0
O  O173  1  0.06595573  0.33313726  0.95991462  1  -1.172326  0  -0.312563  -0.54246  0  2.331652  0
O  O174  1  0.60633528  0.87436260  0.04188516  1  -1.180056  0  -0.314593  -0.544037  0  2.342647  0
O  O175  1  0.16784590  0.60551398  0.04124373  1  -1.174509  0  -0.314647  -0.544337  0  2.343945  0
O  O176  1  0.43570682  0.16753144  0.04187304  1  -1.17827  0  -0.314206  -0.543658  0  2.340565  0
O  O177  1  0.87343359  0.43541861  0.04096082  1  -1.176392  0  -0.314843  -0.54476  0  2.34342  0
O  O178  1  0.60551683  0.16781789  0.04114188  1  -1.171012  0  -0.314598  -0.543692  0  2.343795  0
O  O179  1  0.16757460  0.43556360  0.04182535  1  -1.176196  0  -0.314082  -0.544162  0  2.340265  0
O  O180  1  0.43557167  0.87342014  0.04105462  1  -1.177332  0  -0.315156  -0.544762  0  2.343305  0
O  O181  1  0.87447110  0.60619844  0.04189720  1  -1.179825  0  -0.314865  -0.54439  0  2.340792  0
F  F182  1  0.81110460  0.43084435  0.60531584  1  -0.641903  0  -0.096246  -0.135072  0  1.336186  0
F  F183  1  0.17412523  0.79686056  0.60610679  1  -0.623478  0  -0.093932  -0.134305  0  1.353108  0
F  F184  1  0.79710997  0.17488502  0.60538770  1  -0.649256  0  -0.095155  -0.133982  0  1.339394  0
F  F185  1  0.42936159  0.81071008  0.60463871  1  -0.638051  0  -0.095686  -0.134659  0  1.340601  0
