# generated using pymatgen
data_CoH32C32(N4O3)2
_symmetry_space_group_name_H-M   'P 1'
_cell_length_a   8.40759176
_cell_length_b   8.76590792
_cell_length_c   11.01319083
_cell_angle_alpha   71.03758587
_cell_angle_beta   91.10992349
_cell_angle_gamma   74.92143758
_symmetry_Int_Tables_number   1
_chemical_formula_structural   CoH32C32(N4O3)2
_chemical_formula_sum   'Co1 H32 C32 N8 O6'
_cell_volume   736.38313707
_cell_formula_units_Z   1
loop_
 _symmetry_equiv_pos_site_id
 _symmetry_equiv_pos_as_xyz
  1  'x, y, z'
loop_
 _atom_site_type_symbol
 _atom_site_label
 _atom_site_symmetry_multiplicity
 _atom_site_fract_x
 _atom_site_fract_y
 _atom_site_fract_z
 _atom_site_occupancy
 _atom_site_pbe_cm5_charge
 _atom_site_pbe_ddec_charge
 _atom_site_pbe_ddec_spin_density
 _atom_site_pbe_ddec_sum_bond_order
 _atom_site_pbe_magmom
Co  Co0  1  0.50000128  0.00000260  0.49999735  1  0.631106  0.68754  1.046137  2.821162  0.973
H  H1  1  0.79063528  0.03502224  0.52751049  1  0.284266  0.361167  -0.000307  0.995364  0.0
H  H2  1  0.20936730  0.96497681  0.47248340  1  0.284319  0.361241  -0.000307  0.995272  0.0
H  H3  1  0.89721033  0.78473332  0.69132507  1  0.321809  0.269221  -6.8e-05  0.995106  0.0
H  H4  1  0.10279028  0.21526929  0.30867342  1  0.321815  0.269247  -6.8e-05  0.995079  0.0
H  H5  1  0.29540317  0.20799090  0.62565578  1  0.125238  0.102847  -0.00028  1.025101  0.0
H  H6  1  0.70459752  0.79200590  0.37433500  1  0.12523  0.102777  -0.00028  1.025127  0.0
H  H7  1  0.55100313  0.29141465  0.30388852  1  0.119491  0.095808  -0.000236  1.030602  0.0
H  H8  1  0.44899769  0.70860662  0.69610555  1  0.119514  0.095797  -0.000236  1.030539  0.0
H  H9  1  0.31257414  0.87897628  0.13356152  1  0.098824  0.113141  -0.00012  0.999483  0.0
H  H10  1  0.68742933  0.12101904  0.86643236  1  0.098819  0.113106  -0.00012  0.99952  0.0
H  H11  1  0.24228905  0.09645004  0.06549648  1  0.097916  0.10789  -0.000161  1.02662  0.0
H  H12  1  0.75772163  0.90354996  0.93449724  1  0.097933  0.107884  -0.000161  1.02655  0.0
H  H13  1  0.23444039  0.71945363  0.37903200  1  0.110014  0.121508  -0.000245  1.020695  0.0
H  H14  1  0.76554690  0.28055039  0.62097335  1  0.110023  0.121454  -0.000245  1.020729  0.0
H  H15  1  0.60934488  0.88977199  0.12849096  1  0.086953  0.084208  -9e-06  0.992112  0.0
H  H16  1  0.39066582  0.11021391  0.87151519  1  0.086962  0.084266  -9e-06  0.992152  0.0
H  H17  1  0.54236692  0.11046543  0.07266978  1  0.085602  0.07875  -7e-06  1.003515  0.0
H  H18  1  0.45764095  0.88952696  0.92733118  1  0.08559  0.078767  -7e-06  1.003536  0.0
H  H19  1  0.43839931  0.60317789  0.24403793  1  0.107328  0.112277  -6.6e-05  1.001336  0.0
H  H20  1  0.56159346  0.39683323  0.75596940  1  0.107304  0.11229  -6.6e-05  1.001282  0.0
H  H21  1  0.04681858  0.19341393  0.90354060  1  0.103653  0.100269  -8e-06  1.032589  0.0
H  H22  1  0.95318218  0.80658843  0.09646340  1  0.103722  0.100353  -8e-06  1.032594  0.0
H  H23  1  0.75045975  0.69126595  0.86147344  1  0.101262  0.096389  -9.2e-05  1.051534  0.0
H  H24  1  0.24953554  0.30873918  0.13852806  1  0.101242  0.096418  -9.2e-05  1.051537  0.0
H  H25  1  0.70744987  0.26776944  0.18075487  1  0.102987  0.105964  -2e-06  1.026149  0.0
H  H26  1  0.29255268  0.73223534  0.81924857  1  0.102912  0.105861  -2e-06  1.026243  0.0
H  H27  1  0.91958593  0.07722073  0.10503207  1  0.105112  0.108842  1.2e-05  0.997144  0.0
H  H28  1  0.08042170  0.92277848  0.89498181  1  0.105085  0.108856  1.2e-05  0.997164  0.0
H  H29  1  0.62010941  0.57772867  0.05653003  1  0.100197  0.098573  2e-06  1.006163  0.0
H  H30  1  0.37989262  0.42226783  0.94346628  1  0.100228  0.098616  2e-06  1.00596  0.0
H  H31  1  0.84828859  0.93660633  0.43495420  1  0.303153  0.378993  0.000779  0.921908  0.001
H  H32  1  0.15171402  0.06338774  0.56504087  1  0.303177  0.37901  0.000779  0.92198  0.001
C  C33  1  0.33434813  0.00833748  0.26259402  1  0.213251  0.602517  -0.003604  4.139908  -0.002
C  C34  1  0.66565000  0.99166041  0.73740194  1  0.213189  0.602366  -0.003605  4.140007  -0.002
C  C35  1  0.25038251  0.47088483  0.51337932  1  0.002302  -0.003258  0.000323  4.00361  0.001
C  C36  1  0.74961531  0.52911431  0.48661634  1  0.002335  -0.003251  0.000323  4.003777  0.001
C  C37  1  0.13589701  0.52385206  0.59942936  1  0.20735  0.255063  -0.000268  4.095951  0.0
C  C38  1  0.86409897  0.47614056  0.40057601  1  0.207413  0.255234  -0.000268  4.095998  0.0
C  C39  1  0.99151121  0.51060898  0.75712932  1  0.226043  0.27441  -0.00012  4.044372  0.0
C  C40  1  0.00848288  0.48938633  0.24287268  1  0.22604  0.274422  -0.00012  4.044359  0.0
C  C41  1  0.32186969  0.29907873  0.54054715  1  0.045135  0.032164  -0.008239  3.890871  -0.005
C  C42  1  0.67812044  0.70092298  0.45945240  1  0.045122  0.032224  -0.008236  3.890709  -0.005
C  C43  1  0.46553482  0.34748148  0.36043904  1  0.043186  0.077604  -0.008795  3.907636  -0.005
C  C44  1  0.53446331  0.65252628  0.63955640  1  0.043133  0.07762  -0.008791  3.907743  -0.005
C  C45  1  0.91057778  0.44932001  0.87161104  1  -0.008487  0.011736  -3.6e-05  4.044287  0.0
C  C46  1  0.08942181  0.55067742  0.12839412  1  -0.00847  0.011756  -3.6e-05  4.044237  0.0
C  C47  1  0.34590538  0.99422129  0.12889024  1  -0.168709  -0.301216  -0.001084  3.940868  -0.001
C  C48  1  0.65410359  0.00577122  0.87110706  1  -0.168663  -0.301036  -0.001084  3.940666  -0.001
C  C49  1  0.29022902  0.58464677  0.40396624  1  -0.066231  -0.06581  -0.010302  3.896145  -0.006
C  C50  1  0.70976149  0.41535850  0.59603611  1  -0.066283  -0.065888  -0.010299  3.896254  -0.006
C  C51  1  0.50744825  0.99885959  0.06980398  1  -0.169924  -0.122028  4e-06  3.935899  0.0
C  C52  1  0.49255763  0.00113146  0.93020092  1  -0.169953  -0.12221  4e-06  3.935912  0.0
C  C53  1  0.40164040  0.52034602  0.32895995  1  -0.084928  -0.124884  0.000389  4.014399  0.001
C  C54  1  0.59835027  0.47966812  0.67103666  1  -0.084889  -0.124872  0.000388  4.014669  0.001
C  C55  1  0.95445085  0.27552924  0.93965006  1  -0.084449  -0.113195  -1e-05  3.963424  0.0
C  C56  1  0.04555229  0.72447308  0.06035306  1  -0.084451  -0.113183  -1e-05  3.963446  0.0
C  C57  1  0.78874390  0.55684026  0.91450982  1  -0.088351  -0.117348  -8.6e-05  3.97084  0.0
C  C58  1  0.21125706  0.44316101  0.08549081  1  -0.088393  -0.11748  -8.6e-05  3.970994  0.0
C  C59  1  0.76136007  0.31973450  0.09301013  1  -0.09002  -0.085645  2e-06  3.991038  0.0
C  C60  1  0.23863543  0.68027448  0.90698773  1  -0.089947  -0.085486  2e-06  3.990931  0.0
C  C61  1  0.88138569  0.21152799  0.05012990  1  -0.089615  -0.080354  -9.2e-05  4.007856  0.0
C  C62  1  0.11861507  0.78846944  0.94987436  1  -0.089637  -0.080456  -9.2e-05  4.008209  0.0
C  C63  1  0.71443888  0.49240558  0.02434014  1  -0.092621  -0.080325  -0.000111  4.015553  0.0
C  C64  1  0.28555253  0.50759596  0.97566219  1  -0.092618  -0.080349  -0.000111  4.015231  0.0
N  N65  1  0.42443640  0.23774692  0.46422425  1  -0.349735  -0.194167  -0.010778  3.6805  -0.007
N  N66  1  0.57556443  0.76225456  0.53577179  1  -0.349742  -0.19419  -0.010777  3.680436  -0.007
N  N67  1  0.10155041  0.41286834  0.70788524  1  -0.337542  -0.437256  5.9e-05  3.203004  0.0
N  N68  1  0.89844581  0.58712809  0.29211742  1  -0.337532  -0.437283  5.9e-05  3.202853  0.0
N  N69  1  0.96398184  0.67379738  0.68002279  1  -0.265169  -0.145095  2.4e-05  3.672938  0.0
N  N70  1  0.03601642  0.32620030  0.31997777  1  -0.265174  -0.145149  2.4e-05  3.672997  0.0
N  N71  1  0.05354430  0.68505945  0.57861783  1  -0.218841  -0.244307  0.000548  3.121364  0.001
N  N72  1  0.94645764  0.31492810  0.42138606  1  -0.218836  -0.244304  0.000548  3.121153  0.001
O  O73  1  0.46093358  0.02524001  0.31821844  1  -0.297013  -0.501745  -0.005164  2.443623  -0.004
O  O74  1  0.53906212  0.97476295  0.68177631  1  -0.297022  -0.5017  -0.005163  2.443613  -0.004
O  O75  1  0.19737992  0.00544388  0.30929892  1  -0.321757  -0.571401  -0.000955  2.211946  -0.001
O  O76  1  0.80262090  0.99454777  0.69069672  1  -0.32173  -0.571372  -0.000955  2.211982  -0.001
O  O77  1  0.76028864  0.03135482  0.44062166  1  -0.573232  -0.745035  0.026028  2.103948  0.041
O  O78  1  0.23971125  0.96864553  0.55937282  1  -0.573322  -0.745167  0.026028  2.10394  0.041
