# generated using pymatgen
data_Zn3H18C28(N3O2)4
_symmetry_space_group_name_H-M   'P 1'
_cell_length_a   13.21633913
_cell_length_b   13.21633197
_cell_length_c   13.09653018
_cell_angle_alpha   84.61810966
_cell_angle_beta   84.61805727
_cell_angle_gamma   73.47155083
_symmetry_Int_Tables_number   1
_chemical_formula_structural   Zn3H18C28(N3O2)4
_chemical_formula_sum   'Zn6 H36 C56 N24 O16'
_cell_volume   2177.99259830
_cell_formula_units_Z   2
loop_
 _symmetry_equiv_pos_site_id
 _symmetry_equiv_pos_as_xyz
  1  'x, y, z'
loop_
 _atom_site_type_symbol
 _atom_site_label
 _atom_site_symmetry_multiplicity
 _atom_site_fract_x
 _atom_site_fract_y
 _atom_site_fract_z
 _atom_site_occupancy
 _atom_site_pbe_bader_charge
 _atom_site_pbe_bader_spin_density
 _atom_site_pbe_cm5_charge
 _atom_site_pbe_ddec_charge
 _atom_site_pbe_ddec_spin_density
 _atom_site_pbe_ddec_sum_bond_order
 _atom_site_pbe_magmom
Zn  Zn0  1  0.36058236  0.63942034  0.74999875  1  1.279294  0  0.718997  0.790689  0  2.381863  0
Zn  Zn1  1  0.63941696  0.36057894  0.25000083  1  1.279282  0  0.719014  0.790696  0  2.381778  0
Zn  Zn2  1  0.27426173  0.38780633  0.99063298  1  1.268349  0  0.717812  0.805455  0  2.398244  0
Zn  Zn3  1  0.61219682  0.72573541  0.50936416  1  1.26836  0  0.717797  0.805447  0  2.398236  0
Zn  Zn4  1  0.72573760  0.61219295  0.00936813  1  1.268313  0  0.717828  0.80548  0  2.398199  0
Zn  Zn5  1  0.38780249  0.27426540  0.49063299  1  1.268413  0  0.717825  0.805423  0  2.398249  0
H  H6  1  0.44997234  0.34085319  0.80491770  1  0.174777  0  0.12211  0.119629  0  1.030956  0
H  H7  1  0.65914625  0.55003104  0.69508673  1  0.17481  0  0.122088  0.119621  0  1.030935  0
H  H8  1  0.55003413  0.65914190  0.19508466  1  0.174727  0  0.122077  0.119582  0  1.03102  0
H  H9  1  0.34085221  0.44997379  0.30491547  1  0.174814  0  0.122068  0.119609  0  1.030963  0
H  H10  1  0.30131003  0.13796433  0.98852174  1  0.184093  0  0.137997  0.114742  0  1.031857  0
H  H11  1  0.86203624  0.69868670  0.51147555  1  0.184059  0  0.137986  0.114712  0  1.03192  0
H  H12  1  0.69869165  0.86203508  0.01148372  1  0.184069  0  0.137993  0.114732  0  1.031927  0
H  H13  1  0.13796309  0.30131258  0.48852251  1  0.18408  0  0.137993  0.114741  0  1.031879  0
H  H14  1  0.53677669  0.13705896  0.74276526  1  0.139863  0  0.133912  0.137423  0  0.988237  0
H  H15  1  0.86294297  0.46322491  0.75723972  1  0.140294  0  0.133963  0.137546  0  0.987894  0
H  H16  1  0.46322424  0.86293761  0.25723595  1  0.139872  0  0.133928  0.137466  0  0.988172  0
H  H17  1  0.13705472  0.53677860  0.24276191  1  0.139815  0  0.133942  0.137503  0  0.987981  0
H  H18  1  0.29907981  0.98102112  0.93658084  1  0.068038  0  0.116734  0.126321  0  0.980693  0
H  H19  1  0.01897973  0.70091945  0.56341049  1  0.067943  0  0.11675  0.126333  0  0.980665  0
H  H20  1  0.70091711  0.01898109  0.06341640  1  0.068081  0  0.116752  0.126302  0  0.980663  0
H  H21  1  0.98101876  0.29908309  0.43659040  1  0.068002  0  0.116757  0.126323  0  0.98061  0
H  H22  1  0.34805677  0.78548610  0.94678207  1  0.113097  0  0.116725  0.121564  0  0.97168  0
H  H23  1  0.21451405  0.65194423  0.55320828  1  0.113027  0  0.11675  0.121593  0  0.971666  0
H  H24  1  0.65193543  0.21451508  0.05321648  1  0.112421  0  0.116707  0.121516  0  0.971736  0
H  H25  1  0.78548365  0.34805852  0.44678885  1  0.112829  0  0.116741  0.121617  0  0.971653  0
H  H26  1  0.65925355  0.77838956  0.80874653  1  0.106484  0  0.108416  0.118777  0  1.008235  0
H  H27  1  0.22161330  0.34075423  0.69126263  1  0.106891  0  0.108403  0.118827  0  1.008235  0
H  H28  1  0.34074422  0.22160709  0.19126032  1  0.106771  0  0.108417  0.118823  0  1.008146  0
H  H29  1  0.77838757  0.65924768  0.30873275  1  0.106826  0  0.108407  0.118806  0  1.008288  0
H  H30  1  0.61272951  0.97226620  0.80212295  1  0.068219  0  0.115523  0.125624  0  0.982297  0
H  H31  1  0.02773651  0.38727596  0.69788426  1  0.06832  0  0.115531  0.125616  0  0.982199  0
H  H32  1  0.38727064  0.02772982  0.19788297  1  0.068192  0  0.115523  0.125616  0  0.982206  0
H  H33  1  0.97226437  0.61272443  0.30211355  1  0.068308  0  0.115513  0.125586  0  0.982254  0
H  H34  1  0.06296725  0.53143969  0.94461592  1  0.147615  0  0.106067  0.134967  0  1.040839  0
H  H35  1  0.46855896  0.93703782  0.55538108  1  0.147551  0  0.106057  0.134914  0  1.040946  0
H  H36  1  0.93703369  0.46855688  0.05538301  1  0.147748  0  0.106072  0.134964  0  1.040792  0
H  H37  1  0.53144434  0.06295889  0.44461609  1  0.147698  0  0.106057  0.134907  0  1.040851  0
H  H38  1  0.01263076  0.74472266  0.81418165  1  0.131018  0  0.111319  0.12986  0  0.983345  0
H  H39  1  0.25527808  0.98736717  0.68581595  1  0.131028  0  0.111358  0.129853  0  0.983401  0
H  H40  1  0.98736698  0.25527704  0.18581881  1  0.131118  0  0.111331  0.129829  0  0.983396  0
H  H41  1  0.74472360  0.01263224  0.31418111  1  0.131102  0  0.111324  0.129845  0  0.98344  0
C  C42  1  0.43112107  0.26771229  0.83170944  1  0.426449  0  0.005378  -0.013382  0  3.95558  0
C  C43  1  0.73229138  0.56887928  0.66829333  1  0.426397  0  0.00538  -0.013494  0  3.955826  0
C  C44  1  0.56888220  0.73228670  0.16829439  1  0.426381  0  0.005496  -0.013327  0  3.955736  0
C  C45  1  0.26770711  0.43112326  0.33170679  1  0.426501  0  0.005422  -0.013417  0  3.955733  0
C  C46  1  0.35189154  0.16474185  0.92846851  1  0.961068  0  0.150708  0.102766  0  3.89034  0
C  C47  1  0.83525891  0.64810834  0.57152922  1  0.961067  0  0.150714  0.102818  0  3.890361  0
C  C48  1  0.64811173  0.83525714  0.07153379  1  0.961136  0  0.150686  0.102682  0  3.890331  0
C  C49  1  0.16474038  0.35189322  0.42846939  1  0.960941  0  0.150675  0.102761  0  3.89031  0
C  C50  1  0.47671535  0.16702961  0.80289213  1  0.255078  0  0.007506  -0.094843  0  3.890756  0
C  C51  1  0.83297252  0.52328930  0.69710954  1  0.254735  0  0.007477  -0.09485  0  3.890677  0
C  C52  1  0.52328794  0.83296786  0.19710955  1  0.255274  0  0.007423  -0.094949  0  3.890846  0
C  C53  1  0.16702595  0.47671476  0.30289349  1  0.255023  0  0.007434  -0.094887  0  3.890806  0
C  C54  1  0.45267372  0.98959028  0.86839212  1  0.319855  0  0.098493  0.168395  0  4.025307  0
C  C55  1  0.01041246  0.54732568  0.63160811  1  0.319882  0  0.098552  0.168557  0  4.025235  0
C  C56  1  0.54732481  0.01040844  0.13161064  1  0.319752  0  0.098477  0.168315  0  4.025288  0
C  C57  1  0.98958605  0.45267534  0.36839216  1  0.319859  0  0.098464  0.168408  0  4.025432  0
C  C58  1  0.37838598  0.93682699  0.90951748  1  0.101112  0  -0.085916  -0.165516  0  3.973651  0
C  C59  1  0.06317395  0.62161640  0.59047807  1  0.10117  0  -0.085981  -0.165557  0  3.973535  0
C  C60  1  0.62161251  0.06317555  0.09048188  1  0.101185  0  -0.085918  -0.165385  0  3.973493  0
C  C61  1  0.93682455  0.37838614  0.40952128  1  0.101177  0  -0.085952  -0.165436  0  3.97349  0
C  C62  1  0.40552548  0.82687698  0.91438434  1  -0.114464  0  -0.071214  -0.074664  0  3.948573  0
C  C63  1  0.17312531  0.59447672  0.58561104  1  -0.113988  0  -0.071171  -0.07461  0  3.948682  0
C  C64  1  0.59446828  0.17312606  0.08561695  1  -0.113895  0  -0.071206  -0.074694  0  3.948808  0
C  C65  1  0.82687239  0.40552680  0.41438754  1  -0.114271  0  -0.071202  -0.074773  0  3.948671  0
C  C66  1  0.50647257  0.76851154  0.87770940  1  0.082351  0  -0.006408  0.007111  0  4.020494  0
C  C67  1  0.23148835  0.49353406  0.62228876  1  0.081798  0  -0.006398  0.007081  0  4.020633  0
C  C68  1  0.49352280  0.23148803  0.12229435  1  0.082448  0  -0.006361  0.007176  0  4.020518  0
C  C69  1  0.76851170  0.50647035  0.37770646  1  0.082362  0  -0.006426  0.007142  0  4.020499  0
C  C70  1  0.57997228  0.82221195  0.83614096  1  0.026905  0  -0.075974  -0.083909  0  3.9581  0
C  C71  1  0.17778942  0.42003329  0.66386479  1  0.026191  0  -0.076042  -0.084102  0  3.95806  0
C  C72  1  0.42002551  0.17778317  0.16386527  1  0.026656  0  -0.076025  -0.084015  0  3.957975  0
C  C73  1  0.82221064  0.57997035  0.33613203  1  0.026139  0  -0.075985  -0.084037  0  3.958115  0
C  C74  1  0.55360285  0.93213671  0.83208315  1  -0.023977  0  -0.087005  -0.163681  0  3.969822  0
C  C75  1  0.06786640  0.44640314  0.66792169  1  -0.023971  0  -0.086983  -0.163626  0  3.969908  0
C  C76  1  0.44639886  0.06786041  0.16792176  1  -0.023982  0  -0.087035  -0.163703  0  3.969908  0
C  C77  1  0.93213446  0.55359877  0.33207674  1  -0.023919  0  -0.086926  -0.163519  0  3.970012  0
C  C78  1  0.53386794  0.65278742  0.88251464  1  0.924996  0  0.230861  0.265933  0  4.042999  0
C  C79  1  0.34721536  0.46613525  0.61748580  1  0.925055  0  0.230756  0.26581  0  4.043138  0
C  C80  1  0.46612979  0.34721304  0.11748728  1  0.92494  0  0.230905  0.26609  0  4.043087  0
C  C81  1  0.65278552  0.53386590  0.38251042  1  0.925161  0  0.230769  0.265847  0  4.04305  0
C  C82  1  0.18901139  0.58870927  0.85815292  1  1.529777  0  0.212544  0.622092  0  4.166732  0
C  C83  1  0.41129497  0.81099056  0.64184228  1  1.530511  0  0.212528  0.622042  0  4.166553  0
C  C84  1  0.81098871  0.41129132  0.14184723  1  1.53006  0  0.212515  0.622036  0  4.166719  0
C  C85  1  0.58870594  0.18900830  0.35815643  1  1.530556  0  0.212493  0.622015  0  4.166468  0
C  C86  1  0.07759801  0.59669827  0.89371203  1  -0.00527  0  -0.091214  -0.202082  0  3.899976  0
C  C87  1  0.40330239  0.92240556  0.60628494  1  -0.005296  0  -0.091257  -0.202062  0  3.89993  0
C  C88  1  0.92240290  0.40329982  0.10628675  1  -0.005294  0  -0.091244  -0.202128  0  3.899961  0
C  C89  1  0.59670089  0.07759266  0.39371285  1  -0.005287  0  -0.091268  -0.202026  0  3.89981  0
C  C90  1  0.99736520  0.67910843  0.86416541  1  -0.121162  0  -0.077385  -0.15246  0  3.87639  0
C  C91  1  0.32088935  0.00263612  0.63583164  1  -0.121245  0  -0.077356  -0.152354  0  3.876335  0
C  C92  1  0.00263492  0.32088988  0.13583420  1  -0.121315  0  -0.077378  -0.152339  0  3.876465  0
C  C93  1  0.67911232  0.99736481  0.36416605  1  -0.121464  0  -0.077367  -0.152421  0  3.876373  0
C  C94  1  0.88509695  0.68903000  0.90145454  1  1.574003  0  0.194231  0.60249  0  4.234983  0
C  C95  1  0.31096664  0.11490492  0.59854720  1  1.573995  0  0.194181  0.602376  0  4.23491  0
C  C96  1  0.11490319  0.31096754  0.09854666  1  1.573991  0  0.194143  0.602288  0  4.235085  0
C  C97  1  0.68903584  0.88509428  0.40144599  1  1.574012  0  0.194206  0.602433  0  4.234769  0
N  N98  1  0.35335526  0.26487125  0.90975954  1  -1.236797  0  -0.357697  -0.286516  0  3.613055  0
N  N99  1  0.73512899  0.64664515  0.59024128  1  -1.236753  0  -0.357674  -0.286448  0  3.613039  0
N  N100  1  0.64665118  0.73512613  0.09024566  1  -1.236755  0  -0.357697  -0.286458  0  3.612938  0
N  N101  1  0.26486950  0.35335739  0.40975884  1  -1.236723  0  -0.357628  -0.286417  0  3.613026  0
N  N102  1  0.42626380  0.10194757  0.86500196  1  -1.297883  0  -0.218019  0.013576  0  3.784314  0
N  N103  1  0.89805495  0.57373604  0.63499783  1  -1.297924  0  -0.218032  0.013423  0  3.784475  0
N  N104  1  0.57373710  0.89805129  0.13500057  1  -1.298098  0  -0.217978  0.013694  0  3.784202  0
N  N105  1  0.10194276  0.42626595  0.36500242  1  -1.297866  0  -0.217997  0.013448  0  3.784431  0
N  N106  1  0.61984750  0.58548702  0.92248886  1  -0.793162  0  -0.24451  -0.27811  0  3.534194  0
N  N107  1  0.41451529  0.38015447  0.57751319  1  -0.792988  0  -0.244476  -0.277981  0  3.534229  0
N  N108  1  0.38015023  0.41451344  0.07751459  1  -0.793106  0  -0.244479  -0.278161  0  3.534303  0
N  N109  1  0.58548559  0.61984668  0.42248226  1  -0.793046  0  -0.24445  -0.27803  0  3.53416  0
N  N110  1  0.61406888  0.48592301  0.91162600  1  -0.076627  0  -0.098664  -0.073849  0  3.210323  0
N  N111  1  0.51408001  0.38592951  0.58837550  1  -0.076728  0  -0.098772  -0.074082  0  3.210581  0
N  N112  1  0.38593042  0.51407780  0.08837421  1  -0.076654  0  -0.098685  -0.073834  0  3.210337  0
N  N113  1  0.48591927  0.61407282  0.41161999  1  -0.076704  0  -0.098799  -0.074068  0  3.210497  0
N  N114  1  0.52859205  0.49237013  0.86661475  1  -0.091162  0  -0.083828  -0.054478  0  3.245884  0
N  N115  1  0.50763592  0.47140595  0.63338578  1  -0.091285  0  -0.083686  -0.054179  0  3.245829  0
N  N116  1  0.47140727  0.50762991  0.13338553  1  -0.091137  0  -0.083873  -0.054557  0  3.245752  0
N  N117  1  0.49236575  0.52859499  0.36661037  1  -0.091381  0  -0.083693  -0.05424  0  3.245763  0
N  N118  1  0.47643394  0.59610599  0.84741006  1  -0.779201  0  -0.241122  -0.27147  0  3.522977  0
N  N119  1  0.40389803  0.52356729  0.65258891  1  -0.779127  0  -0.241161  -0.271593  0  3.523122  0
N  N120  1  0.52356460  0.40389274  0.15259118  1  -0.779194  0  -0.24113  -0.271504  0  3.522943  0
N  N121  1  0.59610206  0.47643407  0.34740812  1  -0.779044  0  -0.241118  -0.271487  0  3.522938  0
O  O122  1  0.26220845  0.50487707  0.88140969  1  -1.192338  0  -0.321158  -0.552101  0  2.366268  0
O  O123  1  0.49512608  0.73779597  0.61858912  1  -1.192744  0  -0.321128  -0.552099  0  2.366336  0
O  O124  1  0.73779241  0.49512483  0.11859409  1  -1.192601  0  -0.321159  -0.552085  0  2.366206  0
O  O125  1  0.50487326  0.26220255  0.38140748  1  -1.192742  0  -0.321109  -0.55207  0  2.366176  0
O  O126  1  0.20991280  0.66540622  0.80185786  1  -1.156256  0  -0.312825  -0.513216  0  2.302084  0
O  O127  1  0.33459622  0.79008922  0.69813600  1  -1.156461  0  -0.312835  -0.513188  0  2.30189  0
O  O128  1  0.79008651  0.33459458  0.19814158  1  -1.156227  0  -0.312821  -0.513206  0  2.30213  0
O  O129  1  0.66540626  0.20990998  0.30186482  1  -1.1565  0  -0.3128  -0.513154  0  2.301914  0
O  O130  1  0.81769775  0.77692443  0.89155384  1  -1.18126  0  -0.3329  -0.563282  0  2.085629  0
O  O131  1  0.22307350  0.18230134  0.60845117  1  -1.181324  0  -0.33289  -0.563265  0  2.08558  0
O  O132  1  0.18230160  0.22307332  0.10844742  1  -1.181332  0  -0.332874  -0.563208  0  2.085639  0
O  O133  1  0.77692977  0.81769765  0.39154883  1  -1.181429  0  -0.332908  -0.563278  0  2.085645  0
O  O134  1  0.86587669  0.60257210  0.94427861  1  -1.173153  0  -0.339998  -0.56852  0  2.349163  0
O  O135  1  0.39742289  0.13412631  0.55571857  1  -1.173035  0  -0.339959  -0.568423  0  2.349191  0
O  O136  1  0.13412346  0.39742468  0.05572266  1  -1.173078  0  -0.339928  -0.568414  0  2.349155  0
O  O137  1  0.60257959  0.86587366  0.44427684  1  -1.172936  0  -0.33993  -0.568457  0  2.349049  0
