# generated using pymatgen
data_Li2MoH22C20(NO5)2
_symmetry_space_group_name_H-M   'P 1'
_cell_length_a   8.86908948
_cell_length_b   9.65295920
_cell_length_c   15.52525533
_cell_angle_alpha   91.27846709
_cell_angle_beta   89.98774294
_cell_angle_gamma   117.33888183
_symmetry_Int_Tables_number   1
_chemical_formula_structural   Li2MoH22C20(NO5)2
_chemical_formula_sum   'Li4 Mo2 H44 C40 N4 O20'
_cell_volume   1180.33397372
_cell_formula_units_Z   2
loop_
 _symmetry_equiv_pos_site_id
 _symmetry_equiv_pos_as_xyz
  1  'x, y, z'
loop_
 _atom_site_type_symbol
 _atom_site_label
 _atom_site_symmetry_multiplicity
 _atom_site_fract_x
 _atom_site_fract_y
 _atom_site_fract_z
 _atom_site_occupancy
 _atom_site_hle17_bader_spin_density
 _atom_site_hle17_ddec_charge
 _atom_site_hle17_ddec_spin_density
 _atom_site_hle17_ddec_sum_bond_order
 _atom_site_hle17_magmom
 _atom_site_hse06_10hf_bader_spin_density
 _atom_site_hse06_10hf_ddec_charge
 _atom_site_hse06_10hf_ddec_spin_density
 _atom_site_hse06_10hf_ddec_sum_bond_order
 _atom_site_hse06_10hf_magmom
 _atom_site_hse06_bader_spin_density
 _atom_site_hse06_ddec_charge
 _atom_site_hse06_ddec_spin_density
 _atom_site_hse06_ddec_sum_bond_order
 _atom_site_hse06_magmom
 _atom_site_pbe_bader_spin_density
 _atom_site_pbe_cm5_charge
 _atom_site_pbe_ddec_charge
 _atom_site_pbe_ddec_spin_density
 _atom_site_pbe_ddec_sum_bond_order
 _atom_site_pbe_magmom
Li  Li0  1  0.48602647  0.90775609  0.56982711  1  0  0.849974  0  0.402937  0  0  0.807349  0  0.511158  0  0  0.818538  0  0.492762  0  0  0.508407  0.799142  0  0.524518  0
Li  Li1  1  0.57811087  0.09219443  0.93004420  1  0  0.850127  0  0.402114  0  0  0.807048  0  0.511155  0  0  0.818241  0  0.492689  0  0  0.507994  0.798888  0  0.52446  0
Li  Li2  1  0.51397543  0.09224657  0.43017348  1  0  0.849983  0  0.402901  0  0  0.807354  0  0.511139  0  0  0.818541  0  0.492743  0  0  0.508397  0.799147  0  0.524499  0
Li  Li3  1  0.42189208  0.90780353  0.06995376  1  0  0.850146  0  0.402109  0  0  0.807054  0  0.511175  0  0  0.81825  0  0.492707  0  0  0.508012  0.798893  0  0.52448  0
Mo  Mo4  1  0.26349798  0.99996263  0.74988201  1  0  2.046798  0  4.055209  0  0  2.035772  0  4.600928  0  0  2.132109  0  4.57457  0  0  1.541988  1.964122  0  4.626578  0
Mo  Mo5  1  0.73652188  0.00003533  0.25011660  1  0  2.047039  0  4.055838  0  0  2.036046  0  4.60149  0  0  2.13236  0  4.57513  0  0  1.542286  1.964394  0  4.627154  0
H  H6  1  0.25759451  0.63589615  0.94000632  1  0  0.116532  0  0.961846  0  0  0.125629  0  1.022245  0  0  0.129273  0  1.019205  0  0  0.112803  0.123099  0  1.024483  0
H  H7  1  0.62179294  0.36411676  0.55981058  1  0  0.116564  0  0.961265  0  0  0.12546  0  1.021893  0  0  0.12908  0  1.018864  0  0  0.112725  0.122839  0  1.024114  0
H  H8  1  0.74241579  0.36410300  0.05999359  1  0  0.116571  0  0.961801  0  0  0.125653  0  1.022222  0  0  0.129298  0  1.019177  0  0  0.112797  0.123125  0  1.024465  0
H  H9  1  0.37819586  0.63587772  0.44018863  1  0  0.116558  0  0.961317  0  0  0.125477  0  1.021912  0  0  0.129097  0  1.018882  0  0  0.112738  0.122858  0  1.024132  0
H  H10  1  0.36401805  0.44216654  0.89838748  1  0  0.085728  0  0.966546  0  0  0.09611  0  1.028687  0  0  0.098957  0  1.027804  0  0  0.094847  0.094153  0  1.029407  0
H  H11  1  0.92179333  0.55797050  0.60153673  1  0  0.085678  0  0.966913  0  0  0.096111  0  1.02894  0  0  0.099035  0  1.027974  0  0  0.094744  0.094047  0  1.029724  0
H  H12  1  0.63598662  0.55783488  0.10160666  1  0  0.085737  0  0.966449  0  0  0.096135  0  1.028573  0  0  0.098985  0  1.027685  0  0  0.094814  0.094173  0  1.029299  0
H  H13  1  0.07819317  0.44202164  0.39846182  1  0  0.085632  0  0.966773  0  0  0.09602  0  1.028859  0  0  0.098944  0  1.027895  0  0  0.094698  0.093957  0  1.029641  0
H  H14  1  0.47948832  0.44709949  0.75224354  1  0  0.089005  0  0.985788  0  0  0.095409  0  1.056187  0  0  0.097397  0  1.056136  0  0  0.096553  0.093857  0  1.056368  0
H  H15  1  0.03200177  0.55294176  0.74773456  1  0  0.08939  0  0.985062  0  0  0.095852  0  1.055216  0  0  0.097883  0  1.055077  0  0  0.096712  0.094334  0  1.055383  0
H  H16  1  0.52051014  0.55290079  0.24775251  1  0  0.089017  0  0.985781  0  0  0.095394  0  1.056217  0  0  0.097384  0  1.056163  0  0  0.096533  0.09384  0  1.056396  0
H  H17  1  0.96798997  0.44706084  0.25226088  1  0  0.089421  0  0.985103  0  0  0.095822  0  1.055327  0  0  0.097853  0  1.05519  0  0  0.096696  0.094305  0  1.055493  0
H  H18  1  0.54928688  0.54466657  0.61707319  1  0  0.027665  0  0.951428  0  0  0.037904  0  1.018743  0  0  0.039372  0  1.014798  0  0  0.100024  0.036791  0  1.021556  0
H  H19  1  0.00411590  0.45562665  0.88278846  1  0  0.027761  0  0.950694  0  0  0.038465  0  1.017578  0  0  0.040001  0  1.01356  0  0  0.099901  0.037187  0  1.02057  0
H  H20  1  0.45072074  0.45534073  0.38292552  1  0  0.027605  0  0.951352  0  0  0.037842  0  1.01868  0  0  0.03931  0  1.014734  0  0  0.099989  0.036728  0  1.021492  0
H  H21  1  0.99588649  0.54437246  0.11720758  1  0  0.027766  0  0.950755  0  0  0.038509  0  1.017594  0  0  0.040041  0  1.013577  0  0  0.099921  0.037232  0  1.020582  0
H  H22  1  0.10956576  0.80253970  0.55459780  1  0  0.049589  0  0.961812  0  0  0.060224  0  1.029567  0  0  0.062353  0  1.023922  0  0  0.128848  0.058476  0  1.033743  0
H  H23  1  0.30709773  0.19750711  0.94550337  1  0  0.049649  0  0.961005  0  0  0.060166  0  1.028917  0  0  0.062299  0  1.023271  0  0  0.128754  0.058366  0  1.03323  0
H  H24  1  0.89043390  0.19746298  0.44540472  1  0  0.049549  0  0.961902  0  0  0.060213  0  1.029618  0  0  0.062335  0  1.023986  0  0  0.12884  0.058465  0  1.033797  0
H  H25  1  0.69290461  0.80248739  0.05449842  1  0  0.049575  0  0.961024  0  0  0.06012  0  1.028915  0  0  0.062244  0  1.02327  0  0  0.128767  0.058323  0  1.03322  0
H  H26  1  0.10185464  0.01284566  0.33922051  1  0  0.114198  0  0.95386  0  0  0.136233  0  1.012543  0  0  0.136929  0  1.012364  0  0  0.107921  0.13561  0  1.012844  0
H  H27  1  0.08868380  0.98714122  0.16084390  1  0  0.113871  0  0.953804  0  0  0.13613  0  1.012509  0  0  0.136804  0  1.012364  0  0  0.10793  0.135594  0  1.012682  0
H  H28  1  0.89814677  0.98716051  0.66078140  1  0  0.114206  0  0.953889  0  0  0.13618  0  1.012636  0  0  0.136877  0  1.012458  0  0  0.107908  0.13556  0  1.012933  0
H  H29  1  0.91131461  0.01285444  0.83915662  1  0  0.113868  0  0.953877  0  0  0.13613  0  1.012582  0  0  0.136807  0  1.012436  0  0  0.107933  0.135595  0  1.012755  0
H  H30  1  0.02730657  0.81876202  0.29795870  1  0  0.102227  0  0.933131  0  0  0.123893  0  0.994846  0  0  0.123693  0  0.996115  0  0  0.108511  0.123906  0  0.994151  0
H  H31  1  0.20818266  0.18125475  0.20208268  1  0  0.10183  0  0.933221  0  0  0.12353  0  0.995141  0  0  0.123357  0  0.996366  0  0  0.108404  0.12364  0  0.99425  0
H  H32  1  0.97269710  0.18124416  0.70204450  1  0  0.102245  0  0.933012  0  0  0.123871  0  0.994752  0  0  0.123672  0  0.99602  0  0  0.108518  0.123884  0  0.99406  0
H  H33  1  0.79181292  0.81873975  0.79791847  1  0  0.101792  0  0.933242  0  0  0.123499  0  0.995168  0  0  0.123327  0  0.996392  0  0  0.108374  0.123607  0  0.994282  0
H  H34  1  0.24180985  0.92410990  0.33582151  1  0  0.102478  0  0.96527  0  0  0.11733  0  1.035957  0  0  0.118884  0  1.035544  0  0  0.116136  0.116088  0  1.036422  0
H  H35  1  0.31734845  0.07584825  0.16427295  1  0  0.103226  0  0.963961  0  0  0.117841  0  1.034899  0  0  0.119441  0  1.034418  0  0  0.116313  0.11646  0  1.035588  0
H  H36  1  0.75819328  0.07589747  0.66418299  1  0  0.102447  0  0.96521  0  0  0.117237  0  1.035988  0  0  0.118791  0  1.035577  0  0  0.116076  0.115996  0  1.036451  0
H  H37  1  0.68264939  0.92414627  0.83573078  1  0  0.103182  0  0.963991  0  0  0.117787  0  1.034964  0  0  0.119386  0  1.034484  0  0  0.11629  0.116406  0  1.035656  0
H  H38  1  0.80908099  0.66559342  0.40724976  1  0  0.097713  0  0.929704  0  0  0.118513  0  0.992573  0  0  0.118394  0  0.993359  0  0  0.103809  0.118481  0  0.992102  0
H  H39  1  0.14320841  0.33437255  0.09276995  1  0  0.097802  0  0.929476  0  0  0.118776  0  0.992201  0  0  0.118659  0  0.993016  0  0  0.103882  0.118695  0  0.991729  0
H  H40  1  0.19092426  0.33440689  0.59274952  1  0  0.097708  0  0.929694  0  0  0.118512  0  0.992565  0  0  0.118392  0  0.993355  0  0  0.103812  0.118479  0  0.992098  0
H  H41  1  0.85680307  0.66562895  0.90723192  1  0  0.097729  0  0.929528  0  0  0.118742  0  0.992225  0  0  0.118624  0  0.993038  0  0  0.103858  0.118659  0  0.991759  0
H  H42  1  0.82379134  0.85118631  0.43451242  1  0  0.12124  0  0.942187  0  0  0.136947  0  1.008559  0  0  0.13861  0  1.007423  0  0  0.11189  0.135716  0  1.009427  0
H  H43  1  0.97244080  0.14877823  0.06551381  1  0  0.120895  0  0.941285  0  0  0.136874  0  1.0075  0  0  0.138569  0  1.006347  0  0  0.112042  0.135586  0  1.008362  0
H  H44  1  0.17620256  0.14880934  0.56548809  1  0  0.121243  0  0.942187  0  0  0.136944  0  1.008574  0  0  0.138607  0  1.007439  0  0  0.111888  0.135715  0  1.009438  0
H  H45  1  0.02756508  0.85122560  0.93448744  1  0  0.120884  0  0.941279  0  0  0.136857  0  1.00752  0  0  0.138552  0  1.006364  0  0  0.112029  0.135569  0  1.008382  0
H  H46  1  0.85323196  0.73907240  0.51649833  1  0  0.105702  0  0.942644  0  0  0.125929  0  1.005636  0  0  0.126222  0  1.005887  0  0  0.111244  0.12556  0  1.005643  0
H  H47  1  0.11405438  0.26090744  0.98352155  1  0  0.10584  0  0.941747  0  0  0.125933  0  1.004955  0  0  0.126272  0  1.005182  0  0  0.111188  0.125589  0  1.004921  0
H  H48  1  0.14676419  0.26092325  0.48350154  1  0  0.10573  0  0.942614  0  0  0.125956  0  1.005607  0  0  0.126255  0  1.00585  0  0  0.11126  0.125586  0  1.005614  0
H  H49  1  0.88595317  0.73909522  0.01647968  1  0  0.105867  0  0.941692  0  0  0.12595  0  1.004921  0  0  0.126287  0  1.00515  0  0  0.111196  0.125607  0  1.004887  0
C  C50  1  0.38793062  0.75475097  0.73469947  1  0  0.265996  0  3.867142  0  0  0.250184  0  4.126878  0  0  0.265283  0  4.141829  0  0  0.08995  0.240129  0  4.116068  0
C  C51  1  0.63308648  0.24494526  0.76505711  1  0  0.266184  0  3.869008  0  0  0.250667  0  4.127768  0  0  0.265726  0  4.142828  0  0  0.090454  0.240386  0  4.116941  0
C  C52  1  0.61206785  0.24524932  0.26529723  1  0  0.266151  0  3.867245  0  0  0.250223  0  4.127063  0  0  0.265325  0  4.14201  0  0  0.089902  0.24017  0  4.116254  0
C  C53  1  0.36690634  0.75505274  0.23494407  1  0  0.266021  0  3.869172  0  0  0.2506  0  4.127803  0  0  0.265661  0  4.142859  0  0  0.090389  0.240318  0  4.116975  0
C  C54  1  0.31420674  0.74387877  0.81754283  1  0  0.191432  0  3.861879  0  0  0.184834  0  4.135481  0  0  0.191067  0  4.151229  0  0  0.061242  0.180192  0  4.124666  0
C  C55  1  0.57038105  0.25587524  0.68220916  1  0  0.190659  0  3.863475  0  0  0.18398  0  4.136489  0  0  0.190197  0  4.152361  0  0  0.061185  0.17919  0  4.12573  0
C  C56  1  0.68579054  0.25611686  0.18245576  1  0  0.191367  0  3.861911  0  0  0.184771  0  4.135553  0  0  0.191003  0  4.151303  0  0  0.061265  0.180128  0  4.124739  0
C  C57  1  0.42961006  0.74412160  0.31779266  1  0  0.190826  0  3.863296  0  0  0.184058  0  4.136367  0  0  0.190275  0  4.152237  0  0  0.061198  0.179267  0  4.125608  0
C  C58  1  0.30916494  0.63546902  0.87627622  1  0  -0.141639  0  3.740145  0  0  -0.166253  0  4.001082  0  0  -0.165657  0  4.017457  0  0  -0.090299  -0.166695  0  3.990106  0
C  C59  1  0.67375493  0.36444425  0.62352429  1  0  -0.140674  0  3.739591  0  0  -0.165106  0  4.000066  0  0  -0.164447  0  4.016564  0  0  -0.089678  -0.165025  0  3.988876  0
C  C60  1  0.69084193  0.36452776  0.12372108  1  0  -0.141605  0  3.739931  0  0  -0.166199  0  4.000873  0  0  -0.165599  0  4.017241  0  0  -0.090258  -0.166646  0  3.989903  0
C  C61  1  0.32624189  0.63555724  0.37647565  1  0  -0.140829  0  3.739742  0  0  -0.165266  0  4.000226  0  0  -0.164611  0  4.016732  0  0  -0.089713  -0.165184  0  3.989036  0
C  C62  1  0.37041908  0.52863509  0.85270478  1  0  -0.099517  0  3.825806  0  0  -0.117203  0  4.092717  0  0  -0.123631  0  4.116504  0  0  -0.113171  -0.112683  0  4.076504  0
C  C63  1  0.84172490  0.47135693  0.64716440  1  0  -0.100296  0  3.826003  0  0  -0.118143  0  4.093009  0  0  -0.124771  0  4.11693  0  0  -0.113585  -0.113799  0  4.076547  0
C  C64  1  0.62958608  0.47136053  0.14729187  1  0  -0.09967  0  3.825658  0  0  -0.117369  0  4.092576  0  0  -0.123798  0  4.116366  0  0  -0.113231  -0.112846  0  4.076357  0
C  C65  1  0.15827019  0.52864335  0.35283230  1  0  -0.100137  0  3.825812  0  0  -0.11793  0  4.09278  0  0  -0.12456  0  4.116708  0  0  -0.113529  -0.113587  0  4.076319  0
C  C66  1  0.43521325  0.53143165  0.77144813  1  0  -0.080283  0  3.772958  0  0  -0.107931  0  4.03476  0  0  -0.104756  0  4.05716  0  0  -0.094968  -0.109795  0  4.019545  0
C  C67  1  0.90353829  0.46854319  0.72843892  1  0  -0.079645  0  3.773634  0  0  -0.107832  0  4.035498  0  0  -0.104722  0  4.05802  0  0  -0.094658  -0.109414  0  4.019967  0
C  C68  1  0.56479144  0.46856979  0.22854729  1  0  -0.080187  0  3.772987  0  0  -0.107851  0  4.034768  0  0  -0.104679  0  4.057172  0  0  -0.09492  -0.109709  0  4.019541  0
C  C69  1  0.09646022  0.53145942  0.27155781  1  0  -0.079796  0  3.77375  0  0  -0.107943  0  4.03561  0  0  -0.104834  0  4.058139  0  0  -0.094673  -0.109526  0  4.020082  0
C  C70  1  0.44607570  0.64402088  0.71098046  1  0  -0.15901  0  3.846987  0  0  -0.142716  0  4.091912  0  0  -0.157943  0  4.118132  0  0  -0.044481  -0.132819  0  4.074111  0
C  C71  1  0.80177922  0.35585465  0.78884859  1  0  -0.160125  0  3.848367  0  0  -0.143398  0  4.092502  0  0  -0.15863  0  4.11892  0  0  -0.045121  -0.133456  0  4.074973  0
C  C72  1  0.55393179  0.35597940  0.28901689  1  0  -0.159104  0  3.847052  0  0  -0.142664  0  4.091839  0  0  -0.157893  0  4.118059  0  0  -0.044406  -0.13277  0  4.074037  0
C  C73  1  0.19822217  0.64415148  0.21114881  1  0  -0.160019  0  3.8485  0  0  -0.143292  0  4.092562  0  0  -0.158526  0  4.11898  0  0  -0.0451  -0.133348  0  4.075028  0
C  C74  1  0.51332474  0.63979603  0.62725535  1  0  0.342523  0  3.728551  0  0  0.302818  0  3.992986  0  0  0.328118  0  3.990291  0  0  0.088112  0.285702  0  3.994713  0
C  C75  1  0.87313517  0.36036147  0.87262494  1  0  0.3426  0  3.727987  0  0  0.302354  0  3.992194  0  0  0.327547  0  3.989633  0  0  0.088144  0.285258  0  3.99418  0
C  C76  1  0.48668738  0.36021128  0.37274400  1  0  0.342638  0  3.72823  0  0  0.302903  0  3.992651  0  0  0.328204  0  3.989951  0  0  0.088171  0.28579  0  3.99438  0
C  C77  1  0.12686728  0.63964000  0.12737370  1  0  0.342463  0  3.727987  0  0  0.302189  0  3.992183  0  0  0.327388  0  3.989619  0  0  0.088082  0.285094  0  3.994167  0
C  C78  1  0.16740935  0.85279593  0.49270355  1  0  0.421656  0  3.796267  0  0  0.346264  0  4.085615  0  0  0.374126  0  4.08439  0  0  0.193371  0.327629  0  4.085882  0
C  C79  1  0.31460591  0.14725503  0.00740690  1  0  0.421394  0  3.79643  0  0  0.34609  0  4.085727  0  0  0.373915  0  4.084463  0  0  0.193295  0.327631  0  4.08579  0
C  C80  1  0.83259094  0.14721025  0.50729901  1  0  0.421741  0  3.796593  0  0  0.346285  0  4.086004  0  0  0.374149  0  4.084777  0  0  0.193359  0.327647  0  4.086273  0
C  C81  1  0.68539584  0.85273830  0.99259423  1  0  0.421529  0  3.796503  0  0  0.346192  0  4.08583  0  0  0.374028  0  4.084553  0  0  0.1933  0.327732  0  4.085891  0
C  C82  1  0.11148031  0.90418410  0.34614743  1  0  -0.173251  0  3.629935  0  0  -0.274054  0  3.873216  0  0  -0.271001  0  3.884358  0  0  -0.128696  -0.27591  0  3.865776  0
C  C83  1  0.20694692  0.09578633  0.15390386  1  0  -0.17324  0  3.628943  0  0  -0.2744  0  3.872853  0  0  -0.271351  0  3.883922  0  0  -0.128577  -0.276177  0  3.865274  0
C  C84  1  0.88852111  0.09582209  0.65385578  1  0  -0.173117  0  3.629795  0  0  -0.273791  0  3.87303  0  0  -0.270739  0  3.884176  0  0  -0.12864  -0.275652  0  3.865594  0
C  C85  1  0.79304921  0.90420701  0.84609792  1  0  -0.173058  0  3.629078  0  0  -0.274226  0  3.872969  0  0  -0.27118  0  3.884042  0  0  -0.12847  -0.276006  0  3.865395  0
C  C86  1  0.87575132  0.77057418  0.44866228  1  0  -0.173073  0  3.641228  0  0  -0.274831  0  3.890223  0  0  -0.270905  0  3.900667  0  0  -0.126303  -0.277138  0  3.882982  0
C  C87  1  0.10498457  0.22938829  0.05135630  1  0  -0.172989  0  3.639304  0  0  -0.274971  0  3.888305  0  0  -0.271163  0  3.898783  0  0  -0.126464  -0.277229  0  3.881079  0
C  C88  1  0.12424771  0.22942498  0.55133827  1  0  -0.173002  0  3.641201  0  0  -0.274781  0  3.890225  0  0  -0.270856  0  3.900663  0  0  -0.126313  -0.277085  0  3.882975  0
C  C89  1  0.89502295  0.77061205  0.94864555  1  0  -0.172891  0  3.639216  0  0  -0.274916  0  3.888237  0  0  -0.27111  0  3.898725  0  0  -0.126446  -0.277163  0  3.880984  0
N  N90  1  0.05730847  0.84276018  0.43168101  1  0  -0.081622  0  3.502608  0  0  0.02525  0  3.73288  0  0  0.004395  0  3.75964  0  0  -0.271435  0.039261  0  3.714307  0
N  N91  1  0.21436341  0.15721762  0.06837449  1  0  -0.081348  0  3.503446  0  0  0.025527  0  3.733815  0  0  0.004699  0  3.760571  0  0  -0.271401  0.0395  0  3.715069  0
N  N92  1  0.94268956  0.15724600  0.56832155  1  0  -0.081899  0  3.502783  0  0  0.025025  0  3.733024  0  0  0.004166  0  3.759785  0  0  -0.271456  0.039039  0  3.714452  0
N  N93  1  0.78563952  0.84277805  0.93162666  1  0  -0.081546  0  3.503691  0  0  0.025361  0  3.734072  0  0  0.004532  0  3.760827  0  0  -0.271466  0.039336  0  3.715325  0
O  O94  1  0.39525654  0.86734341  0.68619727  1  0  -0.698085  0  2.113004  0  0  -0.657675  0  2.362366  0  0  -0.684995  0  2.360558  0  0  -0.398889  -0.637332  0  2.362607  0
O  O95  1  0.52790653  0.13225671  0.81352948  1  0  -0.697299  0  2.113412  0  0  -0.657414  0  2.36285  0  0  -0.684985  0  2.361203  0  0  -0.398993  -0.63696  0  2.362935  0
O  O96  1  0.60473232  0.13265571  0.31379942  1  0  -0.698183  0  2.112893  0  0  -0.657749  0  2.3623  0  0  -0.685067  0  2.360492  0  0  -0.398901  -0.637408  0  2.362542  0
O  O97  1  0.47208847  0.86773664  0.18647295  1  0  -0.69725  0  2.113355  0  0  -0.657428  0  2.362815  0  0  -0.685001  0  2.361173  0  0  -0.398954  -0.63697  0  2.362895  0
O  O98  1  0.25125607  0.84543564  0.83465046  1  0  -0.575362  0  2.110644  0  0  -0.543824  0  2.376076  0  0  -0.572185  0  2.378179  0  0  -0.346726  -0.522386  0  2.373862  0
O  O99  1  0.40594611  0.15427702  0.66505375  1  0  -0.574953  0  2.110785  0  0  -0.543065  0  2.375517  0  0  -0.571668  0  2.377646  0  0  -0.346552  -0.522223  0  2.373607  0
O  O100  1  0.74873782  0.15455999  0.16534748  1  0  -0.575389  0  2.110618  0  0  -0.543847  0  2.376044  0  0  -0.572206  0  2.37815  0  0  -0.346765  -0.522405  0  2.373832  0
O  O101  1  0.59404333  0.84572099  0.33494808  1  0  -0.574966  0  2.110397  0  0  -0.543074  0  2.37518  0  0  -0.571676  0  2.377308  0  0  -0.346539  -0.522227  0  2.373267  0
O  O102  1  0.53349196  0.73013910  0.56682852  1  0  -0.534316  0  1.98971  0  0  -0.482163  0  2.209419  0  0  -0.498658  0  2.20051  0  0  -0.339528  -0.470981  0  2.215508  0
O  O103  1  0.80300328  0.27017602  0.93312155  1  0  -0.534403  0  1.98956  0  0  -0.481976  0  2.20913  0  0  -0.498538  0  2.20035  0  0  -0.339241  -0.47089  0  2.215193  0
O  O104  1  0.46652531  0.26987172  0.43317216  1  0  -0.534428  0  1.989589  0  0  -0.482284  0  2.209325  0  0  -0.498787  0  2.200427  0  0  -0.339611  -0.471099  0  2.215404  0
O  O105  1  0.19699867  0.72982896  0.06687842  1  0  -0.534369  0  1.989468  0  0  -0.481948  0  2.209065  0  0  -0.498506  0  2.200272  0  0  -0.33926  -0.470863  0  2.215125  0
O  O106  1  0.19505741  0.10238615  0.81854510  1  0  -0.716536  0  1.464328  0  0  -0.7118  0  1.71642  0  0  -0.737555  0  1.709215  0  0  -0.528078  -0.69348  0  1.722796  0
O  O107  1  0.09230138  0.89790756  0.68139846  1  0  -0.71652  0  1.465499  0  0  -0.712096  0  1.717969  0  0  -0.738001  0  1.710801  0  0  -0.528096  -0.6936  0  1.723535  0
O  O108  1  0.80492990  0.89761887  0.18145873  1  0  -0.716493  0  1.464956  0  0  -0.711763  0  1.717051  0  0  -0.737514  0  1.709862  0  0  -0.528117  -0.693472  0  1.723488  0
O  O109  1  0.90767777  0.10208339  0.31859814  1  0  -0.716538  0  1.465999  0  0  -0.712135  0  1.718492  0  0  -0.738024  0  1.711317  0  0  -0.528234  -0.693631  0  1.72405  0
O  O110  1  0.32641435  0.91647161  0.48439337  1  0  -0.674799  0  2.05745  0  0  -0.630404  0  2.319833  0  0  -0.650092  0  2.307545  0  0  -0.422474  -0.616684  0  2.327905  0
O  O111  1  0.40997447  0.08361135  0.01575088  1  0  -0.674978  0  2.056482  0  0  -0.630135  0  2.318426  0  0  -0.649779  0  2.306148  0  0  -0.421899  -0.616429  0  2.326385  0
O  O112  1  0.67358660  0.08354041  0.51561054  1  0  -0.674762  0  2.057592  0  0  -0.630345  0  2.319999  0  0  -0.650038  0  2.307717  0  0  -0.422415  -0.616621  0  2.328064  0
O  O113  1  0.59002503  0.91638198  0.98425026  1  0  -0.674961  0  2.056425  0  0  -0.630115  0  2.318375  0  0  -0.649757  0  2.306093  0  0  -0.421892  -0.616407  0  2.326334  0
