# generated using pymatgen
data_CuH9C13N3F2
_symmetry_space_group_name_H-M   'P 1'
_cell_length_a   7.59304331
_cell_length_b   7.65111594
_cell_length_c   11.28847628
_cell_angle_alpha   99.57275626
_cell_angle_beta   100.70603108
_cell_angle_gamma   101.86606423
_symmetry_Int_Tables_number   1
_chemical_formula_structural   CuH9C13N3F2
_chemical_formula_sum   'Cu2 H18 C26 N6 F4'
_cell_volume   616.19591017
_cell_formula_units_Z   2
loop_
 _symmetry_equiv_pos_site_id
 _symmetry_equiv_pos_as_xyz
  1  'x, y, z'
loop_
 _atom_site_type_symbol
 _atom_site_label
 _atom_site_symmetry_multiplicity
 _atom_site_fract_x
 _atom_site_fract_y
 _atom_site_fract_z
 _atom_site_occupancy
 _atom_site_pbe_bader_spin_density
 _atom_site_pbe_cm5_charge
 _atom_site_pbe_ddec_charge
 _atom_site_pbe_ddec_spin_density
 _atom_site_pbe_ddec_sum_bond_order
 _atom_site_pbe_magmom
Cu  Cu0  1  0.16457700  0.21024361  0.26393562  1  0  0.62376  0.503816  0  2.563134  0
Cu  Cu1  1  0.83542383  0.78976280  0.73606425  1  0  0.623739  0.503795  0  2.562888  0
H  H2  1  0.82676747  0.16702097  0.34796638  1  0  0.098208  0.104078  0  1.049127  0
H  H3  1  0.17323034  0.83297309  0.65203520  1  0  0.098191  0.104083  0  1.04908  0
H  H4  1  0.87006667  0.21911015  0.57888059  1  0  0.103136  0.09849  0  1.015796  0
H  H5  1  0.12992610  0.78087977  0.42112163  1  0  0.10314  0.098547  0  1.015706  0
H  H6  1  0.40334356  0.04633298  0.13991181  1  0  0.093044  0.141664  0  1.018455  0
H  H7  1  0.59665964  0.95366661  0.86008845  1  0  0.093038  0.141673  0  1.018473  0
H  H8  1  0.63620362  0.16147282  0.14920825  1  0  0.093371  0.148846  0  0.994363  0
H  H9  1  0.36380156  0.83852948  0.85079436  1  0  0.093361  0.14887  0  0.994408  0
H  H10  1  0.46112710  0.28611377  0.15322988  1  0  0.084474  0.113725  0  1.063614  0
H  H11  1  0.53887506  0.71388715  0.84677218  1  0  0.084485  0.113789  0  1.063566  0
H  H12  1  0.61012281  0.28265509  0.67250617  1  0  0.102525  0.117826  0  1.015407  0
H  H13  1  0.38987034  0.71733624  0.32749272  1  0  0.102542  0.117851  0  1.015398  0
H  H14  1  0.20327134  0.38983133  0.49865779  1  0  0.090945  0.128431  0  1.034359  0
H  H15  1  0.79672581  0.61017097  0.50134113  1  0  0.090957  0.128417  0  1.034378  0
H  H16  1  0.30493166  0.35241992  0.64531328  1  0  0.090377  0.138518  0  1.025044  0
H  H17  1  0.69506549  0.64758237  0.35468653  1  0  0.090417  0.138549  0  1.024998  0
H  H18  1  0.16164423  0.16619297  0.52918798  1  0  0.095043  0.137946  0  1.002208  0
H  H19  1  0.83835124  0.83380794  0.47081145  1  0  0.095012  0.137925  0  1.002222  0
C  C20  1  0.43003605  0.26297340  0.49680833  1  0  0.116392  0.316184  0  3.95294  0
C  C21  1  0.56996311  0.73702616  0.50319141  1  0  0.116371  0.316221  0  3.953011  0
C  C22  1  0.54881264  0.20074307  0.32043247  1  0  0.116445  0.326327  0  3.935124  0
C  C23  1  0.45118617  0.79925511  0.67956884  1  0  0.116431  0.326311  0  3.93507  0
C  C24  1  0.62679526  0.40125916  0.97756935  1  0  0.081452  0.117507  0  4.104978  0
C  C25  1  0.37319850  0.59873486  0.02243348  1  0  0.081487  0.11742  0  4.104896  0
C  C26  1  0.87955361  0.62011249  0.14638912  1  0  -0.05956  -0.185364  0  4.239773  0
C  C27  1  0.12045265  0.37989401  0.85360615  1  0  -0.059641  -0.18541  0  4.239474  0
C  C28  1  0.96593771  0.80500392  0.18538172  1  0  0.175921  0.296589  0  4.132477  0
C  C29  1  0.03406091  0.19498755  0.81460903  1  0  0.176063  0.296612  0  4.132737  0
C  C30  1  0.97812127  0.49560802  0.18075626  1  0  0.17451  0.29621  0  4.130894  0
C  C31  1  0.02188227  0.50439842  0.81924220  1  0  0.174545  0.296134  0  4.130698  0
C  C32  1  0.44518729  0.34428792  0.90980694  1  0  0.080118  0.112404  0  4.081751  0
C  C33  1  0.55481420  0.65571026  0.09019560  1  0  0.080087  0.112424  0  4.081647  0
C  C34  1  0.68989488  0.56000172  0.07138044  1  0  -0.025511  -0.08825  0  4.147665  0
C  C35  1  0.31010462  0.43999374  0.92861975  1  0  -0.02551  -0.088145  0  4.147577  0
C  C36  1  0.71689382  0.19447354  0.39272413  1  0  -0.092832  -0.189119  0  3.930578  0
C  C37  1  0.28310836  0.80552192  0.60727729  1  0  -0.092814  -0.189103  0  3.930631  0
C  C38  1  0.74026564  0.22351471  0.52041148  1  0  -0.074279  -0.015818  0  3.990143  0
C  C39  1  0.25972749  0.77647661  0.47958918  1  0  -0.074271  -0.015899  0  3.990089  0
C  C40  1  0.51178198  0.17210121  0.18303168  1  0  -0.247865  -0.471653  0  3.964697  0
C  C41  1  0.48822151  0.82789971  0.81697144  1  0  -0.247877  -0.471761  0  3.964686  0
C  C42  1  0.59570429  0.25870192  0.57304244  1  0  -0.091523  -0.189372  0  3.934402  0
C  C43  1  0.40429088  0.74129218  0.42695527  1  0  -0.091474  -0.18934  0  3.93447  0
C  C44  1  0.26694561  0.29582143  0.54587073  1  0  -0.244527  -0.463878  0  3.958928  0
C  C45  1  0.73305289  0.70418088  0.45412837  1  0  -0.244545  -0.463872  0  3.958871  0
N  N46  1  0.06000675  0.38963758  0.21196082  1  0  -0.439576  -0.487607  0  3.545254  0
N  N47  1  0.93999337  0.61036604  0.78804307  1  0  -0.439593  -0.487543  0  3.54505  0
N  N48  1  0.03747708  0.96223315  0.21770711  1  0  -0.426404  -0.468883  0  3.458656  0
N  N49  1  0.96253288  0.03778296  0.78228710  1  0  -0.426438  -0.468795  0  3.45916  0
N  N50  1  0.40849349  0.23416550  0.37253880  1  0  -0.367194  -0.343956  0  3.561819  0
N  N51  1  0.59150534  0.76583817  0.62746050  1  0  -0.367217  -0.344031  0  3.56183  0
F  F52  1  0.74523613  0.29699941  0.95164056  1  0  -0.077526  -0.100274  0  1.434515  0
F  F53  1  0.25476534  0.70299874  0.04836375  1  0  -0.077512  -0.100208  0  1.434572  0
F  F54  1  0.39916219  0.19116246  0.81848281  1  0  -0.072947  -0.094447  0  1.446452  0
F  F55  1  0.60084338  0.80884128  0.18151470  1  0  -0.072955  -0.094452  0  1.446463  0
