# generated using pymatgen
data_ZnP2H12C8(NO2)4
_symmetry_space_group_name_H-M   'P 1'
_cell_length_a   7.07472062
_cell_length_b   12.40021309
_cell_length_c   15.59375601
_cell_angle_alpha   90.00010847
_cell_angle_beta   90.00009848
_cell_angle_gamma   89.99982217
_symmetry_Int_Tables_number   1
_chemical_formula_structural   ZnP2H12C8(NO2)4
_chemical_formula_sum   'Zn4 P8 H48 C32 N16 O32'
_cell_volume   1368.00970174
_cell_formula_units_Z   4
loop_
 _symmetry_equiv_pos_site_id
 _symmetry_equiv_pos_as_xyz
  1  'x, y, z'
loop_
 _atom_site_type_symbol
 _atom_site_label
 _atom_site_symmetry_multiplicity
 _atom_site_fract_x
 _atom_site_fract_y
 _atom_site_fract_z
 _atom_site_occupancy
 _atom_site_hle17_bader_spin_density
 _atom_site_hle17_ddec_charge
 _atom_site_hle17_ddec_spin_density
 _atom_site_hle17_ddec_sum_bond_order
 _atom_site_hle17_magmom
 _atom_site_hse06_10hf_bader_spin_density
 _atom_site_hse06_10hf_ddec_charge
 _atom_site_hse06_10hf_ddec_spin_density
 _atom_site_hse06_10hf_ddec_sum_bond_order
 _atom_site_hse06_10hf_magmom
 _atom_site_hse06_bader_spin_density
 _atom_site_hse06_ddec_charge
 _atom_site_hse06_ddec_spin_density
 _atom_site_hse06_ddec_sum_bond_order
 _atom_site_hse06_magmom
 _atom_site_pbe_bader_spin_density
 _atom_site_pbe_cm5_charge
 _atom_site_pbe_ddec_charge
 _atom_site_pbe_ddec_spin_density
 _atom_site_pbe_ddec_sum_bond_order
 _atom_site_pbe_magmom
Zn  Zn0  1  0.99999951  0.50000079  0.50000025  1  0  1.161524  0  1.759707  0  0  0.991881  0  2.210495  0  0  1.034962  0  2.157045  0  0  0.691101  0.961564  0  2.247206  0
Zn  Zn1  1  0.00000141  1.00000000  0.00000064  1  0  1.161502  0  1.759727  0  0  0.99185  0  2.210515  0  0  1.034935  0  2.157064  0  0  0.691067  0.961529  0  2.247224  0
Zn  Zn2  1  0.49999949  0.00000015  0.50000032  1  0  1.161517  0  1.759731  0  0  0.991881  0  2.210512  0  0  1.034957  0  2.157061  0  0  0.691087  0.961562  0  2.247211  0
Zn  Zn3  1  0.50000050  0.50000022  0.99999955  1  0  1.161498  0  1.759772  0  0  0.991864  0  2.210562  0  0  1.034941  0  2.15711  0  0  0.691076  0.961542  0  2.247275  0
P  P4  1  0.75462472  0.64096432  0.84277785  1  0  1.481282  0  4.877998  0  0  1.308899  0  5.390659  0  0  1.361735  0  5.349359  0  0  0.364817  1.272108  0  5.418608  0
P  P5  1  0.24537056  0.85903462  0.34277897  1  0  1.481168  0  4.877911  0  0  1.308716  0  5.390654  0  0  1.361549  0  5.349356  0  0  0.364751  1.271917  0  5.41862  0
P  P6  1  0.74537352  0.14096646  0.15722102  1  0  1.481271  0  4.878174  0  0  1.308873  0  5.390838  0  0  1.361715  0  5.349533  0  0  0.364731  1.272064  0  5.418816  0
P  P7  1  0.25462517  0.35903309  0.65722048  1  0  1.481276  0  4.878099  0  0  1.30883  0  5.390931  0  0  1.361663  0  5.349644  0  0  0.364758  1.27204  0  5.418877  0
P  P8  1  0.24537439  0.35903573  0.15722163  1  0  1.481364  0  4.877965  0  0  1.308965  0  5.390682  0  0  1.361795  0  5.349385  0  0  0.364829  1.27217  0  5.418639  0
P  P9  1  0.75462854  0.14096624  0.65722179  1  0  1.481192  0  4.877955  0  0  1.308782  0  5.390667  0  0  1.361618  0  5.349371  0  0  0.364721  1.271977  0  5.418644  0
P  P10  1  0.25462417  0.85903198  0.84277782  1  0  1.481188  0  4.878198  0  0  1.308788  0  5.39088  0  0  1.36162  0  5.349589  0  0  0.364697  1.271988  0  5.418842  0
P  P11  1  0.74537111  0.64096615  0.34277900  1  0  1.481181  0  4.878097  0  0  1.308767  0  5.390766  0  0  1.361599  0  5.349469  0  0  0.364729  1.271949  0  5.418763  0
H  H12  1  0.97213853  0.56157337  0.69081833  1  0  0.094396  0  0.945263  0  0  0.102326  0  1.007629  0  0  0.105227  0  1.004903  0  0  0.123892  0.100135  0  1.009632  0
H  H13  1  0.02786041  0.93843085  0.19082068  1  0  0.094441  0  0.945335  0  0  0.102384  0  1.007688  0  0  0.105288  0  1.004957  0  0  0.123916  0.100195  0  1.009687  0
H  H14  1  0.52785872  0.06156900  0.30917913  1  0  0.094403  0  0.945351  0  0  0.102341  0  1.007708  0  0  0.105244  0  1.004979  0  0  0.123911  0.100154  0  1.009711  0
H  H15  1  0.47214196  0.43842930  0.80918080  1  0  0.094417  0  0.945316  0  0  0.102347  0  1.007681  0  0  0.105247  0  1.004957  0  0  0.123928  0.10016  0  1.009674  0
H  H16  1  0.02786057  0.43842829  0.30918050  1  0  0.094389  0  0.945273  0  0  0.102325  0  1.00764  0  0  0.105226  0  1.004913  0  0  0.123903  0.100137  0  1.009631  0
H  H17  1  0.97214435  0.06157243  0.80918136  1  0  0.094456  0  0.945297  0  0  0.102393  0  1.007649  0  0  0.105296  0  1.00492  0  0  0.123943  0.100206  0  1.009649  0
H  H18  1  0.47213897  0.93842944  0.69081906  1  0  0.094411  0  0.945374  0  0  0.102335  0  1.007735  0  0  0.105235  0  1.00501  0  0  0.123913  0.100149  0  1.009732  0
H  H19  1  0.52785714  0.56157156  0.19081739  1  0  0.094442  0  0.945223  0  0  0.102385  0  1.007586  0  0  0.105289  0  1.004855  0  0  0.123921  0.100198  0  1.009582  0
H  H20  1  0.40341197  0.67434861  0.73947806  1  0  0.082133  0  0.942362  0  0  0.08997  0  1.008288  0  0  0.092656  0  1.005566  0  0  0.120174  0.087903  0  1.010323  0
H  H21  1  0.59658150  0.82565008  0.23948068  1  0  0.082129  0  0.942426  0  0  0.089981  0  1.008334  0  0  0.092664  0  1.005608  0  0  0.120211  0.087916  0  1.010367  0
H  H22  1  0.09658193  0.17434884  0.26052239  1  0  0.082193  0  0.942341  0  0  0.090027  0  1.008273  0  0  0.092717  0  1.005548  0  0  0.120192  0.087958  0  1.010308  0
H  H23  1  0.90341857  0.32565176  0.76052038  1  0  0.082144  0  0.942417  0  0  0.089996  0  1.008327  0  0  0.092677  0  1.005603  0  0  0.120207  0.087934  0  1.010354  0
H  H24  1  0.59658713  0.32565225  0.26052206  1  0  0.082151  0  0.942364  0  0  0.089986  0  1.008289  0  0  0.092675  0  1.005564  0  0  0.12018  0.087919  0  1.010319  0
H  H25  1  0.40341761  0.17434755  0.76052136  1  0  0.08216  0  0.942394  0  0  0.090008  0  1.008302  0  0  0.092693  0  1.005577  0  0  0.120207  0.087944  0  1.010333  0
H  H26  1  0.90341859  0.82565121  0.73947772  1  0  0.082172  0  0.94237  0  0  0.090016  0  1.008293  0  0  0.092701  0  1.005568  0  0  0.120209  0.087952  0  1.010322  0
H  H27  1  0.09658195  0.67434748  0.23948037  1  0  0.082141  0  0.942411  0  0  0.089992  0  1.00832  0  0  0.092674  0  1.005596  0  0  0.120194  0.087926  0  1.010348  0
H  H28  1  0.57919113  0.58658112  0.49552785  1  0  0.061889  0  0.96925  0  0  0.06812  0  1.038854  0  0  0.070606  0  1.035008  0  0  0.131899  0.066182  0  1.041755  0
H  H29  1  0.42080897  0.91341979  0.99552945  1  0  0.061916  0  0.969258  0  0  0.068131  0  1.038855  0  0  0.070615  0  1.035009  0  0  0.131901  0.066195  0  1.041748  0
H  H30  1  0.92080457  0.08657813  0.50447221  1  0  0.061911  0  0.969244  0  0  0.068133  0  1.038843  0  0  0.070619  0  1.034995  0  0  0.131878  0.066196  0  1.041737  0
H  H31  1  0.07919495  0.41342106  0.00447072  1  0  0.061915  0  0.969249  0  0  0.068147  0  1.038838  0  0  0.070632  0  1.034992  0  0  0.131889  0.066213  0  1.041734  0
H  H32  1  0.42080797  0.41342054  0.50447227  1  0  0.061903  0  0.969272  0  0  0.068135  0  1.038855  0  0  0.070619  0  1.03501  0  0  0.131909  0.066196  0  1.041757  0
H  H33  1  0.57919155  0.08658026  0.00447131  1  0  0.06192  0  0.969256  0  0  0.068135  0  1.038854  0  0  0.070619  0  1.035008  0  0  0.131895  0.066197  0  1.04175  0
H  H34  1  0.07919312  0.91342111  0.49552790  1  0  0.061907  0  0.96925  0  0  0.068139  0  1.038856  0  0  0.070625  0  1.035009  0  0  0.131914  0.066205  0  1.041748  0
H  H35  1  0.92081122  0.58657899  0.99552875  1  0  0.06191  0  0.969258  0  0  0.068126  0  1.038845  0  0  0.070611  0  1.035  0  0  0.131897  0.06619  0  1.041743  0
H  H36  1  0.73509322  0.35539135  0.44543589  1  0  0.389241  0  0.927636  0  0  0.347743  0  1.009021  0  0  0.358725  0  0.993482  0  0  0.280333  0.340055  0  1.019866  0
H  H37  1  0.26490797  0.14460969  0.94543632  1  0  0.389239  0  0.927633  0  0  0.347743  0  1.009016  0  0  0.358725  0  0.993476  0  0  0.280344  0.340058  0  1.019857  0
H  H38  1  0.76490244  0.85539173  0.55456329  1  0  0.389247  0  0.927632  0  0  0.347739  0  1.009032  0  0  0.35872  0  0.993495  0  0  0.280345  0.340055  0  1.019869  0
H  H39  1  0.23509740  0.64460813  0.05456344  1  0  0.389227  0  0.92766  0  0  0.347737  0  1.009033  0  0  0.358718  0  0.993496  0  0  0.280342  0.340051  0  1.019875  0
H  H40  1  0.26490588  0.64460951  0.55456358  1  0  0.389247  0  0.927629  0  0  0.34775  0  1.009014  0  0  0.358731  0  0.993475  0  0  0.280348  0.340061  0  1.01986  0
H  H41  1  0.73509396  0.85539036  0.05456444  1  0  0.389237  0  0.927631  0  0  0.347737  0  1.00902  0  0  0.358718  0  0.993482  0  0  0.280352  0.340049  0  1.019865  0
H  H42  1  0.23509384  0.14460832  0.44543682  1  0  0.389253  0  0.927614  0  0  0.347746  0  1.009014  0  0  0.358728  0  0.993475  0  0  0.280357  0.340061  0  1.019856  0
H  H43  1  0.76490453  0.35539272  0.94543603  1  0  0.389228  0  0.927656  0  0  0.347719  0  1.009057  0  0  0.358701  0  0.993519  0  0  0.280331  0.34003  0  1.019905  0
H  H44  1  0.80973249  0.31880009  0.53877197  1  0  0.430327  0  0.866715  0  0  0.400396  0  0.927548  0  0  0.410527  0  0.912867  0  0  0.290407  0.393224  0  0.937927  0
H  H45  1  0.19027424  0.18120079  0.03877278  1  0  0.430286  0  0.866765  0  0  0.400353  0  0.9276  0  0  0.410483  0  0.912921  0  0  0.290399  0.393191  0  0.937962  0
H  H46  1  0.69026761  0.81880038  0.46122716  1  0  0.430343  0  0.866692  0  0  0.400411  0  0.927529  0  0  0.410541  0  0.912848  0  0  0.290413  0.393241  0  0.937904  0
H  H47  1  0.30972952  0.68119884  0.96122640  1  0  0.430322  0  0.866712  0  0  0.400384  0  0.927559  0  0  0.410514  0  0.912878  0  0  0.290398  0.39322  0  0.937921  0
H  H48  1  0.19026944  0.68119996  0.46122686  1  0  0.43032  0  0.866721  0  0  0.400385  0  0.927562  0  0  0.410516  0  0.912881  0  0  0.290412  0.39322  0  0.937928  0
H  H49  1  0.80972770  0.81880006  0.96122734  1  0  0.430292  0  0.866754  0  0  0.40036  0  0.927589  0  0  0.410491  0  0.912908  0  0  0.290396  0.393183  0  0.937975  0
H  H50  1  0.30973008  0.18120048  0.53877296  1  0  0.430304  0  0.866743  0  0  0.400374  0  0.927575  0  0  0.410505  0  0.912893  0  0  0.290416  0.393205  0  0.93795  0
H  H51  1  0.69027099  0.31880121  0.03877308  1  0  0.43031  0  0.86673  0  0  0.400376  0  0.927567  0  0  0.410507  0  0.912886  0  0  0.2904  0.393202  0  0.937951  0
H  H52  1  0.07060472  0.66857979  0.85344469  1  0  0.447407  0  0.857793  0  0  0.408906  0  0.932383  0  0  0.42123  0  0.914893  0  0  0.303279  0.40028  0  0.944583  0
H  H53  1  0.92939201  0.83141756  0.35344566  1  0  0.447453  0  0.857717  0  0  0.408923  0  0.932363  0  0  0.421248  0  0.914873  0  0  0.303276  0.4003  0  0.944557  0
H  H54  1  0.42939770  0.16858318  0.14655447  1  0  0.447499  0  0.857663  0  0  0.408976  0  0.932294  0  0  0.4213  0  0.914804  0  0  0.303309  0.400353  0  0.94449  0
H  H55  1  0.57060237  0.33141795  0.64655221  1  0  0.447455  0  0.857716  0  0  0.408951  0  0.93232  0  0  0.421278  0  0.914827  0  0  0.303296  0.400327  0  0.944516  0
H  H56  1  0.92939580  0.33141865  0.14655543  1  0  0.447465  0  0.857712  0  0  0.408963  0  0.932306  0  0  0.42129  0  0.914811  0  0  0.303288  0.400336  0  0.944505  0
H  H57  1  0.07060709  0.16858087  0.64655317  1  0  0.447457  0  0.857706  0  0  0.408925  0  0.932358  0  0  0.421251  0  0.914865  0  0  0.303278  0.400294  0  0.944565  0
H  H58  1  0.57060141  0.83141686  0.85344629  1  0  0.447444  0  0.857743  0  0  0.408934  0  0.932349  0  0  0.42126  0  0.914857  0  0  0.30328  0.400307  0  0.944551  0
H  H59  1  0.42939250  0.66858129  0.35344663  1  0  0.447467  0  0.857697  0  0  0.408931  0  0.932352  0  0  0.421257  0  0.91486  0  0  0.303275  0.400301  0  0.944558  0
C  C60  1  0.82956743  0.58405454  0.67148876  1  0  0.211858  0  3.635513  0  0  0.165621  0  3.88462  0  0  0.177549  0  3.8999  0  0  0.078102  0.158049  0  3.874279  0
C  C61  1  0.17043144  0.91594560  0.17149119  1  0  0.211785  0  3.635614  0  0  0.165512  0  3.884719  0  0  0.177448  0  3.9  0  0  0.078079  0.157933  0  3.874381  0
C  C62  1  0.67042970  0.08405319  0.32850938  1  0  0.211905  0  3.635536  0  0  0.165663  0  3.884633  0  0  0.177599  0  3.899911  0  0  0.078125  0.158081  0  3.874299  0
C  C63  1  0.32956823  0.41594596  0.82850834  1  0  0.211885  0  3.635547  0  0  0.16564  0  3.884646  0  0  0.177572  0  3.899931  0  0  0.078112  0.158066  0  3.874299  0
C  C64  1  0.17043308  0.41594712  0.32851136  1  0  0.211828  0  3.635595  0  0  0.165588  0  3.884695  0  0  0.177516  0  3.899975  0  0  0.078085  0.158011  0  3.874344  0
C  C65  1  0.82957050  0.08405687  0.82851021  1  0  0.211807  0  3.635582  0  0  0.16554  0  3.884713  0  0  0.177471  0  3.899992  0  0  0.078075  0.157964  0  3.874376  0
C  C66  1  0.32957224  0.91594606  0.67149010  1  0  0.211856  0  3.63548  0  0  0.165633  0  3.884551  0  0  0.177564  0  3.899831  0  0  0.078105  0.158056  0  3.874214  0
C  C67  1  0.67043229  0.58405489  0.17148921  1  0  0.211732  0  3.635575  0  0  0.16545  0  3.884691  0  0  0.177378  0  3.899971  0  0  0.078057  0.157873  0  3.874347  0
C  C68  1  0.69747318  0.62374598  0.73007244  1  0  -0.340068  0  3.712508  0  0  -0.295169  0  3.969659  0  0  -0.313659  0  3.990842  0  0  -0.016612  -0.28352  0  3.955931  0
C  C69  1  0.30252026  0.87625349  0.23007492  1  0  -0.340136  0  3.712594  0  0  -0.295191  0  3.96971  0  0  -0.313685  0  3.990892  0  0  -0.016627  -0.283546  0  3.955997  0
C  C70  1  0.80252374  0.12374748  0.26992768  1  0  -0.340147  0  3.712751  0  0  -0.295243  0  3.969918  0  0  -0.31374  0  3.991111  0  0  -0.016658  -0.28359  0  3.956192  0
C  C71  1  0.19747962  0.37625315  0.76992776  1  0  -0.340185  0  3.7128  0  0  -0.295243  0  3.969925  0  0  -0.313736  0  3.991107  0  0  -0.016653  -0.283595  0  3.9562  0
C  C72  1  0.30252593  0.37625568  0.26992831  1  0  -0.340074  0  3.712558  0  0  -0.295149  0  3.969676  0  0  -0.313634  0  3.990854  0  0  -0.016599  -0.283501  0  3.955945  0
C  C73  1  0.69748026  0.12374817  0.76992776  1  0  -0.340148  0  3.712797  0  0  -0.295211  0  3.969936  0  0  -0.313707  0  3.991126  0  0  -0.016655  -0.28357  0  3.956223  0
C  C74  1  0.19747678  0.87625257  0.73007180  1  0  -0.340083  0  3.712584  0  0  -0.295174  0  3.969733  0  0  -0.313674  0  3.99093  0  0  -0.016651  -0.283528  0  3.956014  0
C  C75  1  0.80252231  0.62374690  0.23007364  1  0  -0.340074  0  3.712635  0  0  -0.295101  0  3.969705  0  0  -0.313587  0  3.990879  0  0  -0.01662  -0.283447  0  3.955973  0
C  C76  1  0.51725392  0.64670619  0.69741637  1  0  0.212959  0  3.639206  0  0  0.166427  0  3.896723  0  0  0.178579  0  3.910629  0  0  0.08148  0.158782  0  3.88726  0
C  C77  1  0.48274363  0.85329240  0.19741959  1  0  0.213067  0  3.639198  0  0  0.166486  0  3.896724  0  0  0.178651  0  3.910617  0  0  0.081457  0.158842  0  3.887263  0
C  C78  1  0.98273863  0.14670583  0.30258378  1  0  0.212932  0  3.639381  0  0  0.166365  0  3.896903  0  0  0.178517  0  3.91081  0  0  0.08147  0.158727  0  3.887438  0
C  C79  1  0.01725920  0.35329326  0.80258048  1  0  0.213037  0  3.639237  0  0  0.166462  0  3.896768  0  0  0.178628  0  3.91066  0  0  0.081462  0.158822  0  3.887303  0
C  C80  1  0.48274518  0.35329466  0.30258374  1  0  0.212974  0  3.639256  0  0  0.166431  0  3.896766  0  0  0.178581  0  3.910669  0  0  0.08148  0.158783  0  3.887297  0
C  C81  1  0.51725971  0.14670684  0.80258117  1  0  0.212959  0  3.639181  0  0  0.166395  0  3.896718  0  0  0.178559  0  3.910618  0  0  0.081439  0.158755  0  3.887252  0
C  C82  1  0.01725906  0.85329260  0.69741633  1  0  0.212969  0  3.639366  0  0  0.166383  0  3.896901  0  0  0.178541  0  3.910802  0  0  0.08147  0.158738  0  3.887438  0
C  C83  1  0.98274132  0.64670599  0.19741963  1  0  0.212935  0  3.639214  0  0  0.166371  0  3.896744  0  0  0.178533  0  3.910637  0  0  0.081432  0.158732  0  3.887272  0
C  C84  1  0.61281093  0.59689632  0.56319662  1  0  0.315645  0  3.672907  0  0  0.260252  0  3.944702  0  0  0.276044  0  3.953893  0  0  0.191629  0.249832  0  3.938652  0
C  C85  1  0.38718894  0.90310357  0.06319920  1  0  0.315586  0  3.673054  0  0  0.260251  0  3.944749  0  0  0.276048  0  3.953943  0  0  0.191645  0.249833  0  3.938684  0
C  C86  1  0.88718471  0.09689403  0.43680217  1  0  0.315605  0  3.672992  0  0  0.26024  0  3.94473  0  0  0.276037  0  3.953922  0  0  0.191635  0.249819  0  3.938674  0
C  C87  1  0.11281079  0.40310457  0.93680095  1  0  0.315572  0  3.673015  0  0  0.260206  0  3.944773  0  0  0.276  0  3.953968  0  0  0.191605  0.249783  0  3.938724  0
C  C88  1  0.38718959  0.40310373  0.43680349  1  0  0.315599  0  3.67293  0  0  0.26023  0  3.9447  0  0  0.276023  0  3.953892  0  0  0.191619  0.249805  0  3.938651  0
C  C89  1  0.61281440  0.09689648  0.93680155  1  0  0.315508  0  3.673099  0  0  0.260189  0  3.9448  0  0  0.275982  0  3.953995  0  0  0.191636  0.249771  0  3.938744  0
C  C90  1  0.11281298  0.90310440  0.56319666  1  0  0.31563  0  3.672914  0  0  0.260206  0  3.944712  0  0  0.275996  0  3.953901  0  0  0.191595  0.249785  0  3.938657  0
C  C91  1  0.88718831  0.59689548  0.06319917  1  0  0.315523  0  3.673082  0  0  0.26023  0  3.944772  0  0  0.276021  0  3.953966  0  0  0.191597  0.249807  0  3.938727  0
N  N92  1  0.78689425  0.56936038  0.58832211  1  0  -0.344609  0  3.176275  0  0  -0.268527  0  3.447723  0  0  -0.288385  0  3.459973  0  0  -0.303844  -0.255449  0  3.439472  0
N  N93  1  0.21310430  0.93064118  0.08832460  1  0  -0.344542  0  3.176223  0  0  -0.268493  0  3.447677  0  0  -0.288366  0  3.459939  0  0  -0.303881  -0.255405  0  3.439414  0
N  N94  1  0.71310296  0.06935753  0.41167600  1  0  -0.344632  0  3.1762  0  0  -0.2686  0  3.447682  0  0  -0.288468  0  3.459937  0  0  -0.303916  -0.255515  0  3.439423  0
N  N95  1  0.28689670  0.43064182  0.91167624  1  0  -0.344589  0  3.176065  0  0  -0.268547  0  3.447554  0  0  -0.288413  0  3.45981  0  0  -0.303894  -0.25546  0  3.439297  0
N  N96  1  0.21310344  0.43064129  0.41167672  1  0  -0.34456  0  3.176242  0  0  -0.268517  0  3.44772  0  0  -0.288377  0  3.459971  0  0  -0.303874  -0.255436  0  3.439464  0
N  N97  1  0.78689622  0.06936129  0.91167744  1  0  -0.34454  0  3.176198  0  0  -0.268494  0  3.447656  0  0  -0.288351  0  3.459906  0  0  -0.303867  -0.255408  0  3.439402  0
N  N98  1  0.28689473  0.93064171  0.58832219  1  0  -0.344623  0  3.176138  0  0  -0.268557  0  3.447598  0  0  -0.288411  0  3.459843  0  0  -0.303869  -0.255475  0  3.439348  0
N  N99  1  0.71310665  0.56935985  0.08832260  1  0  -0.34449  0  3.176348  0  0  -0.268451  0  3.447796  0  0  -0.288307  0  3.460047  0  0  -0.303837  -0.255369  0  3.439546  0
N  N100  1  0.47615111  0.63494262  0.61413878  1  0  -0.32791  0  3.09334  0  0  -0.264455  0  3.349408  0  0  -0.281305  0  3.361046  0  0  -0.295563  -0.253465  0  3.341602  0
N  N101  1  0.52384330  0.86505819  0.11414013  1  0  -0.327977  0  3.09338  0  0  -0.264499  0  3.349409  0  0  -0.281348  0  3.36104  0  0  -0.295548  -0.253511  0  3.341596  0
N  N102  1  0.02384442  0.13494086  0.38586161  1  0  -0.327906  0  3.093367  0  0  -0.264406  0  3.349388  0  0  -0.281256  0  3.361023  0  0  -0.295499  -0.253425  0  3.341584  0
N  N103  1  0.97615655  0.36505923  0.88586100  1  0  -0.327949  0  3.093355  0  0  -0.264468  0  3.349408  0  0  -0.28132  0  3.361041  0  0  -0.295516  -0.25348  0  3.341602  0
N  N104  1  0.52384658  0.36505823  0.38586133  1  0  -0.327923  0  3.093395  0  0  -0.264464  0  3.34945  0  0  -0.281313  0  3.361086  0  0  -0.295545  -0.253466  0  3.341634  0
N  N105  1  0.47615580  0.13494186  0.88586191  1  0  -0.327847  0  3.093238  0  0  -0.264404  0  3.349287  0  0  -0.281261  0  3.360927  0  0  -0.295512  -0.253414  0  3.341475  0
N  N106  1  0.97615610  0.86505758  0.61413851  1  0  -0.327951  0  3.093429  0  0  -0.264418  0  3.349454  0  0  -0.281264  0  3.361086  0  0  -0.295525  -0.253427  0  3.341641  0
N  N107  1  0.02384679  0.63494082  0.11413912  1  0  -0.327867  0  3.09318  0  0  -0.264462  0  3.349256  0  0  -0.281312  0  3.36089  0  0  -0.295523  -0.253475  0  3.341449  0
O  O108  1  0.63467824  0.56136182  0.89124522  1  0  -0.851625  0  2.045527  0  0  -0.764538  0  2.336665  0  0  -0.79336  0  2.314534  0  0  -0.365043  -0.74389  0  2.351183  0
O  O109  1  0.36531722  0.93863643  0.39124655  1  0  -0.851577  0  2.045593  0  0  -0.764451  0  2.336708  0  0  -0.793272  0  2.314577  0  0  -0.365023  -0.743799  0  2.351235  0
O  O110  1  0.86532467  0.06136363  0.10875545  1  0  -0.85161  0  2.045532  0  0  -0.764489  0  2.336628  0  0  -0.79331  0  2.314494  0  0  -0.364985  -0.743836  0  2.351155  0
O  O111  1  0.13467525  0.43863581  0.60875558  1  0  -0.851612  0  2.045538  0  0  -0.764502  0  2.336656  0  0  -0.793325  0  2.314527  0  0  -0.364981  -0.743853  0  2.351181  0
O  O112  1  0.36532087  0.43863904  0.10875362  1  0  -0.851652  0  2.045501  0  0  -0.764563  0  2.336635  0  0  -0.793385  0  2.314505  0  0  -0.365051  -0.743918  0  2.351157  0
O  O113  1  0.63468047  0.06136281  0.60875549  1  0  -0.851562  0  2.045496  0  0  -0.764483  0  2.336638  0  0  -0.793304  0  2.314507  0  0  -0.364991  -0.743828  0  2.351165  0
O  O114  1  0.13467302  0.93863239  0.89124402  1  0  -0.851577  0  2.045558  0  0  -0.764467  0  2.336679  0  0  -0.793292  0  2.314551  0  0  -0.36496  -0.743822  0  2.351204  0
O  O115  1  0.86531961  0.56136505  0.39124582  1  0  -0.851541  0  2.045569  0  0  -0.764456  0  2.336721  0  0  -0.793277  0  2.314593  0  0  -0.364976  -0.743799  0  2.351254  0
O  O116  1  0.96938242  0.60765664  0.84934528  1  0  -0.767426  0  2.049035  0  0  -0.694545  0  2.288323  0  0  -0.71808  0  2.266  0  0  -0.386755  -0.677955  0  2.303458  0
O  O117  1  0.03061147  0.89234070  0.34934564  1  0  -0.767417  0  2.048862  0  0  -0.694499  0  2.288141  0  0  -0.718041  0  2.265839  0  0  -0.386692  -0.677904  0  2.303276  0
O  O118  1  0.53061741  0.10765834  0.15065290  1  0  -0.767525  0  2.048989  0  0  -0.694618  0  2.288257  0  0  -0.718158  0  2.265939  0  0  -0.38677  -0.678023  0  2.303394  0
O  O119  1  0.46938266  0.39234200  0.65065129  1  0  -0.767469  0  2.048943  0  0  -0.69459  0  2.288222  0  0  -0.718109  0  2.265867  0  0  -0.386751  -0.677999  0  2.303362  0
O  O120  1  0.03061669  0.39234099  0.15065484  1  0  -0.767458  0  2.048978  0  0  -0.694593  0  2.28829  0  0  -0.718128  0  2.26596  0  0  -0.386713  -0.678  0  2.303428  0
O  O121  1  0.96938763  0.10765854  0.65065384  1  0  -0.767449  0  2.048882  0  0  -0.694506  0  2.288102  0  0  -0.718045  0  2.26579  0  0  -0.386707  -0.677906  0  2.303248  0
O  O122  1  0.46938310  0.89234010  0.84934722  1  0  -0.767427  0  2.048918  0  0  -0.694561  0  2.28822  0  0  -0.718083  0  2.26587  0  0  -0.386739  -0.677967  0  2.30336  0
O  O123  1  0.53061361  0.60765886  0.34934562  1  0  -0.767452  0  2.048911  0  0  -0.694519  0  2.288159  0  0  -0.718065  0  2.265857  0  0  -0.386716  -0.677919  0  2.303311  0
O  O124  1  0.73397910  0.76060424  0.86444237  1  0  -0.841712  0  1.983682  0  0  -0.752166  0  2.217821  0  0  -0.778579  0  2.196621  0  0  -0.359844  -0.73338  0  2.231959  0
O  O125  1  0.26601768  0.73939394  0.36444461  1  0  -0.841638  0  1.983622  0  0  -0.752084  0  2.217789  0  0  -0.778487  0  2.196585  0  0  -0.359825  -0.733307  0  2.231956  0
O  O126  1  0.76601991  0.26060468  0.13555732  1  0  -0.841631  0  1.983782  0  0  -0.752096  0  2.21793  0  0  -0.77851  0  2.19673  0  0  -0.359783  -0.73332  0  2.232109  0
O  O127  1  0.23398153  0.23939401  0.63555594  1  0  -0.841629  0  1.983784  0  0  -0.752077  0  2.217955  0  0  -0.77849  0  2.196757  0  0  -0.359802  -0.733303  0  2.232118  0
O  O128  1  0.26602566  0.23939662  0.13555775  1  0  -0.841739  0  1.983719  0  0  -0.752193  0  2.217873  0  0  -0.778595  0  2.196668  0  0  -0.359863  -0.733401  0  2.23199  0
O  O129  1  0.73398143  0.26060530  0.63555615  1  0  -0.841631  0  1.983653  0  0  -0.7521  0  2.217809  0  0  -0.778514  0  2.196608  0  0  -0.359819  -0.733323  0  2.231974  0
O  O130  1  0.23398061  0.73939134  0.86443959  1  0  -0.841606  0  1.983796  0  0  -0.752059  0  2.217932  0  0  -0.778462  0  2.196728  0  0  -0.359766  -0.733285  0  2.232101  0
O  O131  1  0.76601334  0.76060684  0.36444290  1  0  -0.84163  0  1.98371  0  0  -0.752105  0  2.217889  0  0  -0.778512  0  2.196688  0  0  -0.359812  -0.733316  0  2.232035  0
O  O132  1  0.84798398  0.35420260  0.48436883  1  0  -0.834601  0  1.937985  0  0  -0.775238  0  2.155439  0  0  -0.797035  0  2.123104  0  0  -0.583925  -0.75971  0  2.177762  0
O  O133  1  0.15202019  0.14579772  0.98436981  1  0  -0.834551  0  1.937983  0  0  -0.775192  0  2.155434  0  0  -0.796988  0  2.123102  0  0  -0.583924  -0.75967  0  2.177739  0
O  O134  1  0.65201452  0.85420310  0.51563100  1  0  -0.834604  0  1.937968  0  0  -0.775241  0  2.15543  0  0  -0.797035  0  2.123095  0  0  -0.583939  -0.759717  0  2.177746  0
O  O135  1  0.34798376  0.64579748  0.01563124  1  0  -0.83458  0  1.938007  0  0  -0.775216  0  2.155452  0  0  -0.797012  0  2.123119  0  0  -0.583923  -0.759688  0  2.177755  0
O  O136  1  0.15201513  0.64579744  0.51563065  1  0  -0.834588  0  1.937974  0  0  -0.775222  0  2.155432  0  0  -0.797019  0  2.123097  0  0  -0.583933  -0.759695  0  2.17775  0
O  O137  1  0.84798174  0.85420152  0.01563095  1  0  -0.834555  0  1.937989  0  0  -0.775202  0  2.155451  0  0  -0.796999  0  2.123118  0  0  -0.583948  -0.759673  0  2.177781  0
O  O138  1  0.34798458  0.14579857  0.48436912  1  0  -0.834564  0  1.937963  0  0  -0.775204  0  2.155423  0  0  -0.796998  0  2.123087  0  0  -0.58395  -0.759672  0  2.177739  0
O  O139  1  0.65201535  0.35420257  0.98437016  1  0  -0.834568  0  1.938008  0  0  -0.775197  0  2.155472  0  0  -0.796992  0  2.123136  0  0  -0.58392  -0.759664  0  2.177803  0
