# generated using pymatgen
data_Cd3H22(C15O8)2
_symmetry_space_group_name_H-M   'P 1'
_cell_length_a   6.67493082
_cell_length_b   15.26484216
_cell_length_c   19.47820000
_cell_angle_alpha   113.00788628
_cell_angle_beta   90.00000000
_cell_angle_gamma   102.62875972
_symmetry_Int_Tables_number   1
_chemical_formula_structural   Cd3H22(C15O8)2
_chemical_formula_sum   'Cd6 H44 C60 O32'
_cell_volume   1774.50839207
_cell_formula_units_Z   2
loop_
 _symmetry_equiv_pos_site_id
 _symmetry_equiv_pos_as_xyz
  1  'x, y, z'
loop_
 _atom_site_type_symbol
 _atom_site_label
 _atom_site_symmetry_multiplicity
 _atom_site_fract_x
 _atom_site_fract_y
 _atom_site_fract_z
 _atom_site_occupancy
 _atom_site_hle17_bader_spin_density
 _atom_site_hle17_ddec_charge
 _atom_site_hle17_ddec_spin_density
 _atom_site_hle17_ddec_sum_bond_order
 _atom_site_hle17_magmom
 _atom_site_hse06_10hf_bader_spin_density
 _atom_site_hse06_10hf_ddec_charge
 _atom_site_hse06_10hf_ddec_spin_density
 _atom_site_hse06_10hf_ddec_sum_bond_order
 _atom_site_hse06_10hf_magmom
 _atom_site_hse06_bader_spin_density
 _atom_site_hse06_ddec_charge
 _atom_site_hse06_ddec_spin_density
 _atom_site_hse06_ddec_sum_bond_order
 _atom_site_hse06_magmom
 _atom_site_pbe_bader_charge
 _atom_site_pbe_bader_spin_density
 _atom_site_pbe_cm5_charge
 _atom_site_pbe_ddec_charge
 _atom_site_pbe_ddec_spin_density
 _atom_site_pbe_ddec_sum_bond_order
 _atom_site_pbe_magmom
Cd  Cd0  1  0.53727589  0.00004176  0.74999636  1  0  1.216401  0  1.544503  0  0  1.037325  0  1.961876  0  0  1.104391  0  1.902208  0  1.309953  0  0.774112  0.989561  0  2.002359  0
Cd  Cd1  1  0.46272230  0.99995803  0.25000373  1  0  1.216383  0  1.544532  0  0  1.037329  0  1.961877  0  0  1.10438  0  1.902236  0  1.309949  0  0.774111  0.989565  0  2.002359  0
Cd  Cd2  1  0.94371784  0.80018330  0.64712345  1  0  1.276612  0  1.526293  0  0  1.106952  0  1.968121  0  0  1.16651  0  1.907297  0  1.324563  0  0.779695  1.064188  0  2.01012  0
Cd  Cd3  1  0.14306882  0.19972271  0.85274575  1  0  1.27758  0  1.525867  0  0  1.108307  0  1.967178  0  0  1.167777  0  1.906417  0  1.327093  0  0.780357  1.065594  0  2.009131  0
Cd  Cd4  1  0.05628072  0.19981723  0.35287738  1  0  1.276594  0  1.526275  0  0  1.106934  0  1.968099  0  0  1.166491  0  1.907274  0  1.324587  0  0.779687  1.064169  0  2.0101  0
Cd  Cd5  1  0.85693160  0.80027855  0.14725479  1  0  1.277601  0  1.525822  0  0  1.108337  0  1.967129  0  0  1.167807  0  1.906368  0  1.327122  0  0.780382  1.065623  0  2.00908  0
H  H6  1  0.69746245  0.53501347  0.41040883  1  0  0.10466  0  0.930608  0  0  0.116945  0  0.984995  0  0  0.120486  0  0.98282  0  0.093847  0  0.108611  0.114428  0  0.986599  0
H  H7  1  0.16269110  0.46482953  0.08937125  1  0  0.104551  0  0.930095  0  0  0.116522  0  0.984949  0  0  0.120066  0  0.982769  0  0.07527  0  0.108437  0.114007  0  0.986517  0
H  H8  1  0.30253873  0.46498633  0.58959229  1  0  0.104677  0  0.930579  0  0  0.116956  0  0.984971  0  0  0.120498  0  0.982796  0  0.093842  0  0.10861  0.114439  0  0.986575  0
H  H9  1  0.83730896  0.53517099  0.91062958  1  0  0.104552  0  0.930065  0  0  0.11652  0  0.984926  0  0  0.120065  0  0.982745  0  0.07527  0  0.108445  0.114004  0  0.986495  0
H  H10  1  0.79448513  0.44884747  0.59004507  1  0  0.108039  0  0.936225  0  0  0.118283  0  0.995555  0  0  0.122243  0  0.992787  0  0.08397  0  0.106646  0.11541  0  0.99763  0
H  H11  1  0.34614870  0.55121021  0.90985672  1  0  0.108859  0  0.935594  0  0  0.118765  0  0.995131  0  0  0.122717  0  0.992343  0  0.08882  0  0.106812  0.115895  0  0.997197  0
H  H12  1  0.20551419  0.55115159  0.40995582  1  0  0.108042  0  0.936253  0  0  0.118277  0  0.995595  0  0  0.122236  0  0.992826  0  0.083997  0  0.106656  0.115406  0  0.997669  0
H  H13  1  0.65385059  0.44879178  0.09014404  1  0  0.108887  0  0.935526  0  0  0.118797  0  0.995063  0  0  0.122751  0  0.992274  0  0.08881  0  0.106829  0.115928  0  0.997129  0
H  H14  1  0.13708079  0.97763091  0.63147264  1  0  0.440212  0  0.854218  0  0  0.409043  0  0.916492  0  0  0.419502  0  0.901405  0  0.648591  0  0.295301  0.401599  0  0.92721  0
H  H15  1  0.15990798  0.02245901  0.86852117  1  0  0.43794  0  0.856523  0  0  0.406835  0  0.918602  0  0  0.417278  0  0.903568  0  0.637546  0  0.294261  0.399385  0  0.929317  0
H  H16  1  0.86291889  0.02236888  0.36852693  1  0  0.440207  0  0.854227  0  0  0.409041  0  0.916495  0  0  0.4195  0  0.901408  0  0.648583  0  0.295307  0.401595  0  0.927216  0
H  H17  1  0.84009434  0.97754006  0.13147716  1  0  0.437984  0  0.856458  0  0  0.406878  0  0.918537  0  0  0.417322  0  0.903501  0  0.637567  0  0.294296  0.399428  0  0.929252  0
H  H18  1  0.89607399  0.97757010  0.63003294  1  0  0.445775  0  0.847295  0  0  0.414232  0  0.910471  0  0  0.42537  0  0.894285  0  0.669702  0  0.296934  0.406277  0  0.922008  0
H  H19  1  0.91883453  0.02229488  0.86989403  1  0  0.445994  0  0.8469  0  0  0.414247  0  0.91035  0  0  0.425406  0  0.894126  0  0.652251  0  0.296992  0.406279  0  0.921912  0
H  H20  1  0.10392533  0.02242897  0.36996641  1  0  0.445819  0  0.84726  0  0  0.414278  0  0.910437  0  0  0.425418  0  0.894247  0  0.669727  0  0.296961  0.406321  0  0.921971  0
H  H21  1  0.08116965  0.97770491  0.13010555  1  0  0.445964  0  0.846934  0  0  0.414223  0  0.910372  0  0  0.425381  0  0.894149  0  0.652239  0  0.296991  0.406255  0  0.921934  0
H  H22  1  0.57124397  0.35885245  0.32325272  1  0  0.098825  0  0.926751  0  0  0.113377  0  0.977684  0  0  0.116404  0  0.97647  0  0.059138  0  0.106925  0.111196  0  0.978657  0
H  H23  1  0.21289218  0.64096930  0.17663123  1  0  0.09951  0  0.927276  0  0  0.113871  0  0.978268  0  0  0.116897  0  0.97705  0  0.07074  0  0.107327  0.111686  0  0.97925  0
H  H24  1  0.42875795  0.64114881  0.67674782  1  0  0.098807  0  0.926707  0  0  0.113355  0  0.977642  0  0  0.116385  0  0.976428  0  0.059134  0  0.106942  0.111174  0  0.978615  0
H  H25  1  0.78710638  0.35903123  0.82337012  1  0  0.099532  0  0.927257  0  0  0.113891  0  0.97825  0  0  0.116917  0  0.977032  0  0.07077  0  0.107333  0.111706  0  0.979232  0
H  H26  1  0.99288440  0.73427971  0.75203479  1  0  0.431654  0  0.816913  0  0  0.416031  0  0.866202  0  0  0.424471  0  0.857174  0  0.624701  0  0.321819  0.410025  0  0.872631  0
H  H27  1  0.25853317  0.26579408  0.74801415  1  0  0.432598  0  0.815875  0  0  0.416764  0  0.865541  0  0  0.425231  0  0.856455  0  0.623709  0  0.321826  0.410741  0  0.872001  0
H  H28  1  0.00711529  0.26572008  0.24796428  1  0  0.431659  0  0.816903  0  0  0.416036  0  0.86619  0  0  0.424475  0  0.857164  0  0.62463  0  0.321821  0.41003  0  0.872619  0
H  H29  1  0.74146652  0.73420571  0.25198594  1  0  0.432575  0  0.815902  0  0  0.416743  0  0.865569  0  0  0.425209  0  0.856483  0  0.623704  0  0.321815  0.410719  0  0.87203  0
H  H30  1  0.11389380  0.84606992  0.79706889  1  0  0.42674  0  0.876879  0  0  0.391764  0  0.946303  0  0  0.403118  0  0.930053  0  0.642247  0  0.288064  0.383698  0  0.957832  0
H  H31  1  0.26753761  0.15396871  0.70289381  1  0  0.426157  0  0.877582  0  0  0.390922  0  0.94745  0  0  0.402308  0  0.931193  0  0.652344  0  0.287818  0.382844  0  0.958966  0
H  H32  1  0.88610515  0.15392841  0.20293076  1  0  0.426729  0  0.876889  0  0  0.391748  0  0.946322  0  0  0.403103  0  0.930071  0  0.642212  0  0.288054  0.383682  0  0.957851  0
H  H33  1  0.73246021  0.84603036  0.29710657  1  0  0.426177  0  0.877554  0  0  0.390934  0  0.947433  0  0  0.40232  0  0.931176  0  0.652334  0  0.287818  0.382856  0  0.958949  0
H  H34  1  0.96929210  0.29997239  0.56448903  1  0  0.110513  0  0.95309  0  0  0.119827  0  1.012905  0  0  0.123737  0  1.010605  0  0.097794  0  0.103419  0.117005  0  1.014669  0
H  H35  1  0.67054969  0.70017174  0.93568465  1  0  0.111356  0  0.953037  0  0  0.120929  0  1.012544  0  0  0.124746  0  1.010359  0  0.10521  0  0.103986  0.118173  0  1.014255  0
H  H36  1  0.03070646  0.70002814  0.43550975  1  0  0.11052  0  0.953064  0  0  0.119847  0  1.012866  0  0  0.123756  0  1.010564  0  0.097812  0  0.103423  0.117025  0  1.014631  0
H  H37  1  0.32944887  0.29982878  0.06431669  1  0  0.11137  0  0.95302  0  0  0.120942  0  1.012524  0  0  0.124758  0  1.010341  0  0.10521  0  0.103993  0.118187  0  1.014233  0
H  H38  1  0.91466178  0.18530419  0.63003285  1  0  0.105368  0  0.957605  0  0  0.112628  0  1.022486  0  0  0.116599  0  1.019346  0  0.108605  0  0.10012  0.109676  0  1.024875  0
H  H39  1  0.73080063  0.81480917  0.87010368  1  0  0.104501  0  0.959074  0  0  0.112109  0  1.023606  0  0  0.116088  0  1.020454  0  0.126654  0  0.099824  0.109169  0  1.025992  0
H  H40  1  0.08534313  0.81469706  0.36996667  1  0  0.10535  0  0.957643  0  0  0.112594  0  1.022536  0  0  0.116569  0  1.019399  0  0.108703  0  0.100105  0.10966  0  1.024907  0
H  H41  1  0.26919869  0.18518990  0.12989670  1  0  0.104501  0  0.959063  0  0  0.112101  0  1.023608  0  0  0.116095  0  1.020441  0  0.126625  0  0.099822  0.10916  0  1.025994  0
H  H42  1  0.27759318  0.07940771  0.53888125  1  0  0.100246  0  0.936437  0  0  0.112357  0  0.993332  0  0  0.11587  0  0.991087  0  0.072465  0  0.105746  0.109788  0  0.995072  0
H  H43  1  0.19923347  0.92051002  0.96100643  1  0  0.099879  0  0.937127  0  0  0.111843  0  0.994235  0  0  0.11534  0  0.992004  0  0.089201  0  0.105714  0.109279  0  0.995942  0
H  H44  1  0.72240688  0.92059282  0.46112009  1  0  0.100252  0  0.936434  0  0  0.112365  0  0.993328  0  0  0.115878  0  0.991082  0  0.072436  0  0.105744  0.109798  0  0.995064  0
H  H45  1  0.80076359  0.07949050  0.03899338  1  0  0.099867  0  0.937208  0  0  0.111839  0  0.9943  0  0  0.115334  0  0.992069  0  0.089213  0  0.105722  0.109275  0  0.996006  0
H  H46  1  0.33269790  0.19228009  0.47407546  1  0  0.101536  0  0.969101  0  0  0.111697  0  1.033111  0  0  0.114674  0  1.031643  0  0.099063  0  0.100644  0.109553  0  1.034331  0
H  H47  1  0.14134951  0.80775414  0.02588640  1  0  0.101972  0  0.96851  0  0  0.111738  0  1.033022  0  0  0.114747  0  1.031513  0  0.09496  0  0.100631  0.109573  0  1.034254  0
H  H48  1  0.66729992  0.80771897  0.52592440  1  0  0.101587  0  0.969074  0  0  0.111743  0  1.033086  0  0  0.11472  0  1.031618  0  0.099058  0  0.10068  0.109599  0  1.034306  0
H  H49  1  0.85864941  0.19224712  0.97411414  1  0  0.102026  0  0.968518  0  0  0.111791  0  1.033022  0  0  0.1148  0  1.031513  0  0.094964  0  0.100661  0.109626  0  1.034253  0
C  C50  1  0.55623650  0.20081808  0.35325171  1  0  0.683258  0  3.864362  0  0  0.626315  0  4.160457  0  0  0.663333  0  4.152135  0  1.517311  0  0.218062  0.600984  0  4.165308  0
C  C51  1  0.35589120  0.79907401  0.14675543  1  0  0.685174  0  3.861988  0  0  0.627893  0  4.158167  0  0  0.664884  0  4.149877  0  1.532033  0  0.219172  0.602562  0  4.163031  0
C  C52  1  0.44376169  0.79918172  0.64674838  1  0  0.683295  0  3.864271  0  0  0.626315  0  4.16042  0  0  0.663333  0  4.152097  0  1.517309  0  0.21808  0.600984  0  4.165271  0
C  C53  1  0.64411035  0.20092651  0.85324540  1  0  0.685144  0  3.861959  0  0  0.627848  0  4.158156  0  0  0.66484  0  4.14987  0  1.53206  0  0.219152  0.602505  0  4.163033  0
C  C54  1  0.61651595  0.30504330  0.40787676  1  0  -0.106392  0  3.741206  0  0  -0.090789  0  3.98309  0  0  -0.096983  0  4.002599  0  -0.00215  0  -0.014284  -0.086504  0  3.969744  0
C  C55  1  0.31212285  0.69487589  0.09207913  1  0  -0.107121  0  3.741167  0  0  -0.090406  0  3.981842  0  0  -0.096731  0  4.001605  0  -0.062961  0  -0.013634  -0.086053  0  3.968401  0
C  C56  1  0.38348110  0.69495722  0.59212355  1  0  -0.106409  0  3.741233  0  0  -0.090809  0  3.983139  0  0  -0.097002  0  4.002645  0  -0.002174  0  -0.014277  -0.086523  0  3.969792  0
C  C57  1  0.68787944  0.30512610  0.90792215  1  0  -0.107069  0  3.74119  0  0  -0.090356  0  3.981859  0  0  -0.096684  0  4.001628  0  -0.063169  0  -0.013621  -0.085998  0  3.968418  0
C  C58  1  0.69323294  0.47684191  0.42985550  1  0  -0.053735  0  3.70267  0  0  -0.079075  0  3.960922  0  0  -0.078783  0  3.979233  0  -0.070039  0  -0.077016  -0.079087  0  3.948496  0
C  C59  1  0.21677565  0.52304871  0.06997972  1  0  -0.052799  0  3.701829  0  0  -0.07795  0  3.960095  0  0  -0.077637  0  3.978381  0  -0.03072  0  -0.076548  -0.077748  0  3.947748  0
C  C60  1  0.30676525  0.52315788  0.57014459  1  0  -0.053767  0  3.702564  0  0  -0.079103  0  3.960814  0  0  -0.078812  0  3.979127  0  -0.070016  0  -0.077024  -0.079116  0  3.948389  0
C  C61  1  0.78322404  0.47695108  0.93001986  1  0  -0.052786  0  3.701734  0  0  -0.077937  0  3.960002  0  0  -0.077622  0  3.978286  0  -0.030705  0  -0.076549  -0.07773  0  3.947658  0
C  C62  1  0.75738595  0.50171365  0.50488627  1  0  -0.032437  0  3.734846  0  0  -0.017712  0  3.98013  0  0  -0.024082  0  4.002465  0  0.010524  0  -0.012611  -0.013931  0  3.965796  0
C  C63  1  0.25597203  0.49824292  0.99494348  1  0  -0.033085  0  3.7358  0  0  -0.01827  0  3.980483  0  0  -0.024818  0  4.003135  0  0.007425  0  -0.012564  -0.01503  0  3.966722  0
C  C64  1  0.24261224  0.49828615  0.49511382  1  0  -0.032574  0  3.734818  0  0  -0.01785  0  3.980087  0  0  -0.024232  0  4.002442  0  0.01046  0  -0.012669  -0.014068  0  3.965753  0
C  C65  1  0.74402652  0.50175761  0.00505684  1  0  -0.033039  0  3.735674  0  0  -0.018212  0  3.98035  0  0  -0.024761  0  4.003003  0  0.007428  0  -0.012559  -0.014995  0  3.966615  0
C  C66  1  0.74858977  0.42787655  0.53102162  1  0  -0.096519  0  3.669843  0  0  -0.126968  0  3.923047  0  0  -0.127918  0  3.94155  0  0.028659  0  -0.074275  -0.126127  0  3.91059  0
C  C67  1  0.32125031  0.57212618  0.96888028  1  0  -0.098133  0  3.671413  0  0  -0.128218  0  3.924707  0  0  -0.129095  0  3.943141  0  0.022798  0  -0.074637  -0.127193  0  3.912361  0
C  C68  1  0.25140955  0.57212252  0.46897927  1  0  -0.096511  0  3.66994  0  0  -0.126951  0  3.923147  0  0  -0.127897  0  3.941646  0  0.028651  0  -0.074284  -0.126111  0  3.910689  0
C  C69  1  0.67874861  0.42787508  0.03111974  1  0  -0.098151  0  3.671384  0  0  -0.12826  0  3.924695  0  0  -0.129137  0  3.94313  0  0.022751  0  -0.074653  -0.127229  0  3.912348  0
C  C70  1  0.67779454  0.32896622  0.48359594  1  0  0.046088  0  3.74737  0  0  0.052408  0  3.984868  0  0  0.052846  0  4.007568  0  -0.026139  0  0.000285  0.052096  0  3.969394  0
C  C71  1  0.34961563  0.67102552  0.01638115  1  0  0.047844  0  3.747443  0  0  0.053343  0  3.985001  0  0  0.053785  0  4.007783  0  0.028214  0  0.000581  0.053007  0  3.969488  0
C  C72  1  0.32220515  0.67103358  0.51640364  1  0  0.046132  0  3.747361  0  0  0.05245  0  3.984853  0  0  0.052891  0  4.007549  0  -0.026096  0  0.000299  0.052138  0  3.96938  0
C  C73  1  0.65038329  0.32897574  0.98361991  1  0  0.047782  0  3.747493  0  0  0.053315  0  3.985041  0  0  0.053756  0  4.007825  0  0.028176  0  0.0006  0.052982  0  3.969523  0
C  C74  1  0.82885498  0.60654701  0.55830168  1  0  0.624768  0  3.945232  0  0  0.578829  0  4.236921  0  0  0.612356  0  4.234452  0  1.532613  0  0.191299  0.556199  0  4.23754  0
C  C75  1  0.22235855  0.39343447  0.94146639  1  0  0.627013  0  3.941515  0  0  0.581358  0  4.232844  0  0  0.614941  0  4.230267  0  1.548553  0  0.192442  0.558908  0  4.233462  0
C  C76  1  0.17114171  0.39345279  0.44169944  1  0  0.624864  0  3.945065  0  0  0.578936  0  4.23674  0  0  0.612463  0  4.234268  0  1.532666  0  0.191339  0.556306  0  4.23736  0
C  C77  1  0.77764186  0.60656679  0.05853312  1  0  0.626898  0  3.941585  0  0  0.581248  0  4.232919  0  0  0.614832  0  4.230347  0  1.548601  0  0.192402  0.558805  0  4.233533  0
C  C78  1  0.62225895  0.37887748  0.38169893  1  0  -0.065623  0  3.737003  0  0  -0.090547  0  3.994372  0  0  -0.09118  0  4.012976  0  0.011881  0  -0.08445  -0.090096  0  3.98163  0
C  C79  1  0.24389892  0.62098604  0.11818754  1  0  -0.06629  0  3.738882  0  0  -0.09139  0  3.996083  0  0  -0.091972  0  4.014728  0  -0.004297  0  -0.085071  -0.09097  0  3.983282  0
C  C80  1  0.37773997  0.62112378  0.61830109  1  0  -0.065539  0  3.736968  0  0  -0.090446  0  3.994311  0  0  -0.091081  0  4.012918  0  0.011907  0  -0.084426  -0.089995  0  3.981568  0
C  C81  1  0.75610076  0.37901376  0.88181306  1  0  -0.066358  0  3.738932  0  0  -0.091457  0  3.996135  0  0  -0.09204  0  4.014782  0  -0.004085  0  -0.085103  -0.091036  0  3.983331  0
C  C82  1  0.65455927  0.25422425  0.51561691  1  0  0.066561  0  3.75911  0  0  0.080153  0  3.992986  0  0  0.080974  0  4.017415  0  -0.058052  0  -0.002158  0.079668  0  3.976386  0
C  C83  1  0.40140499  0.74584735  0.98443804  1  0  0.065408  0  3.759475  0  0  0.079885  0  3.992372  0  0  0.080771  0  4.016713  0  -0.035825  0  -0.002734  0.079354  0  3.975854  0
C  C84  1  0.34543892  0.74577555  0.48438267  1  0  0.06653  0  3.759171  0  0  0.080145  0  3.993019  0  0  0.080966  0  4.017445  0  -0.058074  0  -0.002163  0.07966  0  3.976419  0
C  C85  1  0.59859507  0.25415318  0.01556228  1  0  0.065477  0  3.759537  0  0  0.079915  0  3.99247  0  0  0.080802  0  4.01681  0  -0.035439  0  -0.002739  0.079384  0  3.97595  0
C  C86  1  0.81843643  0.25149719  0.55947103  1  0  -0.110584  0  3.721185  0  0  -0.127203  0  3.964592  0  0  -0.131302  0  3.985336  0  0.040283  0  -0.087486  -0.124408  0  3.950434  0
C  C87  1  0.56817875  0.74864694  0.94066261  1  0  -0.111126  0  3.72038  0  0  -0.12831  0  3.963992  0  0  -0.13235  0  3.984735  0  -0.041062  0  -0.087988  -0.125585  0  3.949872  0
C  C88  1  0.18156625  0.74850260  0.44052855  1  0  -0.110576  0  3.72118  0  0  -0.127218  0  3.964581  0  0  -0.131313  0  3.985321  0  0.040293  0  -0.087468  -0.124424  0  3.950429  0
C  C89  1  0.43182280  0.25135358  0.05933822  1  0  -0.11119  0  3.720337  0  0  -0.128362  0  3.963963  0  0  -0.132403  0  3.984708  0  -0.041373  0  -0.088011  -0.125635  0  3.949841  0
C  C90  1  0.78905547  0.18678935  0.59491672  1  0  -0.06741  0  3.73676  0  0  -0.08826  0  3.979132  0  0  -0.088041  0  3.999364  0  -0.129826  0  -0.085615  -0.088122  0  3.965349  0
C  C91  1  0.60357013  0.81333354  0.90518371  1  0  -0.06674  0  3.738401  0  0  -0.087864  0  3.981001  0  0  -0.087617  0  4.001191  0  -0.062001  0  -0.085353  -0.087758  0  3.967266  0
C  C92  1  0.21094645  0.81321191  0.40508280  1  0  -0.067352  0  3.736737  0  0  -0.088186  0  3.979103  0  0  -0.087973  0  3.999339  0  -0.129871  0  -0.085589  -0.088065  0  3.965313  0
C  C93  1  0.39642769  0.18666552  0.09481667  1  0  -0.066701  0  3.738241  0  0  -0.087843  0  3.980818  0  0  -0.087593  0  4.001015  0  -0.061984  0  -0.085361  -0.087736  0  3.967083  0
C  C94  1  0.59294374  0.12601383  0.58883094  1  0  -0.087733  0  3.802434  0  0  -0.066392  0  4.044136  0  0  -0.075296  0  4.068192  0  -0.020636  0  -0.02684  -0.060573  0  4.027842  0
C  C95  1  0.46802723  0.87399769  0.91116504  1  0  -0.088819  0  3.803537  0  0  -0.067962  0  4.045327  0  0  -0.076899  0  4.069431  0  -0.03574  0  -0.027558  -0.062148  0  4.029041  0
C  C96  1  0.40706004  0.87398816  0.41117034  1  0  -0.087754  0  3.802427  0  0  -0.066403  0  4.044115  0  0  -0.075306  0  4.068169  0  -0.020682  0  -0.026852  -0.060585  0  4.027827  0
C  C97  1  0.53197359  0.12600137  0.08883380  1  0  -0.088928  0  3.803612  0  0  -0.06799  0  4.045306  0  0  -0.07698  0  4.069482  0  -0.03574  0  -0.027539  -0.062178  0  4.029024  0
C  C98  1  0.42964082  0.12706084  0.54401401  1  0  -0.0655  0  3.750379  0  0  -0.091834  0  4.004176  0  0  -0.091373  0  4.024445  0  -0.021626  0  -0.086818  -0.091933  0  3.990383  0
C  C99  1  0.30367269  0.87292943  0.95596160  1  0  -0.063943  0  3.749571  0  0  -0.090045  0  4.003326  0  0  -0.089572  0  4.023644  0  -0.05046  0  -0.086169  -0.090124  0  3.989473  0
C  C100  1  0.57035923  0.87293969  0.45598682  1  0  -0.065528  0  3.750448  0  0  -0.091867  0  4.004251  0  0  -0.091407  0  4.02452  0  -0.021775  0  -0.086826  -0.091969  0  3.990457  0
C  C101  1  0.69632663  0.12706963  0.04403775  1  0  -0.063829  0  3.749626  0  0  -0.089975  0  4.003364  0  0  -0.089482  0  4.02369  0  -0.050486  0  -0.086154  -0.090054  0  3.989512  0
C  C102  1  0.46146615  0.18951421  0.50682888  1  0  -0.104703  0  3.712406  0  0  -0.123774  0  3.958639  0  0  -0.127609  0  3.979811  0  -0.03201  0  -0.090691  -0.12124  0  3.944315  0
C  C103  1  0.27298836  0.81052882  0.99317829  1  0  -0.105198  0  3.713783  0  0  -0.124244  0  3.95963  0  0  -0.128102  0  3.980777  0  -0.033301  0  -0.090647  -0.121686  0  3.945321  0
C  C104  1  0.53853654  0.81048559  0.49317121  1  0  -0.104749  0  3.712441  0  0  -0.123825  0  3.958679  0  0  -0.127659  0  3.979849  0  -0.031869  0  -0.090735  -0.121291  0  3.944357  0
C  C105  1  0.72701206  0.18947244  0.00682174  1  0  -0.105343  0  3.713831  0  0  -0.124372  0  3.959695  0  0  -0.12823  0  3.980836  0  -0.033357  0  -0.09072  -0.121813  0  3.945385  0
C  C106  1  0.55518421  0.06895375  0.63594503  1  0  0.672891  0  3.859148  0  0  0.614602  0  4.154329  0  0  0.649848  0  4.147709  0  1.497656  0  0.214922  0.590643  0  4.157981  0
C  C107  1  0.48691038  0.93100428  0.86401814  1  0  0.673766  0  3.856357  0  0  0.616663  0  4.149815  0  0  0.65191  0  4.143187  0  1.505122  0  0.215997  0.592716  0  4.153464  0
C  C108  1  0.44481770  0.93104750  0.36405551  1  0  0.67287  0  3.859106  0  0  0.614564  0  4.154309  0  0  0.649811  0  4.147687  0  1.497665  0  0.214887  0.590603  0  4.157962  0
C  C109  1  0.51308967  0.06899625  0.13598218  1  0  0.67381  0  3.856357  0  0  0.616699  0  4.149784  0  0  0.651964  0  4.143157  0  1.505128  0  0.216014  0.592754  0  4.153433  0
O  O110  1  0.69261217  0.15011038  0.33761724  1  0  -0.673769  0  2.074931  0  0  -0.597035  0  2.34091  0  0  -0.631788  0  2.329032  0  -1.143658  0  -0.315973  -0.572585  0  2.348113  0
O  O111  1  0.54288089  0.84986303  0.16243690  1  0  -0.675855  0  2.07517  0  0  -0.599228  0  2.341537  0  0  -0.633984  0  2.329762  0  -1.159771  0  -0.317359  -0.574829  0  2.348808  0
O  O112  1  0.30738302  0.84988941  0.66238234  1  0  -0.673805  0  2.07487  0  0  -0.597045  0  2.340863  0  0  -0.631812  0  2.329015  0  -1.143696  0  -0.316003  -0.572597  0  2.348067  0
O  O113  1  0.45711916  0.15013749  0.83756342  1  0  -0.67587  0  2.075132  0  0  -0.599217  0  2.341474  0  0  -0.633978  0  2.329702  0  -1.159753  0  -0.317363  -0.574813  0  2.348748  0
O  O114  1  0.37431154  0.16222021  0.32046328  1  0  -0.652843  0  2.048149  0  0  -0.577398  0  2.307984  0  0  -0.610832  0  2.295733  0  -1.155745  0  -0.31258  -0.553894  0  2.315565  0
O  O115  1  0.21243393  0.83758982  0.17954850  1  0  -0.653125  0  2.045552  0  0  -0.577918  0  2.305967  0  0  -0.611309  0  2.293686  0  -1.15586  0  -0.313069  -0.554398  0  2.313487  0
O  O116  1  0.62568665  0.83777958  0.67953681  1  0  -0.652862  0  2.048136  0  0  -0.577399  0  2.307981  0  0  -0.610832  0  2.295727  0  -1.155694  0  -0.312577  -0.553896  0  2.315562  0
O  O117  1  0.78756613  0.16241071  0.82045233  1  0  -0.653088  0  2.045576  0  0  -0.57788  0  2.306006  0  0  -0.611268  0  2.293714  0  -1.155862  0  -0.313056  -0.554355  0  2.31353  0
O  O118  1  0.37951414  0.05975929  0.66344615  1  0  -0.692638  0  2.052271  0  0  -0.611336  0  2.274206  0  0  -0.641343  0  2.262956  0  -1.190699  0  -0.318543  -0.59022  0  2.281285  0
O  O119  1  0.32022764  0.94011742  0.83659838  1  0  -0.693661  0  2.051377  0  0  -0.612939  0  2.272741  0  0  -0.642892  0  2.261474  0  -1.198306  0  -0.319603  -0.591834  0  2.279826  0
O  O120  1  0.62048741  0.94024124  0.33655365  1  0  -0.692657  0  2.052227  0  0  -0.611347  0  2.274165  0  0  -0.641351  0  2.262913  0  -1.19072  0  -0.318559  -0.590228  0  2.281245  0
O  O121  1  0.67977355  0.05988238  0.16340120  1  0  -0.693669  0  2.051353  0  0  -0.612945  0  2.272711  0  0  -0.6429  0  2.261437  0  -1.198304  0  -0.319596  -0.59184  0  2.279796  0
O  O122  1  0.69680247  0.03542827  0.65352849  1  0  -0.635987  0  2.036044  0  0  -0.563819  0  2.273811  0  0  -0.59509  0  2.264435  0  -1.160692  0  -0.307513  -0.541968  0  2.279556  0
O  O123  1  0.66185956  0.96465432  0.84636810  1  0  -0.635892  0  2.03418  0  0  -0.564214  0  2.271487  0  0  -0.595508  0  2.262133  0  -1.162859  0  -0.307567  -0.542364  0  2.277228  0
O  O124  1  0.30319945  0.96457299  0.34647308  1  0  -0.635975  0  2.036068  0  0  -0.563792  0  2.273821  0  0  -0.595061  0  2.264445  0  -1.16069  0  -0.307474  -0.541938  0  2.279567  0
O  O125  1  0.33814050  0.03534621  0.15363273  1  0  -0.635868  0  2.03416  0  0  -0.564221  0  2.271497  0  0  -0.595514  0  2.262137  0  -1.162858  0  -0.307584  -0.542372  0  2.277237  0
O  O126  1  0.88026979  0.62712301  0.62675689  1  0  -0.66854  0  1.935814  0  0  -0.611853  0  2.161658  0  0  -0.640875  0  2.154186  0  -1.171268  0  -0.33983  -0.591459  0  2.166058  0
O  O127  1  0.25324626  0.37291049  0.87303687  1  0  -0.669127  0  1.934228  0  0  -0.612534  0  2.159802  0  0  -0.641492  0  2.15226  0  -1.176966  0  -0.340296  -0.592169  0  2.164124  0
O  O128  1  0.11972989  0.37287678  0.37324423  1  0  -0.668514  0  1.935761  0  0  -0.611829  0  2.161594  0  0  -0.640851  0  2.154123  0  -1.171263  0  -0.339801  -0.591434  0  2.165994  0
O  O129  1  0.74676052  0.62709150  0.12696389  1  0  -0.669121  0  1.934282  0  0  -0.612543  0  2.159872  0  0  -0.6415  0  2.152329  0  -1.176985  0  -0.340316  -0.592181  0  2.164194  0
O  O130  1  0.83424923  0.67315763  0.53298335  1  0  -0.662798  0  1.982859  0  0  -0.601475  0  2.231944  0  0  -0.633395  0  2.225509  0  -1.145378  0  -0.328981  -0.579102  0  2.235564  0
O  O131  1  0.16087226  0.32679673  0.96675383  1  0  -0.664616  0  1.982388  0  0  -0.603476  0  2.231563  0  0  -0.635331  0  2.224834  0  -1.162933  0  -0.329832  -0.581079  0  2.235135  0
O  O132  1  0.16574746  0.32684216  0.46701726  1  0  -0.66288  0  1.982866  0  0  -0.601546  0  2.23191  0  0  -0.633463  0  2.225473  0  -1.145422  0  -0.329034  -0.579175  0  2.235532  0
O  O133  1  0.83912366  0.67320453  0.03324568  1  0  -0.664561  0  1.982399  0  0  -0.603421  0  2.231562  0  0  -0.635278  0  2.224839  0  -1.16298  0  -0.329792  -0.58101  0  2.235096  0
O  O134  1  0.99571968  0.93536302  0.61973201  1  0  -0.858117  0  1.823288  0  0  -0.791923  0  2.013459  0  0  -0.815385  0  1.978098  0  -1.271015  0  -0.589113  -0.775262  0  2.038164  0
O  O135  1  0.06059399  0.06461040  0.88023022  1  0  -0.85622  0  1.824217  0  0  -0.789634  0  2.014744  0  0  -0.813147  0  1.979406  0  -1.242846  0  -0.588229  -0.772948  0  2.039467  0
O  O136  1  0.00427927  0.06463531  0.38026661  1  0  -0.858145  0  1.823276  0  0  -0.791965  0  2.013436  0  0  -0.815429  0  1.978071  0  -1.271033  0  -0.589146  -0.775308  0  2.038171  0
O  O137  1  0.93940796  0.93538793  0.11976788  1  0  -0.856224  0  1.824152  0  0  -0.789635  0  2.014674  0  0  -0.813147  0  1.979336  0  -1.242858  0  -0.588259  -0.77295  0  2.039395  0
O  O138  1  0.98108113  0.80182451  0.76780771  1  0  -0.816179  0  1.834677  0  0  -0.756191  0  2.016922  0  0  -0.778713  0  1.98703  0  -1.218564  0  -0.570576  -0.740197  0  2.037629  0
O  O139  1  0.17903732  0.19825368  0.73214195  1  0  -0.81695  0  1.834224  0  0  -0.756571  0  2.016527  0  0  -0.779157  0  1.986503  0  -1.228127  0  -0.57056  -0.74054  0  2.037318  0
O  O140  1  0.01891856  0.19817528  0.23219238  1  0  -0.816171  0  1.83466  0  0  -0.756176  0  2.0169  0  0  -0.778699  0  1.987009  0  -1.218451  0  -0.570566  -0.740181  0  2.037607  0
O  O141  1  0.82096087  0.80174612  0.26785814  1  0  -0.816946  0  1.834215  0  0  -0.75656  0  2.016521  0  0  -0.779151  0  1.986509  0  -1.228105  0  -0.57055  -0.740525  0  2.037305  0
