# generated using pymatgen
data_CdAg2H32C28(N5O2)2
_symmetry_space_group_name_H-M   'P 1'
_cell_length_a   7.19785669
_cell_length_b   9.39503527
_cell_length_c   12.78394536
_cell_angle_alpha   75.63165123
_cell_angle_beta   86.68607828
_cell_angle_gamma   70.54863458
_symmetry_Int_Tables_number   1
_chemical_formula_structural   CdAg2H32C28(N5O2)2
_chemical_formula_sum   'Cd1 Ag2 H32 C28 N10 O4'
_cell_volume   789.37134139
_cell_formula_units_Z   1
loop_
 _symmetry_equiv_pos_site_id
 _symmetry_equiv_pos_as_xyz
  1  'x, y, z'
loop_
 _atom_site_type_symbol
 _atom_site_label
 _atom_site_symmetry_multiplicity
 _atom_site_fract_x
 _atom_site_fract_y
 _atom_site_fract_z
 _atom_site_occupancy
 _atom_site_hle17_ddec_charge
 _atom_site_hle17_ddec_spin_density
 _atom_site_hle17_ddec_sum_bond_order
 _atom_site_hle17_magmom
 _atom_site_hse06_10hf_ddec_charge
 _atom_site_hse06_10hf_ddec_spin_density
 _atom_site_hse06_10hf_ddec_sum_bond_order
 _atom_site_hse06_10hf_magmom
 _atom_site_hse06_ddec_charge
 _atom_site_hse06_ddec_spin_density
 _atom_site_hse06_ddec_sum_bond_order
 _atom_site_hse06_magmom
 _atom_site_pbe_cm5_charge
 _atom_site_pbe_ddec_charge
 _atom_site_pbe_ddec_spin_density
 _atom_site_pbe_ddec_sum_bond_order
 _atom_site_pbe_magmom
Cd  Cd0  1  0.50000367  0.49999707  0.00000015  1  1.078226  0.0  1.937503  0.0  0.887145  0.0  2.401577  0.0  0.934015  -1e-06  2.362544  0.0  0.840538  0.854251  0.0  2.42809  0.0
Ag  Ag1  1  0.80524294  0.95053783  0.94637393  1  0.306109  -8.4e-05  1.888679  0.0  0.211977  -6.5e-05  2.32936  0.0  0.226122  -8.9e-05  2.292097  0.0  0.351983  0.202192  -2.7e-05  2.355016  0.0
Ag  Ag2  1  0.19475652  0.04946133  0.05362154  1  0.306062  8.4e-05  1.888722  0.0  0.211926  6.6e-05  2.329413  0.0  0.226071  9.1e-05  2.292147  0.0  0.35196  0.202142  2.6e-05  2.355069  0.0
H  H3  1  0.15267340  0.40461447  0.11790178  1  0.086244  -0.000531  0.961742  -0.001  0.091446  9.3e-05  1.028749  0.0  0.093363  0.000161  1.027839  0.0  0.113776  0.090161  5.4e-05  1.029388  0.0
H  H4  1  0.84732657  0.59538707  0.88209792  1  0.086224  0.000532  0.961756  0.001  0.091424  -9.3e-05  1.028775  0.0  0.093343  -0.000161  1.027855  0.0  0.11378  0.090138  -5.4e-05  1.029414  0.0
H  H5  1  0.04426227  0.29621189  0.30004816  1  0.117547  0.001503  0.960573  0.002  0.125974  0.00037  1.021722  0.0  0.129274  0.000342  1.020624  0.001  0.113281  0.12349  0.00041  1.022851  0.0
H  H6  1  0.95573958  0.70378850  0.69995167  1  0.117544  -0.001505  0.960567  -0.002  0.125973  -0.00037  1.021714  0.0  0.129271  -0.000343  1.020619  -0.001  0.113272  0.123488  -0.00041  1.022842  0.0
H  H7  1  0.57231504  0.31731121  0.43358620  1  0.129768  0.001895  0.966001  0.002  0.132698  0.00122  1.03402  0.0  0.137579  0.001023  1.030297  0.001  0.113695  0.129016  0.001371  1.037102  0.0
H  H8  1  0.42768693  0.68268566  0.56641351  1  0.129823  -0.001896  0.965978  -0.002  0.132751  -0.00122  1.033992  0.0  0.137633  -0.001023  1.030268  -0.001  0.113723  0.129069  -0.001371  1.037073  0.0
H  H9  1  0.65602466  0.42558885  0.24577255  1  0.08943  -0.000612  0.927633  -0.001  0.100371  7.7e-05  0.986264  0.0  0.102543  0.000115  0.984703  0.0  0.122083  0.098794  5e-05  0.987473  0.0
H  H10  1  0.34397824  0.57440922  0.75422846  1  0.089463  0.000613  0.927647  0.001  0.100402  -7.7e-05  0.986271  0.0  0.102575  -0.000114  0.984709  0.0  0.12208  0.098827  -5e-05  0.987474  0.0
H  H11  1  0.37902931  0.90559826  0.73673720  1  0.110301  3e-05  0.978596  0.0  0.128181  0.000219  1.042561  0.0  0.128619  0.000146  1.045641  0.0  0.088893  0.127737  0.000256  1.040566  0.0
H  H12  1  0.62096927  0.09440326  0.26326256  1  0.110311  -3e-05  0.978614  0.0  0.128183  -0.000219  1.042577  0.0  0.12862  -0.000146  1.045656  0.0  0.088894  0.127739  -0.000256  1.04058  0.0
H  H13  1  0.26405577  0.00300646  0.83797363  1  0.101433  -0.000323  0.973523  0.0  0.120852  -4.9e-05  1.044044  0.0  0.121687  -0.000124  1.044006  0.0  0.082806  0.120142  1e-06  1.044287  0.0
H  H14  1  0.73594191  0.99699387  0.16202561  1  0.101478  0.000323  0.973509  0.0  0.120889  4.9e-05  1.044027  0.0  0.12172  0.000124  1.043995  0.0  0.082834  0.120179  -1e-06  1.04427  0.0
H  H15  1  0.49659611  0.01248309  0.78996095  1  0.106419  -0.000489  0.970279  0.0  0.121086  -0.000316  1.046756  0.0  0.123585  -0.00038  1.044327  0.0  0.08311  0.119337  -0.000273  1.048367  0.0
H  H16  1  0.50340026  0.98751725  0.21004069  1  0.106441  0.000489  0.970324  0.0  0.121111  0.000316  1.046779  0.0  0.123607  0.00038  1.044354  0.0  0.083115  0.119359  0.000273  1.048392  0.0
H  H17  1  0.39754834  0.29603573  0.73321046  1  0.11898  -0.001048  0.950664  -0.001  0.138875  -0.000468  1.011466  0.0  0.139953  -0.000701  1.012647  0.0  0.093709  0.137978  -0.000311  1.0109  0.0
H  H18  1  0.60244747  0.70396575  0.26678942  1  0.118953  0.001049  0.950648  0.001  0.138864  0.000468  1.011423  0.0  0.139941  0.0007  1.012603  0.0  0.093707  0.137967  0.000311  1.010857  0.0
H  H19  1  0.16960217  0.30498099  0.79555158  1  0.122158  0.000785  0.937688  0.001  0.145871  0.001166  0.992996  0.001  0.146609  0.00123  0.994066  0.001  0.093929  0.145392  0.001149  0.99219  0.001
H  H20  1  0.83039553  0.69501935  0.20444844  1  0.122125  -0.000784  0.937663  -0.001  0.145822  -0.001166  0.993005  -0.001  0.146561  -0.001231  0.994075  -0.001  0.093901  0.145344  -0.00115  0.9922  -0.001
H  H21  1  0.17328924  0.41065600  0.65852175  1  0.113781  -0.00088  0.973776  -0.001  0.12408  -0.000654  1.049872  0.0  0.126863  -0.000589  1.048574  0.0  0.08724  0.12197  -0.000668  1.050944  0.0
H  H22  1  0.82670849  0.58934434  0.34147905  1  0.11376  0.00088  0.973821  0.001  0.12405  0.000654  1.049926  0.0  0.126838  0.000588  1.048623  0.0  0.087229  0.121941  0.000668  1.050996  0.0
H  H23  1  0.90041080  0.02427812  0.59530390  1  0.132839  -0.000692  0.957281  -0.001  0.151259  3.9e-05  1.019255  0.0  0.153311  -8.8e-05  1.019012  0.0  0.097077  0.149576  0.000129  1.019758  0.0
H  H24  1  0.09958965  0.97572225  0.40469521  1  0.13282  0.000692  0.957295  0.001  0.15121  -3.9e-05  1.019297  0.0  0.153289  8.8e-05  1.019019  0.0  0.097067  0.14953  -0.000129  1.019794  0.0
H  H25  1  0.03730465  0.93868906  0.71923807  1  0.109466  0.000436  0.962143  0.0  0.131418  0.000793  1.026391  0.001  0.132089  0.00087  1.027153  0.001  0.088587  0.130844  0.000764  1.026041  0.001
H  H26  1  0.96269444  0.06131129  0.28076189  1  0.10948  -0.000436  0.962192  0.0  0.131427  -0.000793  1.02643  -0.001  0.132099  -0.00087  1.027198  -0.001  0.088592  0.130855  -0.000764  1.02608  -0.001
H  H27  1  0.16322843  0.94286335  0.59479846  1  0.11618  -0.000324  0.961028  -0.001  0.12813  -6e-05  1.03754  0.0  0.130278  6.5e-05  1.03702  0.0  0.091167  0.126374  -0.000125  1.038203  0.0
H  H28  1  0.83677154  0.05713818  0.40520123  1  0.116178  0.000324  0.961043  0.001  0.128123  6e-05  1.037552  0.0  0.130272  -6.5e-05  1.037033  0.0  0.091167  0.126372  0.000125  1.038212  0.0
H  H29  1  0.86410187  0.37519174  0.68781229  1  0.107713  -4e-05  0.982846  0.0  0.124078  0.000179  1.050225  0.0  0.12447  8.1e-05  1.053137  0.0  0.086762  0.123692  0.000249  1.048463  0.0
H  H30  1  0.13589584  0.62480860  0.31218773  1  0.107719  4e-05  0.982842  0.0  0.124082  -0.000179  1.050225  0.0  0.124474  -8.1e-05  1.053138  0.0  0.086763  0.123695  -0.000249  1.048462  0.0
H  H31  1  0.87711520  0.19538979  0.77993795  1  0.101474  -0.000327  0.967472  0.0  0.120454  -3.1e-05  1.039537  0.0  0.121617  -0.000121  1.038687  0.0  0.082534  0.119743  3.3e-05  1.039933  0.0
H  H32  1  0.12288666  0.80461060  0.22006188  1  0.101475  0.000327  0.967475  0.0  0.120453  3.1e-05  1.039543  0.0  0.121616  0.000121  1.038693  0.0  0.082533  0.119743  -3.3e-05  1.039939  0.0
H  H33  1  0.73583281  0.25640885  0.65766159  1  0.124318  0.000656  0.956451  0.0  0.138562  0.001397  1.025806  0.0  0.141565  0.001084  1.023643  0.0  0.093302  0.136398  0.001615  1.027368  0.0
H  H34  1  0.26416633  0.74359152  0.34233992  1  0.124321  -0.000656  0.956389  0.0  0.13859  -0.001397  1.025724  0.0  0.141593  -0.001085  1.023565  0.0  0.093311  0.136427  -0.001615  1.027286  0.0
C  C35  1  0.59149342  0.15449296  0.95147438  1  -0.035873  1.3e-05  3.459046  0.0  -0.015565  1.6e-05  3.793923  0.0  -0.011019  7e-06  3.801578  0.0  -0.02228  -0.018597  3.6e-05  3.788529  0.0
C  C36  1  0.40850654  0.84550503  0.04852129  1  -0.035931  -1.2e-05  3.45927  0.0  -0.015629  -1.7e-05  3.794158  0.0  -0.011084  -6e-06  3.801814  0.0  -0.022235  -0.018659  -3.6e-05  3.788764  0.0
C  C37  1  0.03395149  0.75550780  0.94286093  1  -0.042705  -1e-06  3.471946  0.0  -0.027422  2.4e-05  3.818073  0.0  -0.021617  1.8e-05  3.823292  0.0  -0.025107  -0.031309  3.6e-05  3.814691  0.0
C  C38  1  0.96605798  0.24448801  0.05714101  1  -0.042754  0.0  3.471683  0.0  -0.027479  -2.4e-05  3.817832  0.0  -0.02167  -1.8e-05  3.823049  0.0  -0.025146  -0.031368  -3.6e-05  3.814453  0.0
C  C39  1  0.24073078  0.38339671  0.19014506  1  0.123486  0.02835  3.705666  0.021  0.096894  0.006086  3.954514  0.005  0.10265  0.014241  3.973357  0.011  0.047963  0.093086  0.002494  3.941631  0.002
C  C40  1  0.75926506  0.61660478  0.80985560  1  0.123471  -0.028361  3.705657  -0.021  0.096879  -0.006086  3.954532  -0.005  0.102637  -0.01424  3.973374  -0.011  0.047938  0.093072  -0.002494  3.941649  -0.002
C  C41  1  0.18104757  0.32257886  0.29172403  1  -0.13325  -0.053227  3.676922  -0.036  -0.155437  -0.022422  3.924314  -0.014  -0.160672  -0.037462  3.943112  -0.023  -0.072238  -0.152174  -0.013599  3.912347  -0.008
C  C42  1  0.81895341  0.67742034  0.70827607  1  -0.133276  0.053248  3.676879  0.036  -0.155462  0.022424  3.924263  0.014  -0.160693  0.037468  3.943066  0.023  -0.072261  -0.152198  0.0136  3.912295  0.008
C  C43  1  0.29929702  0.29722758  0.38273806  1  0.075347  0.040558  3.778148  0.038  0.091285  0.009034  4.019074  0.013  0.093731  0.021952  4.036955  0.024  0.019419  0.089152  0.002986  4.007542  0.007
C  C44  1  0.70070359  0.70276928  0.61726249  1  0.075311  -0.040571  3.778224  -0.038  0.091278  -0.009033  4.019131  -0.013  0.093713  -0.02195  4.037029  -0.024  0.019474  0.089146  -0.002985  4.007599  -0.007
C  C45  1  0.47409384  0.33506188  0.36648631  1  -0.138099  -0.052417  3.662082  -0.035  -0.160285  -0.021235  3.911069  -0.013  -0.165015  -0.036292  3.92735  -0.023  -0.072468  -0.157304  -0.012642  3.900981  -0.008
C  C46  1  0.52590815  0.66493500  0.63351418  1  -0.138219  0.05243  3.662185  0.035  -0.160406  0.021233  3.911165  0.013  -0.165135  0.03629  3.927451  0.023  -0.072549  -0.157426  0.012641  3.901079  0.008
C  C47  1  0.52153995  0.39557212  0.26179927  1  0.132245  0.027828  3.692679  0.021  0.103907  0.005896  3.944508  0.005  0.110425  0.013783  3.961809  0.011  0.052169  0.099453  0.002368  3.932923  0.002
C  C48  1  0.47846155  0.60442593  0.73820180  1  0.132176  -0.02784  3.692723  -0.021  0.103851  -0.005896  3.944555  -0.005  0.11037  -0.013784  3.961856  -0.011  0.052169  0.099398  -0.002368  3.932969  -0.002
C  C49  1  0.24073951  0.23821894  0.49104602  1  0.130059  -0.20179  3.644858  -0.157  0.081096  -0.105556  3.934641  -0.086  0.092656  -0.173343  3.939979  -0.132  0.217804  0.073801  -0.062978  3.929529  -0.057
C  C50  1  0.75926062  0.76177909  0.50895511  1  0.130221  0.201812  3.644912  0.157  0.081219  0.105557  3.934717  0.086  0.09278  0.173348  3.940063  0.132  0.217867  0.073924  0.062979  3.929604  0.057
C  C51  1  0.25167890  0.15789613  0.68171621  1  0.184092  -0.006911  3.525305  -0.012  0.195962  0.001168  3.759413  -0.006  0.199104  -0.001186  3.776092  -0.008  0.083337  0.193837  0.002664  3.747922  -0.004
C  C52  1  0.74831880  0.84210421  0.31828381  1  0.18414  0.006916  3.525222  0.012  0.196008  -0.001169  3.759368  0.006  0.199144  0.001183  3.776038  0.008  0.083325  0.193882  -0.002664  3.747876  0.004
C  C53  1  0.04873744  0.16704114  0.63896885  1  0.191001  -0.006419  3.513552  -0.012  0.201942  0.001508  3.749717  -0.006  0.205383  -0.000716  3.765859  -0.008  0.084967  0.199635  0.002908  3.738563  -0.004
C  C54  1  0.95125973  0.83296036  0.36103019  1  0.19102  0.006422  3.513447  0.012  0.201892  -0.001509  3.749737  0.006  0.205374  0.000718  3.765814  0.008  0.084987  0.199583  -0.002907  3.738585  0.004
C  C55  1  0.35414580  0.01028696  0.76584723  1  -0.340089  0.002165  3.670308  0.003  -0.421442  0.001906  3.90059  0.002  -0.424789  0.002001  3.911891  0.002  -0.246525  -0.418858  0.001884  3.892763  0.002
C  C56  1  0.64585142  0.98971454  0.23415337  1  -0.340185  -0.002166  3.67036  -0.003  -0.421513  -0.001907  3.900613  -0.002  -0.424859  -0.001998  3.911919  -0.002  -0.246544  -0.418925  -0.001884  3.892788  -0.002
C  C57  1  0.24593098  0.30234611  0.71888451  1  -0.365645  0.016834  3.644876  0.013  -0.445533  0.015383  3.880255  0.01  -0.449962  0.015591  3.890984  0.011  -0.245277  -0.442206  0.01538  3.872887  0.01
C  C58  1  0.75406721  0.69765306  0.28111493  1  -0.365555  -0.016837  3.644777  -0.013  -0.445427  -0.015384  3.88015  -0.01  -0.449857  -0.015588  3.890874  -0.011  -0.245224  -0.442102  -0.015381  3.872787  -0.01
C  C59  1  0.03812747  0.00776020  0.63633432  1  -0.368634  0.016163  3.637139  0.012  -0.452129  0.01481  3.872944  0.01  -0.456181  0.015238  3.883123  0.011  -0.246274  -0.448991  0.014564  3.866226  0.01
C  C60  1  0.96187160  0.99224015  0.36366486  1  -0.368631  -0.016163  3.637188  -0.012  -0.452071  -0.014809  3.873026  -0.01  -0.456155  -0.015237  3.883175  -0.011  -0.246265  -0.44894  -0.014563  3.866309  -0.01
C  C61  1  0.87071320  0.25535712  0.69399919  1  -0.348266  0.003346  3.662897  0.003  -0.430108  0.003606  3.898351  0.003  -0.433093  0.003586  3.907748  0.003  -0.246628  -0.427747  0.003628  3.891759  0.003
C  C62  1  0.12928453  0.74464323  0.30600160  1  -0.34829  -0.003346  3.662804  -0.003  -0.430125  -0.003606  3.898271  -0.003  -0.433126  -0.003586  3.907657  -0.003  -0.246639  -0.427764  -0.003628  3.891678  -0.003
N  N63  1  0.47741164  0.27376490  0.95939421  1  -0.443899  2.4e-05  2.997104  0.0  -0.381213  3.4e-05  3.260019  0.0  -0.400728  4.8e-05  3.277063  0.0  -0.378064  -0.368209  3.1e-05  3.248515  0.0
N  N64  1  0.52259047  0.72623781  0.04060125  1  -0.443832  -2.5e-05  2.997289  0.0  -0.381144  -3.4e-05  3.260202  0.0  -0.400658  -4.7e-05  3.277245  0.0  -0.378101  -0.368141  -3.1e-05  3.248698  0.0
N  N65  1  0.16847691  0.64259301  0.94429613  1  -0.42882  8.9e-05  3.010346  0.0  -0.363066  8.4e-05  3.271293  0.0  -0.38296  9.3e-05  3.288405  0.0  -0.369169  -0.34964  6.9e-05  3.259575  0.0
N  N66  1  0.83152570  0.35740274  0.05570846  1  -0.428716  -8.8e-05  3.010039  0.0  -0.362962  -8.4e-05  3.270997  0.0  -0.382851  -9.3e-05  3.288096  0.0  -0.369115  -0.349534  -6.9e-05  3.259278  0.0
N  N67  1  0.40783148  0.41908085  0.17514349  1  -0.318742  -0.041622  3.268544  -0.036  -0.242653  -0.019239  3.529646  -0.015  -0.261042  -0.032413  3.548789  -0.026  -0.32877  -0.22965  -0.011584  3.516049  -0.009
N  N68  1  0.59217089  0.58091837  0.82485654  1  -0.318557  0.041627  3.268504  0.036  -0.242502  0.019237  3.529639  0.015  -0.26089  0.032412  3.548785  0.026  -0.328704  -0.2295  0.011584  3.516041  0.009
N  N69  1  0.36550363  0.16437749  0.57837460  1  0.143432  0.293627  3.53195  0.248  0.189734  0.254295  3.817638  0.203  0.187978  0.278563  3.830056  0.226  -0.104092  0.190323  0.239947  3.808044  0.189
N  N70  1  0.63449735  0.83562172  0.42162549  1  0.143327  -0.293648  3.532004  -0.248  0.189675  -0.254304  3.817663  -0.203  0.187915  -0.278575  3.830082  -0.226  -0.104112  0.190264  -0.239957  3.80807  -0.189
N  N71  1  0.05236835  0.25516674  0.52238565  1  0.143767  0.289757  3.518471  0.245  0.190468  0.249436  3.802603  0.2  0.189309  0.274678  3.815352  0.224  -0.103297  0.190649  0.2341  3.792829  0.185
N  N72  1  0.94763023  0.74483478  0.47761411  1  0.143762  -0.289757  3.518463  -0.245  0.190487  -0.249427  3.802614  -0.2  0.189314  -0.274672  3.815358  -0.224  -0.103298  0.190669  -0.234089  3.792837  -0.185
O  O73  1  0.55371463  0.11670389  0.57839294  1  -0.393035  0.324837  1.731902  0.279  -0.366624  0.299599  1.949863  0.251  -0.378714  0.321712  1.949623  0.275  -0.17306  -0.356987  0.283386  1.94948  0.234
O  O74  1  0.44628451  0.88329647  0.42160857  1  -0.393014  -0.324849  1.731871  -0.279  -0.366639  -0.299611  1.949836  -0.251  -0.378735  -0.321723  1.949606  -0.275  -0.173088  -0.357002  -0.283397  1.949452  -0.234
O  O75  1  0.89522386  0.32881851  0.46383529  1  -0.39968  0.309011  1.716829  0.265  -0.368713  0.285793  1.924996  0.239  -0.382005  0.305941  1.925039  0.261  -0.176625  -0.358243  0.270861  1.924547  0.223
O  O76  1  0.10477540  0.67119122  0.53616522  1  -0.399721  -0.309006  1.716766  -0.265  -0.368767  -0.285783  1.924945  -0.239  -0.382042  -0.305938  1.92497  -0.261  -0.176665  -0.358299  -0.270852  1.924502  -0.223
