# generated using pymatgen
data_CdH9C13NO5
_symmetry_space_group_name_H-M   'P 1'
_cell_length_a   6.94620226
_cell_length_b   10.24526868
_cell_length_c   20.70600000
_cell_angle_alpha   89.61192268
_cell_angle_beta   88.85528715
_cell_angle_gamma   70.18424235
_symmetry_Int_Tables_number   1
_chemical_formula_structural   CdH9C13NO5
_chemical_formula_sum   'Cd4 H36 C52 N4 O20'
_cell_volume   1386.02759261
_cell_formula_units_Z   4
loop_
 _symmetry_equiv_pos_site_id
 _symmetry_equiv_pos_as_xyz
  1  'x, y, z'
loop_
 _atom_site_type_symbol
 _atom_site_label
 _atom_site_symmetry_multiplicity
 _atom_site_fract_x
 _atom_site_fract_y
 _atom_site_fract_z
 _atom_site_occupancy
 _atom_site_hle17_bader_spin_density
 _atom_site_hle17_ddec_charge
 _atom_site_hle17_ddec_spin_density
 _atom_site_hle17_ddec_sum_bond_order
 _atom_site_hle17_magmom
 _atom_site_hse06_10hf_bader_spin_density
 _atom_site_hse06_10hf_ddec_charge
 _atom_site_hse06_10hf_ddec_spin_density
 _atom_site_hse06_10hf_ddec_sum_bond_order
 _atom_site_hse06_10hf_magmom
 _atom_site_hse06_bader_spin_density
 _atom_site_hse06_ddec_charge
 _atom_site_hse06_ddec_spin_density
 _atom_site_hse06_ddec_sum_bond_order
 _atom_site_hse06_magmom
 _atom_site_pbe_bader_charge
 _atom_site_pbe_bader_spin_density
 _atom_site_pbe_cm5_charge
 _atom_site_pbe_ddec_charge
 _atom_site_pbe_ddec_spin_density
 _atom_site_pbe_ddec_sum_bond_order
 _atom_site_pbe_magmom
Cd  Cd0  1  0.50250175  0.29320998  0.47211444  1  0  1.19092  0  1.572892  0  0  1.005803  0  2.010236  0  0  1.065598  0  1.95436  0  1.29112  0  0.76987  0.963128  0  2.048549  0
Cd  Cd1  1  0.20400206  0.29312802  0.02791460  1  0  1.193902  0  1.570366  0  0  1.009318  0  2.007385  0  0  1.068791  0  1.951597  0  1.290799  0  0.769854  0.963743  0  2.047382  0
Cd  Cd2  1  0.49748809  0.70678883  0.52788360  1  0  1.190993  0  1.57287  0  0  1.005858  0  2.010217  0  0  1.065649  0  1.954342  0  1.290965  0  0.769893  0.963184  0  2.048531  0
Cd  Cd3  1  0.79600339  0.70687702  0.97208669  1  0  1.193955  0  1.570331  0  0  1.009387  0  2.007346  0  0  1.068858  0  1.951557  0  1.290722  0  0.769887  0.963813  0  2.047341  0
H  H4  1  0.26021741  0.59467425  0.29751201  1  0  0.104393  0  0.944878  0  0  0.114649  0  1.006859  0  0  0.11835  0  1.003624  0  0.101163  0  0.106168  0.111976  0  1.009155  0
H  H5  1  0.14466128  0.59468463  0.20260352  1  0  0.104688  0  0.94318  0  0  0.114659  0  1.005484  0  0  0.118459  0  1.002131  0  0.10847  0  0.105978  0.111966  0  1.007819  0
H  H6  1  0.73977600  0.40533182  0.70248309  1  0  0.104396  0  0.944809  0  0  0.114661  0  1.00678  0  0  0.118361  0  1.003548  0  0.101208  0  0.106187  0.111986  0  1.009081  0
H  H7  1  0.85534941  0.40532145  0.79739677  1  0  0.10471  0  0.943117  0  0  0.114675  0  1.005419  0  0  0.118474  0  1.002067  0  0.108354  0  0.105963  0.111984  0  1.007751  0
H  H8  1  0.02306395  0.81081097  0.47305249  1  0  0.091257  0  0.986905  0  0  0.097473  0  1.060416  0  0  0.101352  0  1.05646  0  0.076826  0  0.103291  0.094603  0  1.063354  0
H  H9  1  0.16665192  0.81062318  0.02706521  1  0  0.090685  0  0.987292  0  0  0.097434  0  1.060395  0  0  0.10124  0  1.056489  0  0.078455  0  0.103481  0.094646  0  1.063199  0
H  H10  1  0.97692533  0.18917747  0.52694608  1  0  0.09136  0  0.986889  0  0  0.097532  0  1.060452  0  0  0.101391  0  1.056516  0  0.076809  0  0.103291  0.094664  0  1.063389  0
H  H11  1  0.83335485  0.18938497  0.97293558  1  0  0.090648  0  0.987253  0  0  0.097376  0  1.060399  0  0  0.101181  0  1.056497  0  0.078412  0  0.103433  0.094587  0  1.063205  0
H  H12  1  0.88860098  0.03043693  0.29327430  1  0  0.105337  0  0.941755  0  0  0.115824  0  1.002218  0  0  0.119685  0  0.998775  0  0.106519  0  0.106339  0.112984  0  1.004777  0
H  H13  1  0.08058417  0.03044211  0.20681034  1  0  0.1056  0  0.941294  0  0  0.116064  0  1.001716  0  0  0.119957  0  0.998222  0  0.087546  0  0.106383  0.113252  0  1.00426  0
H  H14  1  0.11139307  0.96956500  0.70672612  1  0  0.105311  0  0.941802  0  0  0.115816  0  1.002251  0  0  0.119669  0  0.998816  0  0.10654  0  0.106315  0.112977  0  1.004809  0
H  H15  1  0.91940337  0.96956707  0.79318961  1  0  0.105609  0  0.941222  0  0  0.116037  0  1.001701  0  0  0.11993  0  0.998207  0  0.087701  0  0.106403  0.113226  0  1.004245  0
H  H16  1  0.55487687  0.05863702  0.70430220  1  0  0.110834  0  0.9338  0  0  0.125787  0  0.983783  0  0  0.128627  0  0.983331  0  0.076544  0  0.115184  0.123639  0  0.984452  0
H  H17  1  0.38647479  0.05856543  0.79561891  1  0  0.111662  0  0.932423  0  0  0.126005  0  0.983168  0  0  0.128898  0  0.982644  0  0.069215  0  0.115373  0.123906  0  0.98378  0
H  H18  1  0.44512778  0.94136387  0.29569719  1  0  0.110841  0  0.933792  0  0  0.125791  0  0.983783  0  0  0.12863  0  0.983331  0  0.0763  0  0.115202  0.123654  0  0.984437  0
H  H19  1  0.61352957  0.94143027  0.20438291  1  0  0.111621  0  0.932503  0  0  0.126004  0  0.983206  0  0  0.128896  0  0.982681  0  0.069272  0  0.115369  0.123904  0  0.983819  0
H  H20  1  0.58738553  0.07094064  0.58572908  1  0  0.093473  0  0.962841  0  0  0.099835  0  1.029854  0  0  0.102581  0  1.027155  0  0.141286  0  0.118267  0.097807  0  1.031765  0
H  H21  1  0.34175905  0.07058375  0.91419475  1  0  0.092887  0  0.963696  0  0  0.099881  0  1.029926  0  0  0.102641  0  1.02718  0  0.14698  0  0.11818  0.09782  0  1.031959  0
H  H22  1  0.41260749  0.92906336  0.41427086  1  0  0.093456  0  0.96292  0  0  0.099815  0  1.029902  0  0  0.102561  0  1.027206  0  0.141235  0  0.118269  0.097791  0  1.031816  0
H  H23  1  0.65825148  0.92941403  0.08580654  1  0  0.092831  0  0.963692  0  0  0.09981  0  1.029933  0  0  0.10257  0  1.027187  0  0.146556  0  0.118152  0.097748  0  1.031967  0
H  H24  1  0.24326422  0.48968310  0.58285434  1  0  0.097095  0  0.952496  0  0  0.106837  0  1.012166  0  0  0.109674  0  1.009442  0  0.144291  0  0.1196  0.104669  0  1.014315  0
H  H25  1  0.26657091  0.48942372  0.91725276  1  0  0.097408  0  0.951804  0  0  0.107241  0  1.011241  0  0  0.110072  0  1.00853  0  0.145251  0  0.119465  0.105014  0  1.013568  0
H  H26  1  0.75672458  0.51031779  0.41714805  1  0  0.097065  0  0.952481  0  0  0.106821  0  1.012156  0  0  0.109659  0  1.009426  0  0.144407  0  0.119596  0.104647  0  1.014311  0
H  H27  1  0.73344745  0.51056990  0.08274946  1  0  0.09744  0  0.951824  0  0  0.107267  0  1.01126  0  0  0.110101  0  1.008543  0  0.145217  0  0.11945  0.105009  0  1.013626  0
H  H28  1  0.25916298  0.10051230  0.47761332  1  0  0.428603  0  0.876048  0  0  0.393917  0  0.946829  0  0  0.405775  0  0.929565  0  0.64441  0  0.285415  0.38551  0  0.959026  0
H  H29  1  0.64011226  0.10056625  0.02233766  1  0  0.428819  0  0.875704  0  0  0.394187  0  0.946478  0  0  0.405995  0  0.929268  0  0.651685  0  0.285453  0.385612  0  0.958949  0
H  H30  1  0.74083130  0.89948340  0.52238857  1  0  0.428606  0  0.876043  0  0  0.393906  0  0.946839  0  0  0.405777  0  0.929565  0  0.644472  0  0.285444  0.385502  0  0.95903  0
H  H31  1  0.35988950  0.89943464  0.97766319  1  0  0.428798  0  0.875726  0  0  0.394178  0  0.94648  0  0  0.405983  0  0.929276  0  0.651681  0  0.285484  0.385606  0  0.958948  0
H  H32  1  0.13747822  0.22420945  0.43118679  1  0  0.428124  0  0.818801  0  0  0.411021  0  0.873736  0  0  0.419339  0  0.864235  0  0.626644  0  0.316387  0.40505  0  0.880648  0
H  H33  1  0.63806526  0.22416484  0.06883854  1  0  0.429175  0  0.818272  0  0  0.4119  0  0.873179  0  0  0.420158  0  0.863768  0  0.622661  0  0.316954  0.405712  0  0.880399  0
H  H34  1  0.86251174  0.77578625  0.56881512  1  0  0.42811  0  0.818849  0  0  0.411001  0  0.87379  0  0  0.41932  0  0.864286  0  0.626491  0  0.31639  0.405029  0  0.880706  0
H  H35  1  0.36194094  0.77583294  0.93116326  1  0  0.429156  0  0.818293  0  0  0.411879  0  0.8732  0  0  0.420137  0  0.863786  0  0.622755  0  0.316934  0.405692  0  0.880419  0
H  H36  1  0.18757831  0.49478860  0.70210060  1  0  0.113951  0  0.929409  0  0  0.128552  0  0.978503  0  0  0.131692  0  0.977643  0  0.117241  0  0.117662  0.126265  0  0.979346  0
H  H37  1  0.31685809  0.49483632  0.79801081  1  0  0.114334  0  0.928386  0  0  0.129013  0  0.977393  0  0  0.132083  0  0.976633  0  0.073184  0  0.117925  0.126791  0  0.978148  0
H  H38  1  0.81242018  0.50521021  0.29790125  1  0  0.113886  0  0.929275  0  0  0.128496  0  0.978379  0  0  0.131639  0  0.977519  0  0.117284  0  0.117634  0.12621  0  0.979221  0
H  H39  1  0.68315923  0.50515938  0.20199093  1  0  0.114377  0  0.928458  0  0  0.129064  0  0.977443  0  0  0.132137  0  0.976675  0  0.119864  0  0.117908  0.126826  0  0.978217  0
C  C40  1  0.14937214  0.69073986  0.38856753  1  0  -0.06922  0  3.788753  0  0  -0.040343  0  4.021524  0  0  -0.049953  0  4.045731  0  -0.027927  0  -0.023165  -0.034198  0  4.005168  0
C  C41  1  0.15990780  0.69065686  0.11152965  1  0  -0.068293  0  3.790383  0  0  -0.039669  0  4.02304  0  0  -0.049218  0  4.047228  0  -0.02251  0  -0.022649  -0.033463  0  4.006606  0
C  C42  1  0.85061782  0.30925584  0.61142907  1  0  -0.069085  0  3.788732  0  0  -0.040282  0  4.021618  0  0  -0.049894  0  4.045825  0  -0.027974  0  -0.023183  -0.034138  0  4.005261  0
C  C43  1  0.84009990  0.30935233  0.88846824  1  0  -0.068468  0  3.790546  0  0  -0.039742  0  4.023061  0  0  -0.04929  0  4.047242  0  -0.022636  0  -0.02262  -0.033538  0  4.006631  0
C  C44  1  0.16852124  0.69084153  0.32129648  1  0  -0.094572  0  3.683947  0  0  -0.131988  0  3.936364  0  0  -0.130203  0  3.955006  0  -0.050558  0  -0.07786  -0.13271  0  3.923393  0
C  C45  1  0.14043608  0.69078862  0.17879580  1  0  -0.094669  0  3.684118  0  0  -0.131665  0  3.936201  0  0  -0.129955  0  3.954837  0  -0.012221  0  -0.077831  -0.13272  0  3.923535  0
C  C46  1  0.83147541  0.30915521  0.67869959  1  0  -0.094618  0  3.683818  0  0  -0.132016  0  3.936309  0  0  -0.130237  0  3.954967  0  -0.050452  0  -0.077893  -0.132735  0  3.923332  0
C  C47  1  0.85957174  0.30921746  0.82120451  1  0  -0.094634  0  3.6843  0  0  -0.131688  0  3.936336  0  0  -0.129967  0  3.954946  0  -0.012148  0  -0.077876  -0.132743  0  3.923671  0
C  C48  1  0.03485348  0.81203314  0.42075939  1  0  -0.066852  0  3.721544  0  0  -0.108851  0  3.975278  0  0  -0.106228  0  3.994234  0  0.012477  0  -0.080281  -0.11019  0  3.962371  0
C  C49  1  0.15332145  0.81192420  0.07936308  1  0  -0.067772  0  3.723776  0  0  -0.110144  0  3.977912  0  0  -0.107558  0  3.997092  0  0.032238  0  -0.080643  -0.110948  0  3.964701  0
C  C50  1  0.96512969  0.18796464  0.57923822  1  0  -0.067059  0  3.721801  0  0  -0.109031  0  3.975544  0  0  -0.106392  0  3.994512  0  0.01255  0  -0.080308  -0.110364  0  3.962625  0
C  C51  1  0.84668256  0.18808084  0.92063630  1  0  -0.067681  0  3.723621  0  0  -0.110065  0  3.977734  0  0  -0.107478  0  3.996913  0  0.032834  0  -0.080613  -0.11087  0  3.964527  0
C  C52  1  0.07951542  0.81306440  0.28564497  1  0  0.035696  0  3.78718  0  0  0.053367  0  4.025909  0  0  0.051094  0  4.051031  0  -0.011361  0  -0.01158  0.054681  0  4.008867  0
C  C53  1  0.10719571  0.81303432  0.21445309  1  0  0.035778  0  3.788128  0  0  0.053574  0  4.026354  0  0  0.051261  0  4.051552  0  -0.016937  0  -0.011311  0.055047  0  4.009545  0
C  C54  1  0.92048254  0.18693545  0.71435398  1  0  0.035806  0  3.787051  0  0  0.053428  0  4.025798  0  0  0.051155  0  4.050917  0  -0.011313  0  -0.011533  0.054742  0  4.008759  0
C  C55  1  0.89280099  0.18697383  0.78554584  1  0  0.03554  0  3.788116  0  0  0.05345  0  4.026243  0  0  0.051139  0  4.05144  0  -0.016733  0  -0.011343  0.054923  0  4.009436  0
C  C56  1  0.37070823  0.27703443  0.71446358  1  0  0.095238  0  3.751038  0  0  0.103681  0  3.989207  0  0  0.107591  0  4.010891  0  0.03862  0  0.016413  0.101259  0  3.974415  0
C  C57  1  0.35208832  0.27697737  0.78555785  1  0  0.093952  0  3.752072  0  0  0.103672  0  3.988938  0  0  0.107545  0  4.010637  0  -0.043733  0  0.016208  0.101261  0  3.974221  0
C  C58  1  0.62929849  0.72296231  0.28553629  1  0  0.095241  0  3.751081  0  0  0.103726  0  3.989199  0  0  0.107639  0  4.010879  0  0.038752  0  0.016408  0.101304  0  3.97441  0
C  C59  1  0.64791736  0.72302144  0.21444444  1  0  0.094026  0  3.752102  0  0  0.103694  0  3.989047  0  0  0.107563  0  4.010744  0  -0.043804  0  0.016182  0.101282  0  3.974328  0
C  C60  1  0.96460974  0.93427468  0.31916884  1  0  -0.099999  0  3.67574  0  0  -0.135812  0  3.925078  0  0  -0.134489  0  3.943343  0  -0.059234  0  -0.0775  -0.136268  0  3.912632  0
C  C61  1  0.10087888  0.93424356  0.18092877  1  0  -0.100588  0  3.676223  0  0  -0.136045  0  3.925578  0  0  -0.134739  0  3.943794  0  -0.03853  0  -0.07782  -0.136855  0  3.913305  0
C  C62  1  0.03538235  0.06572828  0.68083014  1  0  -0.099931  0  3.675881  0  0  -0.135779  0  3.925224  0  0  -0.134449  0  3.943494  0  -0.059205  0  -0.077459  -0.136235  0  3.912776  0
C  C63  1  0.89911442  0.06576563  0.81907211  1  0  -0.100458  0  3.67622  0  0  -0.135936  0  3.925575  0  0  -0.13463  0  3.943792  0  -0.038781  0  -0.077835  -0.136745  0  3.913302  0
C  C64  1  0.93883606  0.93344054  0.38638629  1  0  -0.058064  0  3.771545  0  0  -0.029944  0  4.005987  0  0  -0.038726  0  4.029001  0  -0.062656  0  -0.018147  -0.024468  0  3.990544  0
C  C65  1  0.12772524  0.93335858  0.11372101  1  0  -0.057593  0  3.77084  0  0  -0.030393  0  4.006215  0  0  -0.039123  0  4.029185  0  -0.080008  0  -0.018313  -0.024918  0  3.990709  0
C  C66  1  0.06115471  0.06655931  0.61361271  1  0  -0.058111  0  3.771547  0  0  -0.029923  0  4.005926  0  0  -0.038704  0  4.028934  0  -0.062924  0  -0.018174  -0.024446  0  3.990485  0
C  C67  1  0.87227474  0.06665165  0.88627790  1  0  -0.057629  0  3.770984  0  0  -0.030432  0  4.006367  0  0  -0.039163  0  4.02934  0  -0.080552  0  -0.018289  -0.024957  0  3.99086  0
C  C68  1  0.47976761  0.15660331  0.67983174  1  0  -0.14381  0  3.693312  0  0  -0.162546  0  3.942899  0  0  -0.170363  0  3.964771  0  -0.024946  0  -0.073634  -0.1575  0  3.928299  0
C  C69  1  0.36361776  0.15648503  0.82014306  1  0  -0.144734  0  3.69221  0  0  -0.163368  0  3.942035  0  0  -0.171226  0  3.963869  0  0.02271  0  -0.074009  -0.158376  0  3.927531  0
C  C70  1  0.52023623  0.84339343  0.32016670  1  0  -0.143856  0  3.693406  0  0  -0.162612  0  3.942979  0  0  -0.17043  0  3.964851  0  -0.024906  0  -0.073661  -0.157574  0  3.928375  0
C  C71  1  0.63639092  0.84351067  0.17985873  1  0  -0.144777  0  3.692287  0  0  -0.163457  0  3.942141  0  0  -0.171312  0  3.963973  0  0.022671  0  -0.074045  -0.158465  0  3.92764  0
C  C72  1  0.50031130  0.16273385  0.61320196  1  0  0.13886  0  3.698167  0  0  0.106501  0  3.953232  0  0  0.113878  0  3.972731  0  0.444076  0  0.048936  0.101767  0  3.939804  0
C  C73  1  0.33694701  0.16247033  0.88677378  1  0  0.140444  0  3.695409  0  0  0.107594  0  3.950901  0  0  0.11498  0  3.970396  0  0.435318  0  0.049421  0.102775  0  3.937492  0
C  C74  1  0.49968511  0.83726911  0.38679748  1  0  0.13895  0  3.698253  0  0  0.106626  0  3.953271  0  0  0.114003  0  3.97277  0  0.444072  0  0.048964  0.101883  0  3.939853  0
C  C75  1  0.66306559  0.83752330  0.11322944  1  0  0.140493  0  3.695639  0  0  0.107685  0  3.951115  0  0  0.115072  0  3.970611  0  0.435823  0  0.049473  0.102866  0  3.937706  0
C  C76  1  0.80242458  0.05795642  0.42218857  1  0  0.641384  0  3.914249  0  0  0.590579  0  4.202463  0  0  0.624928  0  4.197662  0  1.563701  0  0.197748  0.567324  0  4.204872  0
C  C77  1  0.13939496  0.05791285  0.07788455  1  0  0.641513  0  3.914947  0  0  0.591448  0  4.202633  0  0  0.62575  0  4.197847  0  1.554257  0  0.197454  0.568305  0  4.204575  0
C  C78  1  0.19757374  0.94203409  0.57781427  1  0  0.641408  0  3.914511  0  0  0.590541  0  4.202774  0  0  0.624891  0  4.197978  0  1.564048  0  0.197799  0.567286  0  4.205179  0
C  C79  1  0.86060865  0.94209012  0.92211435  1  0  0.64168  0  3.914704  0  0  0.591641  0  4.202351  0  0  0.625941  0  4.197563  0  1.555244  0  0.197533  0.5685  0  4.204293  0
C  C80  1  0.30811829  0.39681712  0.61209922  1  0  0.136809  0  3.69651  0  0  0.103561  0  3.951593  0  0  0.110892  0  3.970545  0  0.495062  0  0.048743  0.098809  0  3.938683  0
C  C81  1  0.29475370  0.39659095  0.88796323  1  0  0.13715  0  3.69635  0  0  0.104235  0  3.950835  0  0  0.111569  0  3.969752  0  0.496407  0  0.049367  0.099489  0  3.937794  0
C  C82  1  0.69187587  0.60318169  0.38790025  1  0  0.136884  0  3.696419  0  0  0.103613  0  3.951511  0  0  0.110943  0  3.970466  0  0.494984  0  0.048711  0.098867  0  3.938601  0
C  C83  1  0.70526270  0.60340372  0.11203754  1  0  0.136967  0  3.696324  0  0  0.10407  0  3.950777  0  0  0.111403  0  3.969694  0  0.49635  0  0.049308  0.099346  0  3.937739  0
C  C84  1  0.28068982  0.39859849  0.67872013  1  0  -0.14238  0  3.681483  0  0  -0.160675  0  3.930939  0  0  -0.168088  0  3.95151  0  -0.028903  0  -0.073092  -0.155877  0  3.917037  0
C  C85  1  0.32029821  0.39852276  0.82133912  1  0  -0.142042  0  3.680501  0  0  -0.160824  0  3.929534  0  0  -0.168166  0  3.950104  0  -0.007631  0  -0.07325  -0.15609  0  3.915679  0
C  C86  1  0.71930463  0.60140550  0.32128125  1  0  -0.142296  0  3.681415  0  0  -0.160602  0  3.930857  0  0  -0.168022  0  3.951438  0  -0.028927  0  -0.073037  -0.155803  0  3.916949  0
C  C87  1  0.67971819  0.60147190  0.17866504  1  0  -0.142041  0  3.680448  0  0  -0.160823  0  3.929452  0  0  -0.16816  0  3.950018  0  -0.054313  0  -0.073158  -0.156073  0  3.915594  0
C  C88  1  0.25507071  0.56418338  0.42766897  1  0  0.640706  0  3.936416  0  0  0.58876  0  4.227666  0  0  0.623761  0  4.222281  0  1.547866  0  0.195342  0.564985  0  4.230507  0
C  C89  1  0.18070148  0.56410868  0.07242292  1  0  0.641031  0  3.936204  0  0  0.589493  0  4.227209  0  0  0.624452  0  4.221825  0  1.549663  0  0.195703  0.565732  0  4.229796  0
C  C90  1  0.74492001  0.43580506  0.57232524  1  0  0.640576  0  3.936399  0  0  0.588631  0  4.227686  0  0  0.623632  0  4.222306  0  1.547334  0  0.195395  0.564855  0  4.230522  0
C  C91  1  0.81930449  0.43589532  0.92757886  1  0  0.641001  0  3.936181  0  0  0.589469  0  4.227145  0  0  0.624428  0  4.221762  0  1.549561  0  0.195655  0.565709  0  4.229727  0
N  N92  1  0.41824635  0.28122071  0.57976121  1  0  -0.353749  0  3.282423  0  0  -0.271571  0  3.548535  0  0  -0.294541  0  3.569845  0  -1.233057  0  -0.329644  -0.255858  0  3.533632  0
N  N93  1  0.30044285  0.28091362  0.92025714  1  0  -0.355694  0  3.281909  0  0  -0.273886  0  3.548699  0  0  -0.296833  0  3.569926  0  -1.236442  0  -0.330264  -0.257834  0  3.533375  0
N  N94  1  0.58174194  0.71878121  0.42024021  1  0  -0.353873  0  3.282336  0  0  -0.271712  0  3.548474  0  0  -0.294681  0  3.569781  0  -1.233052  0  -0.329635  -0.255998  0  3.533571  0
N  N95  1  0.69957199  0.71908416  0.07974363  1  0  -0.355553  0  3.282175  0  0  -0.273744  0  3.548891  0  0  -0.296692  0  3.570116  0  -1.236387  0  -0.330227  -0.257691  0  3.533556  0
O  O96  1  0.27609664  0.57816463  0.48809697  1  0  -0.686861  0  2.012678  0  0  -0.622324  0  2.2618  0  0  -0.65138  0  2.249708  0  -1.191765  0  -0.334716  -0.601709  0  2.26931  0
O  O97  1  0.14576467  0.57814492  0.01198702  1  0  -0.687258  0  2.011682  0  0  -0.622932  0  2.260855  0  0  -0.651981  0  2.248766  0  -1.190148  0  -0.334777  -0.601909  0  2.268606  0
O  O98  1  0.72388808  0.42183003  0.51190016  1  0  -0.686732  0  2.012996  0  0  -0.622192  0  2.262135  0  0  -0.651238  0  2.250027  0  -1.191725  0  -0.33465  -0.601594  0  2.269681  0
O  O99  1  0.85424470  0.42185804  0.98801330  1  0  -0.687184  0  2.011719  0  0  -0.622853  0  2.260857  0  0  -0.651902  0  2.248771  0  -1.190056  0  -0.334745  -0.60183  0  2.268612  0
O  O100  1  0.73178766  0.03983661  0.47791105  1  0  -0.655372  0  1.990307  0  0  -0.584732  0  2.221822  0  0  -0.615268  0  2.214151  0  -1.190383  0  -0.319465  -0.563273  0  2.226283  0
O  O101  1  0.22838980  0.03978059  0.02219821  1  0  -0.656081  0  1.991199  0  0  -0.585649  0  2.22238  0  0  -0.616134  0  2.214656  0  -1.182723  0  -0.31886  -0.563634  0  2.226664  0
O  O102  1  0.26820674  0.96015598  0.52208892  1  0  -0.655582  0  1.990376  0  0  -0.584802  0  2.221726  0  0  -0.615333  0  2.21405  0  -1.190511  0  -0.319527  -0.563354  0  2.226213  0
O  O103  1  0.77161761  0.96022341  0.97780356  1  0  -0.656172  0  1.991049  0  0  -0.585768  0  2.222258  0  0  -0.616252  0  2.214529  0  -1.183221  0  -0.31891  -0.563752  0  2.22654  0
O  O104  1  0.75646779  0.17750464  0.39617880  1  0  -0.631621  0  1.902645  0  0  -0.569297  0  2.125234  0  0  -0.597384  0  2.114073  0  -1.150974  0  -0.335912  -0.549544  0  2.132227  0
O  O105  1  0.06541726  0.17748700  0.10383685  1  0  -0.63231  0  1.901777  0  0  -0.570347  0  2.124024  0  0  -0.598248  0  2.112863  0  -1.151975  0  -0.335951  -0.549622  0  2.131146  0
O  O106  1  0.24353110  0.82249625  0.60382111  1  0  -0.631499  0  1.902966  0  0  -0.569184  0  2.125589  0  0  -0.597266  0  2.11443  0  -1.151061  0  -0.335894  -0.549434  0  2.132583  0
O  O107  1  0.93457944  0.82252115  0.89616160  1  0  -0.632366  0  1.901749  0  0  -0.570414  0  2.123992  0  0  -0.598312  0  2.112829  0  -1.152206  0  -0.335968  -0.549691  0  2.131114  0
O  O108  1  0.32168638  0.44774764  0.39837146  1  0  -0.619852  0  1.95214  0  0  -0.551835  0  2.182936  0  0  -0.581466  0  2.172601  0  -1.134092  0  -0.328658  -0.531225  0  2.189421  0
O  O109  1  0.23037930  0.44763559  0.10169167  1  0  -0.621246  0  1.951827  0  0  -0.553584  0  2.182645  0  0  -0.583073  0  2.172257  0  -1.137841  0  -0.32911  -0.532044  0  2.189346  0
O  O110  1  0.67830081  0.55224495  0.60162276  1  0  -0.619893  0  1.951864  0  0  -0.551871  0  2.182679  0  0  -0.581503  0  2.172345  0  -1.133876  0  -0.328772  -0.531258  0  2.189163  0
O  O111  1  0.76962316  0.55237256  0.89830867  1  0  -0.621259  0  1.951677  0  0  -0.553617  0  2.182494  0  0  -0.583109  0  2.172106  0  -1.137974  0  -0.329115  -0.532075  0  2.189194  0
O  O112  1  0.27443802  0.16862266  0.44455159  1  0  -0.830073  0  1.833613  0  0  -0.776284  0  2.021696  0  0  -0.796776  0  1.991194  0  -1.251366  0  -0.581771  -0.761748  0  2.043082  0
O  O113  1  0.55672352  0.16859361  0.05542475  1  0  -0.83096  0  1.832947  0  0  -0.777148  0  2.021491  0  0  -0.797547  0  1.991043  0  -1.254553  0  -0.582343  -0.762522  0  2.04353  0
O  O114  1  0.72555482  0.83137304  0.55545079  1  0  -0.830083  0  1.833598  0  0  -0.776261  0  2.021716  0  0  -0.796769  0  1.991181  0  -1.251308  0  -0.581808  -0.761726  0  2.043097  0
O  O115  1  0.44327928  0.83140520  0.94457659  1  0  -0.830946  0  1.83299  0  0  -0.777151  0  2.021539  0  0  -0.797547  0  1.991092  0  -1.254634  0  -0.582357  -0.762535  0  2.043571  0
