# generated using pymatgen
data_HoH6C7SO8
_symmetry_space_group_name_H-M   'P 1'
_cell_length_a   5.85970370
_cell_length_b   10.15391027
_cell_length_c   18.64857170
_cell_angle_alpha   81.00070475
_cell_angle_beta   80.97925415
_cell_angle_gamma   73.23621384
_symmetry_Int_Tables_number   1
_chemical_formula_structural   HoH6C7SO8
_chemical_formula_sum   'Ho4 H24 C28 S4 O32'
_cell_volume   1041.99524083
_cell_formula_units_Z   4
loop_
 _symmetry_equiv_pos_site_id
 _symmetry_equiv_pos_as_xyz
  1  'x, y, z'
loop_
 _atom_site_type_symbol
 _atom_site_label
 _atom_site_symmetry_multiplicity
 _atom_site_fract_x
 _atom_site_fract_y
 _atom_site_fract_z
 _atom_site_occupancy
 _atom_site_hle17_bader_spin_density
 _atom_site_hle17_ddec_charge
 _atom_site_hle17_ddec_spin_density
 _atom_site_hle17_ddec_sum_bond_order
 _atom_site_hle17_magmom
 _atom_site_hse06_10hf_bader_spin_density
 _atom_site_hse06_10hf_ddec_charge
 _atom_site_hse06_10hf_ddec_spin_density
 _atom_site_hse06_10hf_ddec_sum_bond_order
 _atom_site_hse06_10hf_magmom
 _atom_site_hse06_bader_spin_density
 _atom_site_hse06_ddec_charge
 _atom_site_hse06_ddec_spin_density
 _atom_site_hse06_ddec_sum_bond_order
 _atom_site_hse06_magmom
 _atom_site_pbe_bader_spin_density
 _atom_site_pbe_cm5_charge
 _atom_site_pbe_ddec_charge
 _atom_site_pbe_ddec_spin_density
 _atom_site_pbe_ddec_sum_bond_order
 _atom_site_pbe_magmom
Ho  Ho0  1  0.95057383  0.19661586  0.52910082  1  0  2.227008  0  1.608617  0  0  2.075576  0  2.085834  0  0  2.214858  0  1.877948  0  0  1.509467  2.038982  0  2.115826  0
Ho  Ho1  1  0.67622516  0.30339084  0.97090222  1  0  2.227762  0  1.608933  0  0  2.075805  0  2.086856  0  0  2.21559  0  1.878183  0  0  1.51051  2.039765  0  2.11593  0
Ho  Ho2  1  0.04943046  0.80336663  0.47090126  1  0  2.226961  0  1.608772  0  0  2.075621  0  2.085899  0  0  2.214829  0  1.878105  0  0  1.509481  2.038967  0  2.115964  0
Ho  Ho3  1  0.32377422  0.69661854  0.02909563  1  0  2.227832  0  1.608969  0  0  2.07588  0  2.086873  0  0  2.215648  0  1.878214  0  0  1.510516  2.03984  0  2.115946  0
H  H4  1  0.59098400  0.24694717  0.65749580  1  0  0.447036  0  0.805448  0  0  0.425819  0  0.865204  0  0  0.434183  0  0.853517  0  0  0.329984  0.420291  0  0.871618  0
H  H5  1  0.49521050  0.25301921  0.84248080  1  0  0.448333  0  0.804174  0  0  0.427001  0  0.86373  0  0  0.435396  0  0.851993  0  0  0.33031  0.421584  0  0.870314  0
H  H6  1  0.40902185  0.75303424  0.34250359  1  0  0.447001  0  0.805592  0  0  0.425807  0  0.865253  0  0  0.434171  0  0.853565  0  0  0.329957  0.420276  0  0.871744  0
H  H7  1  0.50477544  0.74700264  0.15751863  1  0  0.448386  0  0.804154  0  0  0.427049  0  0.863684  0  0  0.435445  0  0.851945  0  0  0.330327  0.421631  0  0.870313  0
H  H8  1  0.43983136  0.31586280  0.58981399  1  0  0.448817  0  0.844286  0  0  0.415958  0  0.910391  0  0  0.428147  0  0.8927  0  0  0.304125  0.407804  0  0.922308  0
H  H9  1  0.34525346  0.18426532  0.91018522  1  0  0.449532  0  0.843423  0  0  0.416626  0  0.909536  0  0  0.428791  0  0.891899  0  0  0.304471  0.408454  0  0.921461  0
H  H10  1  0.56017144  0.68413112  0.41018866  1  0  0.448731  0  0.8444  0  0  0.415881  0  0.91049  0  0  0.428065  0  0.892809  0  0  0.304098  0.407729  0  0.922405  0
H  H11  1  0.65474775  0.81574717  0.08981260  1  0  0.449484  0  0.843504  0  0  0.416592  0  0.909597  0  0  0.428752  0  0.891969  0  0  0.304458  0.408421  0  0.921518  0
H  H12  1  0.48319045  0.25154176  0.47301670  1  0  0.445609  0  0.830443  0  0  0.418976  0  0.895337  0  0  0.428326  0  0.882059  0  0  0.319424  0.412473  0  0.9049  0
H  H13  1  0.20775714  0.24845230  0.02695702  1  0  0.446213  0  0.828598  0  0  0.419705  0  0.893986  0  0  0.429034  0  0.880733  0  0  0.319829  0.413242  0  0.903458  0
H  H14  1  0.51682163  0.74845201  0.52697854  1  0  0.445683  0  0.830274  0  0  0.419023  0  0.895281  0  0  0.428373  0  0.882002  0  0  0.319406  0.412518  0  0.904848  0
H  H15  1  0.79224541  0.75155509  0.97304560  1  0  0.446244  0  0.828528  0  0  0.41975  0  0.893922  0  0  0.429083  0  0.88066  0  0  0.319829  0.413288  0  0.903394  0
H  H16  1  0.64236107  0.10636306  0.45100917  1  0  0.445004  0  0.857831  0  0  0.412582  0  0.923824  0  0  0.423423  0  0.90857  0  0  0.306459  0.404982  0  0.934756  0
H  H17  1  0.19985208  0.39358626  0.04902311  1  0  0.445318  0  0.857404  0  0  0.412882  0  0.923381  0  0  0.423701  0  0.908147  0  0  0.306621  0.405405  0  0.934119  0
H  H18  1  0.35764457  0.89362359  0.54899280  1  0  0.445171  0  0.857612  0  0  0.412714  0  0.923624  0  0  0.423552  0  0.908374  0  0  0.306522  0.405114  0  0.934557  0
H  H19  1  0.80014689  0.60642525  0.95097745  1  0  0.445329  0  0.857398  0  0  0.41292  0  0.9233  0  0  0.42377  0  0.90803  0  0  0.306631  0.405446  0  0.934033  0
H  H20  1  0.92792871  0.80736419  0.75129354  1  0  0.114771  0  0.971318  0  0  0.121737  0  1.03789  0  0  0.123622  0  1.039649  0  0  0.102662  0.120552  0  1.036424  0
H  H21  1  0.48640242  0.69266466  0.74880298  1  0  0.115022  0  0.970644  0  0  0.121793  0  1.037391  0  0  0.123695  0  1.039131  0  0  0.102725  0.120713  0  1.0357  0
H  H22  1  0.07209781  0.19263288  0.24871135  1  0  0.114833  0  0.971381  0  0  0.121797  0  1.037947  0  0  0.123686  0  1.039697  0  0  0.102686  0.120608  0  1.036486  0
H  H23  1  0.51357682  0.30735507  0.25119393  1  0  0.115073  0  0.970566  0  0  0.121886  0  1.037249  0  0  0.123789  0  1.03899  0  0  0.102745  0.120806  0  1.035559  0
H  H24  1  0.60788677  0.88618965  0.86415240  1  0  0.151626  0  0.956297  0  0  0.159409  0  1.014219  0  0  0.163845  0  1.010219  0  0  0.118131  0.156244  0  1.016981  0
H  H25  1  0.35804422  0.61359491  0.63597316  1  0  0.151596  0  0.956581  0  0  0.159348  0  1.014555  0  0  0.163745  0  1.010619  0  0  0.11806  0.156181  0  1.01732  0
H  H26  1  0.39212067  0.11380845  0.13585201  1  0  0.151603  0  0.956299  0  0  0.159398  0  1.014198  0  0  0.163834  0  1.010199  0  0  0.118119  0.156224  0  1.016979  0
H  H27  1  0.64190276  0.38644246  0.36402411  1  0  0.15153  0  0.956551  0  0  0.15938  0  1.01444  0  0  0.163785  0  1.010483  0  0  0.118046  0.156204  0  1.017222  0
C  C28  1  0.78306735  0.89034237  0.60742821  1  0  0.730635  0  3.832751  0  0  0.685403  0  4.119592  0  0  0.721038  0  4.115033  0  0  0.227797  0.661056  0  4.12814  0
C  C29  1  0.28068682  0.60971344  0.89270471  1  0  0.729199  0  3.835035  0  0  0.682846  0  4.123845  0  0  0.7185  0  4.11936  0  0  0.226602  0.658565  0  4.13241  0
C  C30  1  0.21693835  0.10962769  0.39257392  1  0  0.731227  0  3.832099  0  0  0.68572  0  4.119361  0  0  0.721351  0  4.11482  0  0  0.228114  0.661377  0  4.127906  0
C  C31  1  0.71931208  0.39029704  0.10729645  1  0  0.729597  0  3.83434  0  0  0.683104  0  4.123422  0  0  0.718755  0  4.118943  0  0  0.226715  0.658822  0  4.131984  0
C  C32  1  0.64729392  0.92369843  0.68011764  1  0  -0.02961  0  3.711673  0  0  -0.022869  0  3.953307  0  0  -0.02108  0  3.966978  0  0  -0.009254  -0.023578  0  3.943035  0
C  C33  1  0.25107599  0.57623708  0.82002015  1  0  -0.029426  0  3.712128  0  0  -0.022693  0  3.954502  0  0  -0.020695  0  3.9678  0  0  -0.008868  -0.023646  0  3.944525  0
C  C34  1  0.35272960  0.07627682  0.31988464  1  0  -0.029952  0  3.711998  0  0  -0.023207  0  3.953594  0  0  -0.02143  0  3.967285  0  0  -0.009247  -0.023917  0  3.943318  0
C  C35  1  0.74892577  0.42377543  0.17997882  1  0  -0.029433  0  3.711927  0  0  -0.022786  0  3.954472  0  0  -0.020787  0  3.967771  0  0  -0.008914  -0.023738  0  3.944491  0
C  C36  1  0.74532450  0.87164198  0.74711033  1  0  -0.109533  0  3.74295  0  0  -0.132651  0  3.99974  0  0  -0.137519  0  4.020292  0  0  -0.10215  -0.129611  0  3.985513  0
C  C37  1  0.36399162  0.62829402  0.75304091  1  0  -0.109046  0  3.7418  0  0  -0.132086  0  3.998843  0  0  -0.137037  0  4.019298  0  0  -0.101838  -0.128827  0  3.984181  0
C  C38  1  0.25469713  0.12834677  0.25289353  1  0  -0.109429  0  3.743047  0  0  -0.132544  0  3.999809  0  0  -0.137409  0  4.020369  0  0  -0.102155  -0.129499  0  3.985575  0
C  C39  1  0.63600727  0.37171640  0.24695688  1  0  -0.109247  0  3.741931  0  0  -0.132254  0  3.99897  0  0  -0.137207  0  4.019423  0  0  -0.101872  -0.128995  0  3.984305  0
C  C40  1  0.58272333  0.91335327  0.80673041  1  0  -0.131806  0  3.644391  0  0  -0.153507  0  3.926663  0  0  -0.150237  0  3.938948  0  0  -0.082987  -0.155119  0  3.917613  0
C  C41  1  0.30268501  0.58653736  0.69340995  1  0  -0.132434  0  3.64509  0  0  -0.154027  0  3.927182  0  0  -0.150788  0  3.939517  0  0  -0.082903  -0.155663  0  3.918286  0
C  C42  1  0.41729431  0.08664169  0.19327241  1  0  -0.131781  0  3.644333  0  0  -0.153491  0  3.926638  0  0  -0.150221  0  3.938925  0  0  -0.082997  -0.1551  0  3.917597  0
C  C43  1  0.69728829  0.41348344  0.30658885  1  0  -0.132289  0  3.645045  0  0  -0.153997  0  3.927158  0  0  -0.150755  0  3.939503  0  0  -0.082834  -0.155632  0  3.918257  0
C  C44  1  0.41094128  0.00461662  0.69066697  1  0  -0.210807  0  3.744026  0  0  -0.198756  0  4.011773  0  0  -0.206714  0  4.029497  0  0  -0.033036  -0.192858  0  3.997919  0
C  C45  1  0.10634451  0.49522289  0.80945709  1  0  -0.210132  0  3.74356  0  0  -0.198024  0  4.011208  0  0  -0.20602  0  4.028814  0  0  -0.032989  -0.192329  0  3.998037  0
C  C46  1  0.58909063  0.99536170  0.30933393  1  0  -0.211034  0  3.744709  0  0  -0.198592  0  4.011933  0  0  -0.206549  0  4.029667  0  0  -0.033055  -0.192694  0  3.998074  0
C  C47  1  0.89364811  0.50480102  0.19054148  1  0  -0.210183  0  3.743385  0  0  -0.197946  0  4.010939  0  0  -0.205942  0  4.028547  0  0  -0.032948  -0.192252  0  3.997766  0
C  C48  1  0.24832691  0.07164407  0.63578238  1  0  0.652534  0  3.96586  0  0  0.605383  0  4.256884  0  0  0.639237  0  4.256199  0  0  0.183578  0.581678  0  4.262419  0
C  C49  1  0.95559107  0.42839257  0.86429211  1  0  0.653334  0  3.966298  0  0  0.605941  0  4.257674  0  0  0.639725  0  4.257071  0  0  0.183991  0.582378  0  4.263081  0
C  C50  1  0.75170510  0.92832701  0.36421884  1  0  0.652718  0  3.966034  0  0  0.605455  0  4.257062  0  0  0.639308  0  4.256371  0  0  0.183635  0.581749  0  4.262587  0
C  C51  1  0.04439728  0.57162410  0.13570767  1  0  0.653137  0  3.966798  0  0  0.605657  0  4.258241  0  0  0.639439  0  4.257644  0  0  0.183841  0.582094  0  4.263641  0
C  C52  1  0.88336182  0.52080527  0.48171456  1  0  0.571398  0  3.898314  0  0  0.527776  0  4.188268  0  0  0.557945  0  4.18626  0  0  0.227632  0.506951  0  4.195285  0
C  C53  1  0.88590363  0.97917640  0.01828496  1  0  0.573609  0  3.893921  0  0  0.529477  0  4.18513  0  0  0.559748  0  4.182876  0  0  0.228458  0.508861  0  4.191652  0
C  C54  1  0.11662416  0.47919065  0.51828485  1  0  0.571467  0  3.898523  0  0  0.527893  0  4.18844  0  0  0.558059  0  4.186431  0  0  0.227702  0.507066  0  4.195456  0
C  C55  1  0.11409281  0.02082978  0.98170892  1  0  0.573496  0  3.894245  0  0  0.529541  0  4.185275  0  0  0.55982  0  4.183014  0  0  0.228609  0.508926  0  4.191795  0
S  S56  1  0.31263762  0.01431182  0.78249223  1  0  0.218187  0  2.611295  0  0  0.217847  0  2.936009  0  0  0.219055  0  2.94056  0  0  0.117938  0.217725  0  2.930631  0
S  S57  1  0.10937350  0.48554901  0.71762689  1  0  0.218264  0  2.611526  0  0  0.218266  0  2.935783  0  0  0.219453  0  2.940344  0  0  0.117723  0.217557  0  2.931301  0
S  S58  1  0.68738335  0.98568413  0.21750846  1  0  0.218332  0  2.611333  0  0  0.217838  0  2.935953  0  0  0.219045  0  2.940505  0  0  0.117982  0.217717  0  2.93057  0
S  S59  1  0.89059374  0.51448009  0.28237181  1  0  0.218288  0  2.611411  0  0  0.218271  0  2.935679  0  0  0.219452  0  2.94024  0  0  0.117681  0.217559  0  2.931194  0
O  O60  1  0.87704458  0.97864710  0.56587408  1  0  -0.804497  0  2.150163  0  0  -0.746272  0  2.411027  0  0  -0.794279  0  2.400678  0  0  -0.418001  -0.726527  0  2.416517  0
O  O61  1  0.42126781  0.52149635  0.93434895  1  0  -0.802621  0  2.153165  0  0  -0.743877  0  2.414599  0  0  -0.792102  0  2.404385  0  0  -0.417454  -0.724447  0  2.420256  0
O  O62  1  0.12297102  0.02132399  0.43412796  1  0  -0.804533  0  2.150136  0  0  -0.746238  0  2.411157  0  0  -0.794223  0  2.400791  0  0  -0.41811  -0.726501  0  2.416662  0
O  O63  1  0.57873318  0.47852134  0.06564975  1  0  -0.802831  0  2.152928  0  0  -0.744044  0  2.414451  0  0  -0.792271  0  2.404239  0  0  -0.417462  -0.724615  0  2.42011  0
O  O64  1  0.81147948  0.77195790  0.58813302  1  0  -0.67805  0  1.959238  0  0  -0.634207  0  2.195455  0  0  -0.668591  0  2.185191  0  0  -0.360713  -0.616602  0  2.200683  0
O  O65  1  0.17127994  0.72813348  0.91190979  1  0  -0.67775  0  1.960296  0  0  -0.633307  0  2.19711  0  0  -0.667892  0  2.186989  0  0  -0.360663  -0.615851  0  2.201991  0
O  O66  1  0.18850249  0.22801734  0.41186932  1  0  -0.678355  0  1.958602  0  0  -0.634488  0  2.195105  0  0  -0.668869  0  2.184809  0  0  -0.360997  -0.616892  0  2.200329  0
O  O67  1  0.82871064  0.27188414  0.08808555  1  0  -0.677869  0  1.959989  0  0  -0.633363  0  2.196894  0  0  -0.667943  0  2.186759  0  0  -0.360744  -0.615908  0  2.201775  0
O  O68  1  0.32005744  0.05125092  0.56794835  1  0  -0.710366  0  2.051648  0  0  -0.646093  0  2.284574  0  0  -0.680081  0  2.27396  0  0  -0.377042  -0.62854  0  2.290745  0
O  O69  1  0.93898359  0.44884192  0.93211696  1  0  -0.710721  0  2.052252  0  0  -0.645697  0  2.284668  0  0  -0.679611  0  2.273909  0  0  -0.376793  -0.628441  0  2.291043  0
O  O70  1  0.67995582  0.94872637  0.43205273  1  0  -0.71032  0  2.051611  0  0  -0.64605  0  2.284529  0  0  -0.680031  0  2.273929  0  0  -0.376978  -0.628483  0  2.29068  0
O  O71  1  0.06100959  0.55116440  0.06788352  1  0  -0.710791  0  2.052313  0  0  -0.64565  0  2.284651  0  0  -0.679541  0  2.273885  0  0  -0.37679  -0.62839  0  2.291017  0
O  O72  1  0.04043692  0.14967107  0.65343635  1  0  -0.672913  0  1.950269  0  0  -0.628708  0  2.186351  0  0  -0.66088  0  2.175816  0  0  -0.382331  -0.612969  0  2.19267  0
O  O73  1  0.84322057  0.35046941  0.84658813  1  0  -0.674644  0  1.950754  0  0  -0.630388  0  2.18706  0  0  -0.662622  0  2.176499  0  0  -0.383493  -0.614884  0  2.193342  0
O  O74  1  0.95958244  0.85029892  0.34656254  1  0  -0.672994  0  1.950265  0  0  -0.628833  0  2.186437  0  0  -0.660993  0  2.175896  0  0  -0.382412  -0.613092  0  2.192755  0
O  O75  1  0.15676045  0.64955247  0.15341273  1  0  -0.674388  0  1.951066  0  0  -0.63012  0  2.187387  0  0  -0.662357  0  2.17684  0  0  -0.383301  -0.614617  0  2.193664  0
O  O76  1  0.78408662  0.42821495  0.47872695  1  0  -0.60333  0  2.060892  0  0  -0.555248  0  2.304309  0  0  -0.588478  0  2.293874  0  0  -0.349881  -0.539233  0  2.309184  0
O  O77  1  0.69110486  0.07176189  0.02124465  1  0  -0.60433  0  2.058616  0  0  -0.556409  0  2.302995  0  0  -0.589709  0  2.29246  0  0  -0.350221  -0.540334  0  2.307604  0
O  O78  1  0.21589762  0.57177061  0.52127281  1  0  -0.603237  0  2.061355  0  0  -0.555289  0  2.304832  0  0  -0.588502  0  2.294388  0  0  -0.35001  -0.539283  0  2.309744  0
O  O79  1  0.30889102  0.92822663  0.97874714  1  0  -0.604394  0  2.058915  0  0  -0.556559  0  2.303282  0  0  -0.589864  0  2.292743  0  0  -0.350315  -0.54048  0  2.307884  0
O  O80  1  0.80982802  0.64892831  0.45710625  1  0  -0.695072  0  2.122137  0  0  -0.634035  0  2.35435  0  0  -0.670035  0  2.344033  0  0  -0.344399  -0.616186  0  2.359869  0
O  O81  1  0.91585175  0.85103627  0.04287174  1  0  -0.697025  0  2.121596  0  0  -0.635741  0  2.3544  0  0  -0.671748  0  2.343959  0  0  -0.345005  -0.617784  0  2.35947  0
O  O82  1  0.19017696  0.35106553  0.54289256  1  0  -0.69514  0  2.121854  0  0  -0.634078  0  2.354029  0  0  -0.670097  0  2.343716  0  0  -0.344324  -0.616231  0  2.359548  0
O  O83  1  0.08413639  0.14896799  0.95712969  1  0  -0.696922  0  2.121755  0  0  -0.63569  0  2.354508  0  0  -0.6717  0  2.34406  0  0  -0.345044  -0.617735  0  2.359579  0
O  O84  1  0.60229538  0.28786757  0.60679138  1  0  -0.906214  0  1.884794  0  0  -0.861962  0  2.090654  0  0  -0.892454  0  2.051945  0  0  -0.638783  -0.849118  0  2.110506  0
O  O85  1  0.49680480  0.21213247  0.89319259  1  0  -0.908411  0  1.883497  0  0  -0.863846  0  2.089271  0  0  -0.894484  0  2.050608  0  0  -0.639483  -0.851029  0  2.109075  0
O  O86  1  0.39770749  0.71212734  0.39320897  1  0  -0.906138  0  1.885068  0  0  -0.861921  0  2.090768  0  0  -0.892402  0  2.052074  0  0  -0.638754  -0.849057  0  2.110663  0
O  O87  1  0.50318968  0.78788624  0.10680516  1  0  -0.908487  0  1.883604  0  0  -0.863931  0  2.08931  0  0  -0.894564  0  2.050651  0  0  -0.639506  -0.851111  0  2.109157  0
O  O88  1  0.64967738  0.19952979  0.46033168  1  0  -0.900568  0  1.898772  0  0  -0.852411  0  2.108825  0  0  -0.883512  0  2.072521  0  0  -0.648753  -0.838337  0  2.129031  0
O  O89  1  0.30961505  0.30043123  0.03966761  1  0  -0.901545  0  1.897201  0  0  -0.85343  0  2.108051  0  0  -0.884577  0  2.071771  0  0  -0.649513  -0.839588  0  2.128115  0
O  O90  1  0.35033304  0.80045478  0.53967007  1  0  -0.900779  0  1.898466  0  0  -0.852567  0  2.108666  0  0  -0.88365  0  2.072364  0  0  -0.648751  -0.838489  0  2.128883  0
O  O91  1  0.69038179  0.69958131  0.96033280  1  0  -0.901552  0  1.897209  0  0  -0.853448  0  2.10809  0  0  -0.884615  0  2.071747  0  0  -0.649525  -0.839609  0  2.128153  0
