# generated using pymatgen
data_CuH17C8SIN3
_symmetry_space_group_name_H-M   'P 1'
_cell_length_a   7.11583114
_cell_length_b   12.60856110
_cell_length_c   14.06590000
_cell_angle_alpha   98.84055365
_cell_angle_beta   90.00000000
_cell_angle_gamma   90.00000000
_symmetry_Int_Tables_number   1
_chemical_formula_structural   CuH17C8SIN3
_chemical_formula_sum   'Cu4 H68 C32 S4 I4 N12'
_cell_volume   1247.00533234
_cell_formula_units_Z   4
loop_
 _symmetry_equiv_pos_site_id
 _symmetry_equiv_pos_as_xyz
  1  'x, y, z'
loop_
 _atom_site_type_symbol
 _atom_site_label
 _atom_site_symmetry_multiplicity
 _atom_site_fract_x
 _atom_site_fract_y
 _atom_site_fract_z
 _atom_site_occupancy
 _atom_site_hle17_bader_spin_density
 _atom_site_hle17_ddec_charge
 _atom_site_hle17_ddec_spin_density
 _atom_site_hle17_ddec_sum_bond_order
 _atom_site_hle17_magmom
 _atom_site_hse06_10hf_bader_spin_density
 _atom_site_hse06_10hf_ddec_charge
 _atom_site_hse06_10hf_ddec_spin_density
 _atom_site_hse06_10hf_ddec_sum_bond_order
 _atom_site_hse06_10hf_magmom
 _atom_site_hse06_bader_spin_density
 _atom_site_hse06_ddec_charge
 _atom_site_hse06_ddec_spin_density
 _atom_site_hse06_ddec_sum_bond_order
 _atom_site_hse06_magmom
 _atom_site_pbe_bader_charge
 _atom_site_pbe_bader_spin_density
 _atom_site_pbe_cm5_charge
 _atom_site_pbe_ddec_charge
 _atom_site_pbe_ddec_spin_density
 _atom_site_pbe_ddec_sum_bond_order
 _atom_site_pbe_magmom
Cu  Cu0  1  0.43294591  0.83457198  0.21718993  1  0  0.22441  0  2.206261  0  0  0.150241  0  2.669555  0  0  0.150875  0  2.631137  0  0.458562  0  0.339661  0.151939  0  2.694293  0
Cu  Cu1  1  0.93294794  0.66543409  0.28280700  1  0  0.224379  0  2.206278  0  0  0.150219  0  2.669567  0  0  0.150853  0  2.631151  0  0.458713  0  0.339635  0.151919  0  2.694306  0
Cu  Cu2  1  0.56705112  0.16543207  0.78280707  1  0  0.224389  0  2.206356  0  0  0.150245  0  2.669679  0  0  0.150879  0  2.631256  0  0.458665  0  0.339661  0.151936  0  2.694402  0
Cu  Cu3  1  0.06704768  0.33456675  0.71719383  1  0  0.224411  0  2.206239  0  0  0.150237  0  2.669543  0  0  0.15087  0  2.631124  0  0.458711  0  0.339655  0.151933  0  2.694296  0
H  H4  1  0.76989601  0.96644536  0.22768323  1  0  0.093749  0  0.94594  0  0  0.108953  0  1.008152  0  0  0.110929  0  1.006987  0  0.072988  0  0.093559  0.107417  0  1.009188  0
H  H5  1  0.26991928  0.53355831  0.27231621  1  0  0.093792  0  0.945859  0  0  0.108997  0  1.008103  0  0  0.110975  0  1.00694  0  0.072547  0  0.093564  0.107466  0  1.00913  0
H  H6  1  0.23009259  0.03355227  0.77231858  1  0  0.09383  0  0.945879  0  0  0.109029  0  1.008103  0  0  0.111006  0  1.006941  0  0.072994  0  0.093576  0.107505  0  1.009125  0
H  H7  1  0.73009321  0.46644494  0.72768210  1  0  0.09379  0  0.945866  0  0  0.108993  0  1.008083  0  0  0.11097  0  1.006921  0  0.072751  0  0.093578  0.107473  0  1.0091  0
H  H8  1  0.98595932  0.89231284  0.22508188  1  0  0.088945  0  0.996353  0  0  0.0997  0  1.067168  0  0  0.101159  0  1.067517  0  0.07121  0  0.080822  0.098489  0  1.067208  0
H  H9  1  0.48597415  0.60769966  0.27492091  1  0  0.089003  0  0.996186  0  0  0.099736  0  1.067034  0  0  0.101194  0  1.067387  0  0.071381  0  0.080842  0.098524  0  1.067074  0
H  H10  1  0.01403350  0.10768720  0.77491742  1  0  0.088996  0  0.996252  0  0  0.09972  0  1.06711  0  0  0.101179  0  1.06746  0  0.071379  0  0.080839  0.098509  0  1.06715  0
H  H11  1  0.51402850  0.39231402  0.72508453  1  0  0.089035  0  0.996258  0  0  0.099726  0  1.067141  0  0  0.101187  0  1.06749  0  0.071324  0  0.080831  0.098515  0  1.067181  0
H  H12  1  0.91496831  0.91477252  0.41336356  1  0  0.129137  0  0.949571  0  0  0.145075  0  1.014478  0  0  0.147325  0  1.014003  0  0.098675  0  0.088551  0.143416  0  1.014892  0
H  H13  1  0.41497612  0.58523195  0.08663813  1  0  0.129135  0  0.949549  0  0  0.145056  0  1.01448  0  0  0.147306  0  1.014006  0  0.099239  0  0.08854  0.143401  0  1.01488  0
H  H14  1  0.08503293  0.08522672  0.58663492  1  0  0.129178  0  0.949552  0  0  0.145135  0  1.014428  0  0  0.147384  0  1.013955  0  0.098682  0  0.088562  0.143477  0  1.014843  0
H  H15  1  0.58502794  0.41477050  0.91336434  1  0  0.129162  0  0.949558  0  0  0.145109  0  1.014455  0  0  0.147359  0  1.01398  0  0.098648  0  0.088559  0.143455  0  1.014858  0
H  H16  1  0.73653800  0.84034382  0.46463619  1  0  0.132187  0  0.957795  0  0  0.146503  0  1.023039  0  0  0.148658  0  1.022939  0  0.090792  0  0.089968  0.144884  0  1.023238  0
H  H17  1  0.23654159  0.65965744  0.03536505  1  0  0.132217  0  0.957767  0  0  0.146514  0  1.023038  0  0  0.148669  0  1.022941  0  0.0907  0  0.089965  0.144893  0  1.023236  0
H  H18  1  0.26346606  0.15965541  0.53536441  1  0  0.132219  0  0.957792  0  0  0.146534  0  1.02303  0  0  0.14869  0  1.022931  0  0.090792  0  0.089976  0.144917  0  1.023227  0
H  H19  1  0.76346247  0.34034340  0.96463578  1  0  0.132198  0  0.957787  0  0  0.146507  0  1.023041  0  0  0.148662  0  1.02294  0  0.090782  0  0.089965  0.14489  0  1.023239  0
H  H20  1  0.67060754  0.95692997  0.41412288  1  0  0.11916  0  0.993951  0  0  0.134092  0  1.060665  0  0  0.1361  0  1.06118  0  0.110668  0  0.079013  0.132588  0  1.060391  0
H  H21  1  0.17061675  0.54307209  0.08587918  1  0  0.119124  0  0.994057  0  0  0.134079  0  1.060749  0  0  0.136088  0  1.061259  0  0.110703  0  0.079034  0.132575  0  1.060472  0
H  H22  1  0.32939230  0.04306926  0.58587630  1  0  0.119288  0  0.993941  0  0  0.134196  0  1.060656  0  0  0.136205  0  1.061168  0  0.110643  0  0.079057  0.132693  0  1.060381  0
H  H23  1  0.82938730  0.45692875  0.91412236  1  0  0.119184  0  0.993992  0  0  0.134119  0  1.060697  0  0  0.136129  0  1.061201  0  0.110695  0  0.079028  0.132615  0  1.060424  0
H  H24  1  0.86363067  0.87261908  0.05900708  1  0  0.045253  0  0.962427  0  0  0.065101  0  1.023474  0  0  0.064441  0  1.024952  0  0.044603  0  0.097878  0.065467  0  1.022509  0
H  H25  1  0.36363286  0.62738459  0.44099236  1  0  0.04531  0  0.96237  0  0  0.065147  0  1.023443  0  0  0.06449  0  1.024913  0  0.044627  0  0.09789  0.065512  0  1.022477  0
H  H26  1  0.13636777  0.12738176  0.94099162  1  0  0.045227  0  0.962432  0  0  0.065077  0  1.023491  0  0  0.064417  0  1.024967  0  0.044599  0  0.097892  0.065443  0  1.022526  0
H  H27  1  0.63636277  0.37261866  0.55900666  1  0  0.045206  0  0.962458  0  0  0.06507  0  1.023505  0  0  0.064417  0  1.024982  0  0.044725  0  0.097851  0.065434  0  1.022541  0
H  H28  1  0.84151238  0.74858035  0.10328181  1  0  0.047635  0  0.954683  0  0  0.060665  0  1.029197  0  0  0.061885  0  1.027679  0  0.047662  0  0.089017  0.059571  0  1.030455  0
H  H29  1  0.34151597  0.75142332  0.39671905  1  0  0.047643  0  0.954701  0  0  0.060646  0  1.029231  0  0  0.061864  0  1.027717  0  0.047557  0  0.089021  0.059552  0  1.030492  0
H  H30  1  0.15848324  0.25141889  0.89671667  1  0  0.047591  0  0.954721  0  0  0.060605  0  1.029259  0  0  0.061821  0  1.027753  0  0.047656  0  0.088989  0.059516  0  1.030506  0
H  H31  1  0.65846981  0.24857993  0.60328210  1  0  0.047644  0  0.954773  0  0  0.060604  0  1.029372  0  0  0.061814  0  1.027883  0  0.047593  0  0.088973  0.059514  0  1.03062  0
H  H32  1  0.90484581  0.71956384  0.94295316  1  0  0.088556  0  0.948376  0  0  0.106741  0  1.016139  0  0  0.107699  0  1.015589  0  0.060171  0  0.094293  0.105974  0  1.016598  0
H  H33  1  0.40485222  0.78043502  0.55704775  1  0  0.088559  0  0.948393  0  0  0.106767  0  1.016131  0  0  0.107726  0  1.015579  0  0.06016  0  0.094293  0.105999  0  1.016592  0
H  H34  1  0.09515262  0.28043620  0.05704685  1  0  0.08852  0  0.948385  0  0  0.106709  0  1.016139  0  0  0.107652  0  1.015603  0  0.060174  0  0.094277  0.105942  0  1.016599  0
H  H35  1  0.59514481  0.21956342  0.44295417  1  0  0.088532  0  0.948427  0  0  0.106742  0  1.016166  0  0  0.107701  0  1.015616  0  0.060142  0  0.094282  0.105975  0  1.016627  0
H  H36  1  0.76994941  0.64546904  0.85072179  1  0  0.096019  0  0.945273  0  0  0.119548  0  1.005919  0  0  0.120028  0  1.006365  0  0.050872  0  0.102323  0.119064  0  1.005745  0
H  H37  1  0.26995722  0.85453222  0.64928016  1  0  0.096061  0  0.945174  0  0  0.11957  0  1.00585  0  0  0.12005  0  1.006296  0  0.050859  0  0.102326  0.119088  0  1.005676  0
H  H38  1  0.23004902  0.35453100  0.14927893  1  0  0.096022  0  0.945326  0  0  0.119555  0  1.005953  0  0  0.120035  0  1.006398  0  0.050836  0  0.102317  0.119071  0  1.005777  0
H  H39  1  0.73003700  0.14546701  0.35072187  1  0  0.096048  0  0.945221  0  0  0.119567  0  1.005879  0  0  0.120047  0  1.006325  0  0.050859  0  0.102326  0.119086  0  1.005705  0
H  H40  1  0.72010843  0.63457551  0.97262946  1  0  0.094727  0  0.942725  0  0  0.115469  0  1.006478  0  0  0.116217  0  1.006652  0  0.055904  0  0.098693  0.114798  0  1.006466  0
H  H41  1  0.22012186  0.86542495  0.52737096  1  0  0.094665  0  0.942691  0  0  0.115407  0  1.006462  0  0  0.116154  0  1.00664  0  0.05595  0  0.098661  0.114736  0  1.006452  0
H  H42  1  0.27989422  0.36542694  0.02737159  1  0  0.094781  0  0.942639  0  0  0.115481  0  1.006435  0  0  0.116228  0  1.006608  0  0.056039  0  0.098696  0.11481  0  1.006424  0
H  H43  1  0.77988079  0.13457589  0.47262987  1  0  0.094666  0  0.942718  0  0  0.115409  0  1.006486  0  0  0.116157  0  1.006663  0  0.055937  0  0.098661  0.114738  0  1.006476  0
H  H44  1  0.45604933  0.69001116  0.81580198  1  0  0.061134  0  0.956961  0  0  0.072836  0  1.027945  0  0  0.074295  0  1.027134  0  0.042966  0  0.085465  0.071656  0  1.028629  0
H  H45  1  0.95605417  0.80998529  0.68420215  1  0  0.061161  0  0.956878  0  0  0.072865  0  1.027843  0  0  0.074326  0  1.027031  0  0.043065  0  0.085489  0.071684  0  1.02853  0
H  H46  1  0.54395613  0.30999048  0.18419611  1  0  0.061242  0  0.957037  0  0  0.072944  0  1.02801  0  0  0.074408  0  1.027202  0  0.043009  0  0.085527  0.071774  0  1.028686  0
H  H47  1  0.04394005  0.19000913  0.31580135  1  0  0.061164  0  0.956923  0  0  0.072878  0  1.027873  0  0  0.074335  0  1.027061  0  0.042965  0  0.085477  0.071686  0  1.028569  0
H  H48  1  0.58345117  0.80095952  0.77883458  1  0  0.06553  0  0.961568  0  0  0.077122  0  1.032617  0  0  0.078655  0  1.031559  0  0.077305  0  0.090339  0.07593  0  1.03341  0
H  H49  1  0.08346038  0.69903452  0.72116496  1  0  0.065572  0  0.961385  0  0  0.077142  0  1.032462  0  0  0.078676  0  1.031407  0  0.077232  0  0.090346  0.075949  0  1.033255  0
H  H50  1  0.41655570  0.19904133  0.22116625  1  0  0.065511  0  0.961546  0  0  0.077136  0  1.032571  0  0  0.078673  0  1.031518  0  0.077377  0  0.09033  0.075941  0  1.033366  0
H  H51  1  0.91654648  0.30096311  0.27883543  1  0  0.065541  0  0.961559  0  0  0.077127  0  1.032608  0  0  0.078658  0  1.03155  0  0.077264  0  0.090337  0.075937  0  1.033397  0
H  H52  1  0.37506933  0.93041773  0.85903262  1  0  0.063306  0  0.940953  0  0  0.075015  0  1.012917  0  0  0.075844  0  1.012744  0  0.066616  0  0.096469  0.074268  0  1.013208  0
H  H53  1  0.87507979  0.56958033  0.64096178  1  0  0.063334  0  0.940989  0  0  0.075031  0  1.01302  0  0  0.075858  0  1.012851  0  0.066583  0  0.096497  0.074284  0  1.013311  0
H  H54  1  0.62493192  0.06958312  0.14096536  1  0  0.063361  0  0.940955  0  0  0.075067  0  1.01291  0  0  0.075895  0  1.012738  0  0.066648  0  0.096509  0.074319  0  1.0132  0
H  H55  1  0.12494113  0.43041329  0.35903592  1  0  0.063325  0  0.940983  0  0  0.075053  0  1.012945  0  0  0.075878  0  1.012778  0  0.066745  0  0.096512  0.074305  0  1.013235  0
H  H56  1  0.20975062  0.82154341  0.84272714  1  0  0.068446  0  0.930007  0  0  0.086568  0  0.988964  0  0  0.087409  0  0.988532  0  0.053189  0  0.103447  0.085864  0  0.989383  0
H  H57  1  0.70975686  0.67845384  0.65727354  1  0  0.068359  0  0.929932  0  0  0.086527  0  0.988893  0  0  0.087368  0  0.988461  0  0.053288  0  0.103391  0.085823  0  0.989314  0
H  H58  1  0.79025625  0.17845904  0.15727035  1  0  0.068493  0  0.92998  0  0  0.086603  0  0.988951  0  0  0.087448  0  0.988512  0  0.053113  0  0.103426  0.085899  0  0.98937  0
H  H59  1  0.29025000  0.32153015  0.34273065  1  0  0.068476  0  0.929896  0  0  0.08656  0  0.98894  0  0  0.087405  0  0.9885  0  0.053412  0  0.103376  0.085856  0  0.989358  0
H  H60  1  0.24131124  0.91986211  0.11199303  1  0  0.084846  0  1.01086  0  0  0.097695  0  1.090652  0  0  0.102112  0  1.085305  0  0.080425  0  0.080158  0.094267  0  1.094665  0
H  H61  1  0.74131607  0.58014156  0.38800498  1  0  0.084924  0  1.010769  0  0  0.097739  0  1.090579  0  0  0.102152  0  1.085241  0  0.079921  0  0.080182  0.094312  0  1.094591  0
H  H62  1  0.75869282  0.08014836  0.88800486  1  0  0.084946  0  1.01075  0  0  0.097804  0  1.090526  0  0  0.102222  0  1.085182  0  0.08028  0  0.080191  0.094376  0  1.094538  0
H  H63  1  0.25868236  0.41984644  0.61199763  1  0  0.084951  0  1.010799  0  0  0.097841  0  1.090527  0  0  0.102253  0  1.085193  0  0.079925  0  0.080224  0.094415  0  1.094539  0
H  H64  1  0.09625439  0.92783641  0.00964140  1  0  0.083864  0  0.959692  0  0  0.107094  0  1.017595  0  0  0.10804  0  1.017363  0  0.010211  0  0.098354  0.106327  0  1.017837  0
H  H65  1  0.59626064  0.57216646  0.49035579  1  0  0.08389  0  0.959708  0  0  0.1071  0  1.017629  0  0  0.108045  0  1.017399  0  0.010017  0  0.098381  0.106332  0  1.017874  0
H  H66  1  0.90374826  0.07217326  0.99035709  1  0  0.083953  0  0.959695  0  0  0.107199  0  1.017565  0  0  0.108148  0  1.017329  0  0.009944  0  0.098373  0.10643  0  1.017809  0
H  H67  1  0.40374201  0.42782315  0.50964775  1  0  0.083921  0  0.95966  0  0  0.10717  0  1.017539  0  0  0.108119  0  1.017302  0  0.010058  0  0.098317  0.106401  0  1.017786  0
H  H68  1  0.29840225  0.01179250  0.03221201  1  0  0.084321  0  0.964798  0  0  0.100798  0  1.035293  0  0  0.101744  0  1.03566  0  0.039728  0  0.093115  0.099942  0  1.035203  0
H  H69  1  0.79840709  0.48821194  0.46778611  1  0  0.084329  0  0.964809  0  0  0.10082  0  1.035261  0  0  0.101768  0  1.035624  0  0.0397  0  0.09314  0.099977  0  1.035156  0
H  H70  1  0.70160743  0.98821396  0.96778248  1  0  0.084346  0  0.964702  0  0  0.100835  0  1.035169  0  0  0.101783  0  1.035534  0  0.039925  0  0.093122  0.099984  0  1.035069  0
H  H71  1  0.20159838  0.51178008  0.53221919  1  0  0.084348  0  0.964608  0  0  0.10082  0  1.035097  0  0  0.101768  0  1.03546  0  0.039792  0  0.09308  0.099991  0  1.034977  0
C  C72  1  0.83384356  0.88630342  0.21208273  1  0  -0.176162  0  3.619456  0  0  -0.211914  0  3.874291  0  0  -0.213143  0  3.883159  0  -0.114597  0  -0.1609  -0.211055  0  3.868553  0
C  C73  1  0.33385559  0.61370106  0.28791682  1  0  -0.176087  0  3.619083  0  0  -0.211847  0  3.873996  0  0  -0.213088  0  3.88289  0  -0.114425  0  -0.160901  -0.210983  0  3.868235  0
C  C74  1  0.16614925  0.11369421  0.78791766  1  0  -0.176224  0  3.619233  0  0  -0.211964  0  3.874111  0  0  -0.213198  0  3.882991  0  -0.11486  0  -0.160928  -0.21111  0  3.868363  0
C  C75  1  0.66614425  0.38630380  0.71208314  1  0  -0.176235  0  3.61915  0  0  -0.211923  0  3.874009  0  0  -0.213157  0  3.882904  0  -0.114547  0  -0.160952  -0.211072  0  3.868256  0
C  C76  1  0.76769809  0.88868648  0.40819018  1  0  -0.32943  0  3.605092  0  0  -0.397003  0  3.852096  0  0  -0.400709  0  3.85816  0  -0.239547  0  -0.240657  -0.39422  0  3.848046  0
C  C77  1  0.26770169  0.61131559  0.09180975  1  0  -0.329419  0  3.605151  0  0  -0.397001  0  3.852162  0  0  -0.400693  0  3.858192  0  -0.240147  0  -0.240667  -0.394223  0  3.848135  0
C  C78  1  0.23230315  0.11131196  0.59180890  1  0  -0.329659  0  3.605135  0  0  -0.397232  0  3.852136  0  0  -0.400927  0  3.858175  0  -0.239523  0  -0.240742  -0.39445  0  3.848089  0
C  C79  1  0.73230096  0.38868606  0.90819048  1  0  -0.329519  0  3.605146  0  0  -0.397108  0  3.852135  0  0  -0.400817  0  3.858208  0  -0.239564  0  -0.24069  -0.394321  0  3.84808  0
C  C80  1  0.52629973  0.81986026  0.00495199  1  0  0.460974  0  3.823376  0  0  0.401825  0  4.106317  0  0  0.430297  0  4.112807  0  1.510244  0  0.332123  0.382677  0  4.101483  0
C  C81  1  0.02630332  0.68014341  0.49504816  1  0  0.46112  0  3.823015  0  0  0.401945  0  4.106006  0  0  0.430417  0  4.112493  0  1.510272  0  0.332178  0.382795  0  4.101175  0
C  C82  1  0.47369871  0.18013978  0.99504944  1  0  0.461019  0  3.823112  0  0  0.40194  0  4.105984  0  0  0.430415  0  4.112465  0  1.510269  0  0.33214  0.382793  0  4.10115  0
C  C83  1  0.97368668  0.31985261  0.50495627  1  0  0.461122  0  3.823258  0  0  0.401941  0  4.106224  0  0  0.43041  0  4.112708  0  1.511823  0  0.332104  0.382793  0  4.101393  0
C  C84  1  0.78763673  0.83166720  0.11109372  1  0  0.054642  0  3.72851  0  0  0.000417  0  3.987595  0  0  0.004667  0  4.000773  0  0.283656  0  -0.0806  -0.002183  0  3.978609  0
C  C85  1  0.28764454  0.66833727  0.38890512  1  0  0.054614  0  3.728583  0  0  0.000438  0  3.987682  0  0  0.00469  0  4.000865  0  0.283956  0  -0.080546  -0.002168  0  3.978699  0
C  C86  1  0.21235748  0.16833284  0.88890487  1  0  0.054786  0  3.728625  0  0  0.000587  0  3.987699  0  0  0.004832  0  4.00089  0  0.283909  0  -0.080539  -0.002016  0  3.978716  0
C  C87  1  0.71235108  0.33166518  0.61109379  1  0  0.054864  0  3.728329  0  0  0.00066  0  3.987442  0  0  0.004891  0  4.000653  0  0.283774  0  -0.080372  -0.001941  0  3.978457  0
C  C88  1  0.76254480  0.69046064  0.92370201  1  0  -0.147111  0  3.668874  0  0  -0.24751  0  3.918973  0  0  -0.243524  0  3.928001  0  0.264324  0  -0.136787  -0.24992  0  3.912768  0
C  C89  1  0.26255542  0.80953901  0.57629759  1  0  -0.147103  0  3.668711  0  0  -0.247501  0  3.918808  0  0  -0.243517  0  3.927837  0  0.264216  0  -0.136776  -0.249915  0  3.912607  0
C  C90  1  0.23745504  0.30954100  0.07630035  1  0  -0.147142  0  3.668843  0  0  -0.247505  0  3.918943  0  0  -0.243504  0  3.92798  0  0.264265  0  -0.136769  -0.249917  0  3.912741  0
C  C91  1  0.73744442  0.19046022  0.42370231  1  0  -0.147109  0  3.668832  0  0  -0.247521  0  3.918954  0  0  -0.243536  0  3.927982  0  0.264208  0  -0.136785  -0.249936  0  3.912754  0
C  C92  1  0.50673490  0.77289414  0.83812523  1  0  -0.019919  0  3.646138  0  0  -0.079968  0  3.906435  0  0  -0.076616  0  3.916631  0  0.273494  0  -0.065281  -0.082017  0  3.899406  0
C  C93  1  0.00673990  0.72710632  0.66187306  1  0  -0.020088  0  3.645965  0  0  -0.080102  0  3.906313  0  0  -0.076753  0  3.916511  0  0.2736  0  -0.065359  -0.082147  0  3.899276  0
C  C94  1  0.49327056  0.22710991  0.16187320  1  0  -0.020055  0  3.64624  0  0  -0.080149  0  3.906581  0  0  -0.076818  0  3.916802  0  0.273523  0  -0.065356  -0.082201  0  3.899543  0
C  C95  1  0.99325853  0.27289212  0.33812673  1  0  -0.020123  0  3.646217  0  0  -0.080141  0  3.906501  0  0  -0.076778  0  3.916684  0  0.273706  0  -0.065327  -0.082177  0  3.899464  0
C  C96  1  0.34617741  0.84839117  0.87403437  1  0  -0.010707  0  3.638795  0  0  -0.070567  0  3.903683  0  0  -0.066723  0  3.914197  0  0.265929  0  -0.057868  -0.073001  0  3.896419  0
C  C97  1  0.84618647  0.65160528  0.62596195  1  0  -0.010536  0  3.638476  0  0  -0.070522  0  3.903482  0  0  -0.066681  0  3.913998  0  0.265302  0  -0.057777  -0.072951  0  3.896205  0
C  C98  1  0.65382665  0.15160968  0.12596291  1  0  -0.010789  0  3.638764  0  0  -0.070637  0  3.903603  0  0  -0.066792  0  3.914123  0  0.265364  0  -0.057855  -0.073069  0  3.89634  0
C  C99  1  0.15382602  0.34838432  0.37403876  1  0  -0.010598  0  3.638656  0  0  -0.070552  0  3.903596  0  0  -0.066715  0  3.91411  0  0.265026  0  -0.057843  -0.072982  0  3.896329  0
C  C100  1  0.24142507  0.93123001  0.03611436  1  0  -0.143903  0  3.677047  0  0  -0.24159  0  3.932762  0  0  -0.238554  0  3.939226  0  0.293444  0  -0.142167  -0.243251  0  3.928478  0
C  C101  1  0.74143131  0.56877367  0.46388366  1  0  -0.144028  0  3.677085  0  0  -0.241678  0  3.932803  0  0  -0.238642  0  3.93927  0  0.294194  0  -0.142235  -0.24335  0  3.928512  0
C  C102  1  0.75857477  0.06877726  0.96388309  1  0  -0.144101  0  3.677  0  0  -0.241822  0  3.932651  0  0  -0.238792  0  3.939113  0  0.293718  0  -0.142179  -0.243492  0  3.92839  0
C  C103  1  0.25856713  0.43121674  0.53611928  1  0  -0.144091  0  3.677026  0  0  -0.241844  0  3.932684  0  0  -0.23881  0  3.939149  0  0.294186  0  -0.142137  -0.243531  0  3.928401  0
S  S104  1  0.73070171  0.80416770  0.29406550  1  0  0.114821  0  3.071793  0  0  0.146155  0  3.553061  0  0  0.153891  0  3.527874  0  -0.021955  0  -0.049776  0.139776  0  3.570546  0
S  S105  1  0.23070531  0.69583517  0.20593311  1  0  0.11466  0  3.071715  0  0  0.146043  0  3.552954  0  0  0.15378  0  3.527771  0  -0.021765  0  -0.049834  0.139662  0  3.570434  0
S  S106  1  0.26929532  0.19583074  0.70593286  1  0  0.114787  0  3.071715  0  0  0.146126  0  3.552972  0  0  0.153864  0  3.527786  0  -0.021957  0  -0.049782  0.139747  0  3.57046  0
S  S107  1  0.76929172  0.30416728  0.79406651  1  0  0.114766  0  3.071776  0  0  0.146108  0  3.553016  0  0  0.153852  0  3.527826  0  -0.021919  0  -0.049804  0.139729  0  3.570501  0
I  I108  1  0.30950987  0.00567632  0.32474703  1  0  -0.55003  0  1.099408  0  0  -0.491362  0  1.424884  0  0  -0.508025  0  1.400008  0  -0.579292  0  -0.273755  -0.47933  0  1.441396  0
I  I109  1  0.80951752  0.49432490  0.17525136  1  0  -0.550046  0  1.099422  0  0  -0.491362  0  1.42486  0  0  -0.508028  0  1.399985  0  -0.579282  0  -0.273752  -0.479336  0  1.441381  0
I  I110  1  0.69048294  0.99432532  0.67525106  1  0  -0.550043  0  1.099435  0  0  -0.49137  0  1.424892  0  0  -0.508033  0  1.400019  0  -0.57924  0  -0.273753  -0.479338  0  1.441404  0
I  I111  1  0.19048934  0.50567514  0.82474865  1  0  -0.550044  0  1.09941  0  0  -0.491347  0  1.424863  0  0  -0.508009  0  1.399985  0  -0.579244  0  -0.273749  -0.479319  0  1.441386  0
N  N112  1  0.58515441  0.83659626  0.09432702  1  0  -0.491547  0  3.230451  0  0  -0.424447  0  3.547658  0  0  -0.44441  0  3.553023  0  -1.200921  0  -0.424425  -0.411383  0  3.54375  0
N  N113  1  0.08516222  0.66340821  0.40566827  1  0  -0.491785  0  3.230249  0  0  -0.424688  0  3.54746  0  0  -0.444649  0  3.552821  0  -1.201262  0  -0.424546  -0.411625  0  3.543557  0
N  N114  1  0.41483559  0.16340619  0.90566692  1  0  -0.491754  0  3.230345  0  0  -0.424675  0  3.547505  0  0  -0.444638  0  3.552869  0  -1.201265  0  -0.424507  -0.411607  0  3.54359  0
N  N115  1  0.91483621  0.33659022  0.59433010  1  0  -0.491804  0  3.23055  0  0  -0.424683  0  3.547744  0  0  -0.44463  0  3.553106  0  -1.201354  0  -0.424537  -0.411622  0  3.543846  0
N  N116  1  0.62677288  0.77763378  0.92385058  1  0  -0.218347  0  3.326043  0  0  -0.124885  0  3.568884  0  0  -0.143845  0  3.58792  0  -1.135087  0  -0.296557  -0.112028  0  3.555477  0
N  N117  1  0.12677507  0.72236668  0.57614700  1  0  -0.218281  0  3.326095  0  0  -0.124802  0  3.568926  0  0  -0.14376  0  3.587962  0  -1.135107  0  -0.296498  -0.111944  0  3.555515  0
N  N118  1  0.37322836  0.22236706  0.07614812  1  0  -0.218261  0  3.326052  0  0  -0.124827  0  3.568896  0  0  -0.143779  0  3.587929  0  -1.135154  0  -0.29652  -0.111974  0  3.555496  0
N  N119  1  0.87321774  0.27763416  0.42385099  1  0  -0.218231  0  3.326024  0  0  -0.12478  0  3.568869  0  0  -0.143741  0  3.5879  0  -1.135662  0  -0.296485  -0.111921  0  3.555458  0
N  N120  1  0.34770499  0.84719362  0.97799639  1  0  -0.214451  0  3.348476  0  0  -0.128326  0  3.600258  0  0  -0.146683  0  3.618886  0  -1.132327  0  -0.304442  -0.115886  0  3.587153  0
N  N121  1  0.84770983  0.65281005  0.52199949  1  0  -0.214523  0  3.348325  0  0  -0.128336  0  3.600119  0  0  -0.146687  0  3.618738  0  -1.131733  0  -0.304514  -0.1159  0  3.587024  0
N  N122  1  0.65229063  0.15281044  0.02199919  1  0  -0.21443  0  3.34847  0  0  -0.1283  0  3.600203  0  0  -0.146653  0  3.618825  0  -1.131774  0  -0.304498  -0.115865  0  3.5871  0
N  N123  1  0.15228579  0.34718437  0.47800116  1  0  -0.214637  0  3.348511  0  0  -0.128377  0  3.600202  0  0  -0.146726  0  3.618825  0  -1.132756  0  -0.304491  -0.115943  0  3.58711  0
