# generated using pymatgen
data_AgH5C6NCl
_symmetry_space_group_name_H-M   'P 1'
_cell_length_a   3.84771767
_cell_length_b   10.69890864
_cell_length_c   15.55913650
_cell_angle_alpha   90.00007359
_cell_angle_beta   90.00045666
_cell_angle_gamma   95.25869922
_symmetry_Int_Tables_number   1
_chemical_formula_structural   AgH5C6NCl
_chemical_formula_sum   'Ag4 H20 C24 N4 Cl4'
_cell_volume   637.81741667
_cell_formula_units_Z   4
loop_
 _symmetry_equiv_pos_site_id
 _symmetry_equiv_pos_as_xyz
  1  'x, y, z'
loop_
 _atom_site_type_symbol
 _atom_site_label
 _atom_site_symmetry_multiplicity
 _atom_site_fract_x
 _atom_site_fract_y
 _atom_site_fract_z
 _atom_site_occupancy
 _atom_site_hle17_bader_spin_density
 _atom_site_hle17_ddec_charge
 _atom_site_hle17_ddec_spin_density
 _atom_site_hle17_ddec_sum_bond_order
 _atom_site_hle17_magmom
 _atom_site_hse06_10hf_bader_spin_density
 _atom_site_hse06_10hf_ddec_charge
 _atom_site_hse06_10hf_ddec_spin_density
 _atom_site_hse06_10hf_ddec_sum_bond_order
 _atom_site_hse06_10hf_magmom
 _atom_site_hse06_bader_spin_density
 _atom_site_hse06_ddec_charge
 _atom_site_hse06_ddec_spin_density
 _atom_site_hse06_ddec_sum_bond_order
 _atom_site_hse06_magmom
 _atom_site_pbe_bader_spin_density
 _atom_site_pbe_cm5_charge
 _atom_site_pbe_ddec_charge
 _atom_site_pbe_ddec_spin_density
 _atom_site_pbe_ddec_sum_bond_order
 _atom_site_pbe_magmom
Ag  Ag0  1  0.77715953  0.07376413  0.43891144  1  0  0.424616  0  1.66979  0  0  0.303097  0  2.167925  0  0  0.331033  0  2.114846  0  0  0.309906  0.284063  0  2.203975  0
Ag  Ag1  1  0.22283448  0.42623780  0.93891175  1  0  0.424664  0  1.669622  0  0  0.303133  0  2.167753  0  0  0.331069  0  2.114677  0  0  0.309903  0.284098  0  2.203784  0
Ag  Ag2  1  0.22284261  0.92623835  0.56108764  1  0  0.424681  0  1.669544  0  0  0.303148  0  2.167671  0  0  0.331087  0  2.114595  0  0  0.309894  0.284106  0  2.203709  0
Ag  Ag3  1  0.77715673  0.57376285  0.06109054  1  0  0.424717  0  1.66956  0  0  0.303188  0  2.16768  0  0  0.331121  0  2.114602  0  0  0.309907  0.284149  0  2.203712  0
H  H4  1  0.12884988  0.20664191  0.27648407  1  0  0.066427  0  0.956911  0  0  0.078055  0  1.021973  0  0  0.079624  0  1.02093  0  0  0.107851  0.07675  0  1.023104  0
H  H5  1  0.87116419  0.29337443  0.77647920  1  0  0.066365  0  0.957558  0  0  0.078093  0  1.022444  0  0  0.079664  0  1.021398  0  0  0.107945  0.076796  0  1.023568  0
H  H6  1  0.87117248  0.79337645  0.72351951  1  0  0.066411  0  0.95753  0  0  0.078097  0  1.022477  0  0  0.079666  0  1.021429  0  0  0.107934  0.076797  0  1.023603  0
H  H7  1  0.12883480  0.70662618  0.22352116  1  0  0.066358  0  0.957573  0  0  0.078073  0  1.022479  0  0  0.079645  0  1.021436  0  0  0.107921  0.076772  0  1.023606  0
H  H8  1  0.18982978  0.17586477  0.11964508  1  0  0.112659  0  0.971875  0  0  0.122332  0  1.034417  0  0  0.125489  0  1.033351  0  0  0.097515  0.119962  0  1.035341  0
H  H9  1  0.81014346  0.32412587  0.61964011  1  0  0.112627  0  0.971592  0  0  0.122328  0  1.034136  0  0  0.125471  0  1.033091  0  0  0.097516  0.119959  0  1.035047  0
H  H10  1  0.81014203  0.82412281  0.88035850  1  0  0.11261  0  0.971374  0  0  0.122259  0  1.034016  0  0  0.125441  0  1.032926  0  0  0.097485  0.119888  0  1.034928  0
H  H11  1  0.18987753  0.67586994  0.38035832  1  0  0.112547  0  0.971573  0  0  0.122269  0  1.034121  0  0  0.125393  0  1.033095  0  0  0.097454  0.119898  0  1.03503  0
H  H12  1  0.58275446  0.81792979  0.14898219  1  0  0.099494  0  0.966892  0  0  0.107142  0  1.038758  0  0  0.110747  0  1.036366  0  0  0.097985  0.104408  0  1.040824  0
H  H13  1  0.41718902  0.68205786  0.64898080  1  0  0.09947  0  0.967113  0  0  0.107132  0  1.038945  0  0  0.110737  0  1.036551  0  0  0.098009  0.104403  0  1.041003  0
H  H14  1  0.41718524  0.18206359  0.85101688  1  0  0.099484  0  0.967186  0  0  0.107147  0  1.039005  0  0  0.110753  0  1.03661  0  0  0.098028  0.104417  0  1.041068  0
H  H15  1  0.58283552  0.31793229  0.35102021  1  0  0.099413  0  0.967143  0  0  0.107076  0  1.038973  0  0  0.110682  0  1.03658  0  0  0.097983  0.104349  0  1.041034  0
H  H16  1  0.55347028  0.86370432  0.30755782  1  0  0.078577  0  0.952357  0  0  0.087716  0  1.017097  0  0  0.089897  0  1.015496  0  0  0.10561  0.086086  0  1.018261  0
H  H17  1  0.44653716  0.63630799  0.80755838  1  0  0.078623  0  0.952188  0  0  0.087755  0  1.016956  0  0  0.089931  0  1.015371  0  0  0.105603  0.086122  0  1.018118  0
H  H18  1  0.44654374  0.13631220  0.69243869  1  0  0.078616  0  0.952  0  0  0.087801  0  1.016741  0  0  0.089985  0  1.015138  0  0  0.1056  0.086168  0  1.017909  0
H  H19  1  0.55346825  0.36368789  0.19243941  1  0  0.07861  0  0.952075  0  0  0.087745  0  1.016864  0  0  0.089927  0  1.015264  0  0  0.105598  0.086112  0  1.018033  0
H  H20  1  0.76425360  0.87575234  0.00971568  1  0  0.094691  0  0.991204  0  0  0.102709  0  1.059691  0  0  0.105715  0  1.058083  0  0  0.088405  0.100863  0  1.060121  0
H  H21  1  0.23572350  0.62424034  0.50971900  1  0  0.094675  0  0.991408  0  0  0.102716  0  1.059831  0  0  0.105723  0  1.058219  0  0  0.088455  0.10087  0  1.060271  0
H  H22  1  0.23569225  0.12423537  0.99028533  1  0  0.094696  0  0.9915  0  0  0.102735  0  1.059917  0  0  0.10573  0  1.05833  0  0  0.088469  0.1009  0  1.060331  0
H  H23  1  0.76431333  0.37575634  0.49028265  1  0  0.094663  0  0.991325  0  0  0.10269  0  1.05977  0  0  0.105686  0  1.058182  0  0  0.088434  0.100855  0  1.060188  0
C  C24  1  0.01201185  0.12132268  0.24577591  1  0  0.108531  0  3.735874  0  0  0.079938  0  3.98657  0  0  0.086192  0  4.006739  0  0  0.032907  0.075286  0  3.974084  0
C  C25  1  0.98796793  0.37866835  0.74578035  1  0  0.108551  0  3.736869  0  0  0.079873  0  3.987574  0  0  0.086127  0  4.007732  0  0  0.032783  0.075198  0  3.975126  0
C  C26  1  0.98797690  0.87866953  0.75421545  1  0  0.108467  0  3.737139  0  0  0.079798  0  3.98784  0  0  0.086045  0  4.00802  0  0  0.032769  0.075114  0  3.975398  0
C  C27  1  0.01203803  0.62132941  0.25421937  1  0  0.108531  0  3.736948  0  0  0.079847  0  3.987652  0  0  0.086093  0  4.007817  0  0  0.032798  0.075172  0  3.975195  0
C  C28  1  0.04501842  0.10360172  0.15808212  1  0  -0.143929  0  3.677633  0  0  -0.162092  0  3.918389  0  0  -0.169304  0  3.939845  0  0  -0.081359  -0.156844  0  3.903661  0
C  C29  1  0.95497105  0.39638709  0.65809615  1  0  -0.143784  0  3.676945  0  0  -0.161996  0  3.917819  0  0  -0.169205  0  3.939304  0  0  -0.081352  -0.156733  0  3.903067  0
C  C30  1  0.95496992  0.89639800  0.84189574  1  0  -0.14357  0  3.676734  0  0  -0.161721  0  3.917555  0  0  -0.168959  0  3.939008  0  0  -0.081185  -0.156462  0  3.902801  0
C  C31  1  0.04506128  0.60360303  0.34190164  1  0  -0.143666  0  3.676891  0  0  -0.161894  0  3.917728  0  0  -0.169083  0  3.939215  0  0  -0.081262  -0.156628  0  3.90297  0
C  C32  1  0.88997301  0.99243624  0.12030104  1  0  0.141063  0  3.781123  0  0  0.159104  0  4.004245  0  0  0.164887  0  4.026287  0  0  0.009301  0.155121  0  3.988999  0
C  C33  1  0.11003692  0.50757732  0.62030080  1  0  0.140856  0  3.780677  0  0  0.158891  0  4.003856  0  0  0.164673  0  4.025899  0  0  0.009218  0.154907  0  3.988614  0
C  C34  1  0.11003978  0.00758499  0.87969804  1  0  0.140682  0  3.781175  0  0  0.158751  0  4.004312  0  0  0.16453  0  4.026364  0  0  0.009163  0.154781  0  3.989045  0
C  C35  1  0.88999391  0.49241656  0.37970149  1  0  0.140927  0  3.780925  0  0  0.158973  0  4.004032  0  0  0.164758  0  4.02607  0  0  0.009299  0.154993  0  3.988778  0
C  C36  1  0.70836164  0.90514077  0.17558281  1  0  -0.170959  0  3.71097  0  0  -0.185357  0  3.95283  0  0  -0.194078  0  3.974943  0  0  -0.085257  -0.179402  0  3.937963  0
C  C37  1  0.29163471  0.59487398  0.67557337  1  0  -0.170753  0  3.710879  0  0  -0.185163  0  3.952727  0  0  -0.193877  0  3.974826  0  0  -0.085176  -0.179212  0  3.937868  0
C  C38  1  0.29160128  0.09487881  0.82443105  1  0  -0.170715  0  3.711203  0  0  -0.185152  0  3.953092  0  0  -0.193864  0  3.975189  0  0  -0.085251  -0.179215  0  3.938257  0
C  C39  1  0.70842234  0.40512072  0.32442699  1  0  -0.170796  0  3.710832  0  0  -0.185198  0  3.952696  0  0  -0.193915  0  3.974799  0  0  -0.085276  -0.179262  0  3.937869  0
C  C40  1  0.68891286  0.93011421  0.26292762  1  0  0.116104  0  3.728761  0  0  0.086986  0  3.975705  0  0  0.093892  0  3.995823  0  0  0.034763  0.082623  0  3.961996  0
C  C41  1  0.31106655  0.56988681  0.76292398  1  0  0.1161  0  3.728197  0  0  0.086979  0  3.975146  0  0  0.093887  0  3.995258  0  0  0.034824  0.08262  0  3.961426  0
C  C42  1  0.31105362  0.06988186  0.73707917  1  0  0.115982  0  3.727936  0  0  0.086802  0  3.97493  0  0  0.09371  0  3.995046  0  0  0.034787  0.082437  0  3.961218  0
C  C43  1  0.68895321  0.43011371  0.23707445  1  0  0.116061  0  3.72798  0  0  0.086914  0  3.974958  0  0  0.093825  0  3.99507  0  0  0.03482  0.082551  0  3.961247  0
C  C44  1  0.90951010  0.96360528  0.02936670  1  0  -0.085977  0  3.683781  0  0  -0.106277  0  3.931961  0  0  -0.109515  0  3.952163  0  0  -0.081279  -0.10393  0  3.917644  0
C  C45  1  0.09048388  0.53639865  0.52936194  1  0  -0.085944  0  3.683841  0  0  -0.106266  0  3.932013  0  0  -0.109498  0  3.952208  0  0  -0.081376  -0.103923  0  3.917701  0
C  C46  1  0.09045187  0.03640209  0.97063752  1  0  -0.085994  0  3.684025  0  0  -0.106324  0  3.932201  0  0  -0.109559  0  3.952397  0  0  -0.081423  -0.103982  0  3.91789  0
C  C47  1  0.90955555  0.46359801  0.47063328  1  0  -0.086039  0  3.684116  0  0  -0.10633  0  3.932269  0  0  -0.109567  0  3.952466  0  0  -0.081391  -0.103988  0  3.917966  0
N  N48  1  0.83735380  0.03689401  0.29839791  1  0  -0.302393  0  3.320261  0  0  -0.223836  0  3.607069  0  0  -0.242584  0  3.623518  0  0  -0.34721  -0.211245  0  3.595672  0
N  N49  1  0.16261997  0.46310662  0.79839491  1  0  -0.302528  0  3.320297  0  0  -0.223941  0  3.607104  0  0  -0.242693  0  3.623559  0  0  -0.347241  -0.211341  0  3.595691  0
N  N50  1  0.16260339  0.96310587  0.70160760  1  0  -0.302411  0  3.320555  0  0  -0.223792  0  3.607334  0  0  -0.242546  0  3.623793  0  0  -0.347176  -0.211183  0  3.595909  0
N  N51  1  0.83739556  0.53688828  0.20160674  1  0  -0.302431  0  3.3204  0  0  -0.22382  0  3.607187  0  0  -0.242574  0  3.623648  0  0  -0.347189  -0.211214  0  3.595767  0
Cl  Cl52  1  0.67619108  0.81668653  0.47951220  1  0  -0.538877  0  1.243127  0  0  -0.449507  0  1.604364  0  0  -0.471979  0  1.573797  0  0  -0.289104  -0.433728  0  1.624468  0
Cl  Cl53  1  0.32378704  0.68331427  0.97951575  1  0  -0.538965  0  1.243218  0  0  -0.44957  0  1.604417  0  0  -0.472029  0  1.57383  0  0  -0.289125  -0.433793  0  1.624516  0
Cl  Cl54  1  0.32382199  0.18331777  0.52048366  1  0  -0.538905  0  1.24321  0  0  -0.449521  0  1.604429  0  0  -0.471993  0  1.573869  0  0  -0.289107  -0.433746  0  1.624541  0
Cl  Cl55  1  0.67617480  0.31668370  0.02048782  1  0  -0.538915  0  1.243131  0  0  -0.449533  0  1.604339  0  0  -0.472015  0  1.573808  0  0  -0.289104  -0.433761  0  1.624443  0
