# generated using pymatgen
data_ZnH11C11N5O3
_symmetry_space_group_name_H-M   'P 1'
_cell_length_a   9.75127809
_cell_length_b   10.04875206
_cell_length_c   26.68998724
_cell_angle_alpha   89.99990142
_cell_angle_beta   90.00002522
_cell_angle_gamma   89.99993971
_symmetry_Int_Tables_number   1
_chemical_formula_structural   ZnH11C11N5O3
_chemical_formula_sum   'Zn8 H88 C88 N40 O24'
_cell_volume   2615.30316111
_cell_formula_units_Z   8
loop_
 _symmetry_equiv_pos_site_id
 _symmetry_equiv_pos_as_xyz
  1  'x, y, z'
loop_
 _atom_site_type_symbol
 _atom_site_label
 _atom_site_symmetry_multiplicity
 _atom_site_fract_x
 _atom_site_fract_y
 _atom_site_fract_z
 _atom_site_occupancy
 _atom_site_pbe_bader_charge
 _atom_site_pbe_bader_spin_density
 _atom_site_pbe_cm5_charge
 _atom_site_pbe_ddec_charge
 _atom_site_pbe_ddec_spin_density
 _atom_site_pbe_ddec_sum_bond_order
 _atom_site_pbe_magmom
Zn  Zn0  1  0.08410780  0.88388360  0.54360732  1  1.238645  0  0.731882  0.686393  0  2.471752  0
Zn  Zn1  1  0.58410799  0.61611596  0.45639272  1  1.238711  0  0.731903  0.686451  0  2.471689  0
Zn  Zn2  1  0.91588708  0.11611733  0.04360740  1  1.238674  0  0.731895  0.686472  0  2.471684  0
Zn  Zn3  1  0.41588739  0.38388209  0.95639340  1  1.238668  0  0.731917  0.686496  0  2.471699  0
Zn  Zn4  1  0.91589041  0.11611639  0.45639254  1  1.238651  0  0.731868  0.686395  0  2.471731  0
Zn  Zn5  1  0.41589124  0.38388403  0.54360676  1  1.238658  0  0.73187  0.686387  0  2.471744  0
Zn  Zn6  1  0.08411215  0.88388265  0.95639246  1  1.238661  0  0.731891  0.686466  0  2.471749  0
Zn  Zn7  1  0.58411184  0.61611690  0.04360609  1  1.238685  0  0.731897  0.686434  0  2.471634  0
H  H8  1  0.98650765  0.63949034  0.65660566  1  0.073442  0  0.101823  0.111746  0  1.033091  0
H  H9  1  0.48650930  0.86050881  0.34339370  1  0.073315  0  0.101784  0.111674  0  1.033064  0
H  H10  1  0.01349249  0.36050709  0.15660580  1  0.073438  0  0.101801  0.111699  0  1.033117  0
H  H11  1  0.51349312  0.13949175  0.84339455  1  0.073423  0  0.101826  0.11175  0  1.033105  0
H  H12  1  0.01349260  0.36050766  0.34339383  1  0.073446  0  0.101827  0.11176  0  1.033082  0
H  H13  1  0.51349301  0.13949317  0.65660690  1  0.073337  0  0.101802  0.111717  0  1.033053  0
H  H14  1  0.98650777  0.63948991  0.84339406  1  0.073449  0  0.101826  0.111746  0  1.033095  0
H  H15  1  0.48650714  0.86051023  0.15660531  1  0.073437  0  0.101807  0.111732  0  1.033092  0
H  H16  1  0.87653450  0.45718507  0.70307444  1  0.052245  0  0.098952  0.095586  0  1.037979  0
H  H17  1  0.37653336  0.04281440  0.29692560  1  0.052242  0  0.098966  0.095606  0  1.037973  0
H  H18  1  0.12346569  0.54280916  0.20307412  1  0.052297  0  0.098933  0.095563  0  1.037948  0
H  H19  1  0.62346695  0.95718936  0.79692594  1  0.052268  0  0.098984  0.095636  0  1.037933  0
H  H20  1  0.12346575  0.54280995  0.29692504  1  0.052302  0  0.098951  0.095572  0  1.037991  0
H  H21  1  0.62346689  0.95719156  0.70307539  1  0.052318  0  0.098943  0.095561  0  1.037948  0
H  H22  1  0.87653559  0.45718684  0.79692574  1  0.05226  0  0.098972  0.095611  0  1.03796  0
H  H23  1  0.37653330  0.04281362  0.20307392  1  0.05223  0  0.098967  0.095604  0  1.037961  0
H  H24  1  0.24242504  0.02897401  0.70342822  1  0.081014  0  0.102534  0.104115  0  1.031725  0
H  H25  1  0.74242568  0.47102559  0.29657105  1  0.081075  0  0.102512  0.104065  0  1.031708  0
H  H26  1  0.75757413  0.97102321  0.20342884  1  0.081009  0  0.102537  0.104092  0  1.031768  0
H  H27  1  0.25757156  0.52897319  0.79657123  1  0.081061  0  0.102518  0.104064  0  1.031742  0
H  H28  1  0.75757522  0.97102299  0.29657089  1  0.081064  0  0.10252  0.104078  0  1.031757  0
H  H29  1  0.25756945  0.52897241  0.70342956  1  0.081069  0  0.102516  0.104096  0  1.031697  0
H  H30  1  0.24242612  0.02897479  0.79657027  1  0.081092  0  0.102527  0.10412  0  1.031701  0
H  H31  1  0.74242665  0.47102580  0.20342900  1  0.081063  0  0.102524  0.104093  0  1.031716  0
H  H32  1  0.35389702  0.84757564  0.46855412  1  0.232788  0  0.142026  0.128852  0  1.021395  0
H  H33  1  0.85389726  0.65242464  0.53144560  1  0.232788  0  0.142016  0.128838  0  1.021433  0
H  H34  1  0.64609222  0.15242037  0.96855573  1  0.232514  0  0.142002  0.128808  0  1.021439  0
H  H35  1  0.14609247  0.34757834  0.03144465  1  0.232517  0  0.141986  0.128805  0  1.021471  0
H  H36  1  0.64610118  0.15242435  0.53144499  1  0.23281  0  0.14202  0.12886  0  1.021403  0
H  H37  1  0.14610094  0.34757634  0.46855464  1  0.232796  0  0.142021  0.128873  0  1.021397  0
H  H38  1  0.35390291  0.84757863  0.03144563  1  0.232669  0  0.142026  0.128815  0  1.021399  0
H  H39  1  0.85390676  0.65242066  0.96855521  1  0.232488  0  0.142009  0.1288  0  1.021412  0
H  H40  1  0.16282894  0.58178529  0.56897087  1  0.194286  0  0.144881  0.116392  0  0.992617  0
H  H41  1  0.66282877  0.91821518  0.43102919  1  0.194296  0  0.144894  0.116411  0  0.992586  0
H  H42  1  0.83716802  0.41821453  0.06897149  1  0.1943  0  0.144892  0.11638  0  0.992575  0
H  H43  1  0.33716760  0.08178796  0.93102855  1  0.194306  0  0.144886  0.116369  0  0.992562  0
H  H44  1  0.83716927  0.41821470  0.43102861  1  0.1943  0  0.144875  0.116364  0  0.992562  0
H  H45  1  0.33717046  0.08178580  0.56897067  1  0.194304  0  0.144884  0.116376  0  0.992577  0
H  H46  1  0.16283121  0.58178546  0.93102800  1  0.194284  0  0.144868  0.11637  0  0.992576  0
H  H47  1  0.66283163  0.91821302  0.06897094  1  0.194308  0  0.144898  0.116376  0  0.992584  0
H  H48  1  0.94740683  0.87764498  0.36245144  1  0.061431  0  0.097069  0.074346  0  1.019218  0
H  H49  1  0.44740601  0.62235520  0.63754866  1  0.061437  0  0.097068  0.074327  0  1.01922  0
H  H50  1  0.05259458  0.12235350  0.86245298  1  0.061391  0  0.097044  0.074308  0  1.01923  0
H  H51  1  0.55259616  0.37764431  0.13754813  1  0.061422  0  0.09705  0.074283  0  1.019234  0
H  H52  1  0.05259342  0.12235600  0.63754991  1  0.061459  0  0.09708  0.074318  0  1.019276  0
H  H53  1  0.55259424  0.37764578  0.36245120  1  0.061414  0  0.097058  0.074319  0  1.019223  0
H  H54  1  0.94740670  0.87764351  0.13754763  1  0.061447  0  0.097057  0.074299  0  1.019272  0
H  H55  1  0.44740615  0.62235668  0.86245210  1  0.061453  0  0.09706  0.07432  0  1.01926  0
H  H56  1  0.96581882  0.74657009  0.31784862  1  0.046326  0  0.094185  0.062495  0  0.984307  0
H  H57  1  0.46581894  0.75343106  0.68215224  1  0.046305  0  0.094182  0.062489  0  0.984258  0
H  H58  1  0.03418254  0.25342959  0.81784857  1  0.046095  0  0.094188  0.062499  0  0.98429  0
H  H59  1  0.53418226  0.24656824  0.18215179  1  0.04573  0  0.094186  0.062493  0  0.984274  0
H  H60  1  0.03418143  0.25343189  0.68215236  1  0.046281  0  0.094179  0.06248  0  0.984281  0
H  H61  1  0.53418132  0.24657191  0.31784875  1  0.04668  0  0.094171  0.062467  0  0.984325  0
H  H62  1  0.96581874  0.74657040  0.18215129  1  0.046679  0  0.094192  0.062494  0  0.984311  0
H  H63  1  0.46581902  0.75343374  0.81784919  1  0.046102  0  0.094189  0.062527  0  0.984273  0
H  H64  1  0.19745180  0.83091032  0.31398791  1  0.064145  0  0.099501  0.076935  0  0.993796  0
H  H65  1  0.69745221  0.66908813  0.68601178  1  0.064152  0  0.099491  0.076918  0  0.993818  0
H  H66  1  0.80254955  0.16908838  0.81398953  1  0.064194  0  0.099481  0.076936  0  0.993829  0
H  H67  1  0.30255002  0.33091016  0.18601125  1  0.064184  0  0.099472  0.076904  0  0.993818  0
H  H68  1  0.80254743  0.16909066  0.68601270  1  0.064118  0  0.099495  0.07691  0  0.993796  0
H  H69  1  0.30254804  0.33091186  0.31398883  1  0.064164  0  0.099467  0.076893  0  0.993836  0
H  H70  1  0.19745275  0.83091161  0.18601145  1  0.064168  0  0.099484  0.076915  0  0.993825  0
H  H71  1  0.69745127  0.66909182  0.81398861  1  0.064037  0  0.099456  0.076908  0  0.993834  0
H  H72  1  0.19268833  0.89137639  0.37682493  1  0.084001  0  0.096109  0.076856  0  1.006297  0
H  H73  1  0.69268770  0.60862405  0.62317513  1  0.083968  0  0.096109  0.076865  0  1.006262  0
H  H74  1  0.80731310  0.10862401  0.87682585  1  0.083982  0  0.096095  0.076863  0  1.006288  0
H  H75  1  0.30731445  0.39137652  0.12317493  1  0.083961  0  0.096099  0.076853  0  1.006265  0
H  H76  1  0.80731192  0.10862459  0.62317567  1  0.083959  0  0.096073  0.076799  0  1.006199  0
H  H77  1  0.30731358  0.39137693  0.37682511  1  0.083954  0  0.09611  0.07687  0  1.006268  0
H  H78  1  0.19268715  0.89137598  0.12317363  1  0.083975  0  0.0961  0.07687  0  1.006274  0
H  H79  1  0.69268683  0.60862446  0.87682493  1  0.083954  0  0.096099  0.07688  0  1.006255  0
H  H80  1  0.90211856  0.63661799  0.39556394  1  0.508326  0  0.298384  0.281769  0  1.006958  0
H  H81  1  0.40211744  0.86338224  0.60443616  1  0.508316  0  0.298381  0.281784  0  1.006945  0
H  H82  1  0.09788290  0.36338333  0.89556383  1  0.508295  0  0.29837  0.281774  0  1.006956  0
H  H83  1  0.59788469  0.13661742  0.10443542  1  0.508289  0  0.29837  0.281749  0  1.006957  0
H  H84  1  0.09788375  0.36338200  0.60443667  1  0.508297  0  0.298402  0.281796  0  1.006876  0
H  H85  1  0.59788384  0.13661874  0.39556333  1  0.508305  0  0.298406  0.281803  0  1.006887  0
H  H86  1  0.90211839  0.63661567  0.10443603  1  0.508315  0  0.298387  0.281776  0  1.006924  0
H  H87  1  0.40211864  0.86338357  0.89556519  1  0.508343  0  0.298367  0.281747  0  1.006978  0
H  H88  1  0.31370643  0.66765402  0.37728811  1  0.505271  0  0.301678  0.279685  0  0.995144  0
H  H89  1  0.81370557  0.83234530  0.62271160  1  0.505274  0  0.301676  0.27969  0  0.99514  0
H  H90  1  0.68629500  0.33234439  0.87728924  1  0.505278  0  0.301681  0.279682  0  0.995176  0
H  H91  1  0.18629454  0.16765626  0.12271077  1  0.505287  0  0.301684  0.279687  0  0.995161  0
H  H92  1  0.68629485  0.33234696  0.62271175  1  0.505278  0  0.301681  0.279674  0  0.99515  0
H  H93  1  0.18629572  0.16765469  0.37728864  1  0.505284  0  0.301695  0.279711  0  0.995133  0
H  H94  1  0.31370731  0.66765460  0.12271100  1  0.505267  0  0.301665  0.279676  0  0.995163  0
H  H95  1  0.81370674  0.83234372  0.87728871  1  0.505266  0  0.301665  0.279635  0  0.995183  0
C  C96  1  0.12371190  0.86961193  0.64125481  1  1.501587  0  0.205466  0.565552  0  4.187883  0
C  C97  1  0.62371093  0.63038560  0.35874449  1  1.501598  0  0.205504  0.565638  0  4.187781  0
C  C98  1  0.87628720  0.13038557  0.14125525  1  1.501577  0  0.205496  0.56564  0  4.187896  0
C  C99  1  0.37628638  0.36961389  0.85874517  1  1.501552  0  0.205425  0.565463  0  4.188122  0
C  C100  1  0.87628630  0.13038408  0.35874542  1  1.50158  0  0.205552  0.56573  0  4.187806  0
C  C101  1  0.37628624  0.36961439  0.64125462  1  1.501571  0  0.205455  0.565594  0  4.188034  0
C  C102  1  0.12371101  0.86961442  0.85874461  1  1.501554  0  0.205441  0.565486  0  4.187984  0
C  C103  1  0.62371593  0.63038808  0.14125469  1  1.501517  0  0.205463  0.565625  0  4.188087  0
C  C104  1  0.11850955  0.85433130  0.69699295  1  -0.001156  0  -0.011408  -0.074487  0  3.937841  0
C  C105  1  0.61851055  0.64567121  0.30300673  1  -0.001446  0  -0.011437  -0.074641  0  3.937984  0
C  C106  1  0.88149064  0.14566893  0.19699337  1  -0.001155  0  -0.011396  -0.07454  0  3.937888  0
C  C107  1  0.38149080  0.35433152  0.80300742  1  -0.001175  0  -0.011393  -0.074466  0  3.937897  0
C  C108  1  0.88148866  0.14566968  0.30300691  1  -0.001445  0  -0.011398  -0.074581  0  3.937909  0
C  C109  1  0.38148663  0.35432779  0.69699276  1  -0.001474  0  -0.011453  -0.074559  0  3.937922  0
C  C110  1  0.11850859  0.85432907  0.80300724  1  -0.001165  0  -0.011421  -0.074536  0  3.937887  0
C  C111  1  0.61851049  0.64567045  0.19699244  1  -0.001178  0  -0.011385  -0.074501  0  3.937836  0
C  C112  1  0.05010628  0.74844251  0.72287609  1  -0.132703  0  -0.002092  0.05405  0  3.943807  0
C  C113  1  0.55010714  0.75155709  0.27712320  1  -0.132425  0  -0.002073  0.054089  0  3.943875  0
C  C114  1  0.94989702  0.25155363  0.22287571  1  0.028979  0  -0.002048  0.054091  0  3.94393  0
C  C115  1  0.44989418  0.24844576  0.77712397  1  0.028984  0  -0.002079  0.054048  0  3.94388  0
C  C116  1  0.94989295  0.25155549  0.27712377  1  -0.13243  0  -0.002069  0.054139  0  3.944018  0
C  C117  1  0.44989415  0.24844589  0.72287666  1  -0.132443  0  -0.002052  0.054118  0  3.943991  0
C  C118  1  0.05010631  0.74844139  0.77712415  1  0.028821  0  -0.002101  0.054055  0  3.943791  0
C  C119  1  0.55010608  0.75155622  0.22287552  1  0.028927  0  -0.002096  0.054048  0  3.943776  0
C  C120  1  0.98708504  0.64040280  0.69738687  1  -0.040495  0  -0.091935  -0.13117  0  3.966248  0
C  C121  1  0.48708458  0.85959734  0.30261249  1  -0.040313  0  -0.091907  -0.131092  0  3.966127  0
C  C122  1  0.01291618  0.35959544  0.19738664  1  -0.040498  0  -0.091965  -0.131226  0  3.966314  0
C  C123  1  0.51291368  0.14040340  0.80261372  1  -0.040492  0  -0.091973  -0.13124  0  3.966215  0
C  C124  1  0.01291829  0.35959321  0.30261299  1  -0.040488  0  -0.091994  -0.131314  0  3.966421  0
C  C125  1  0.51291772  0.14040563  0.69738774  1  -0.040356  0  -0.091991  -0.131306  0  3.966272  0
C  C126  1  0.98708305  0.64040156  0.80261284  1  -0.040323  0  -0.091931  -0.131191  0  3.966285  0
C  C127  1  0.48708452  0.85959858  0.19738614  1  -0.040452  0  -0.091934  -0.131176  0  3.96624  0
C  C128  1  0.92613823  0.53782187  0.72357874  1  0.096697  0  -0.092065  -0.081142  0  4.0214  0
C  C129  1  0.42613763  0.96217833  0.27642061  1  -0.076634  0  -0.09205  -0.081134  0  4.021383  0
C  C130  1  0.07386200  0.46217425  0.22357921  1  -0.076665  0  -0.09202  -0.081035  0  4.021313  0
C  C131  1  0.57386368  0.03782651  0.77642154  1  0.096696  0  -0.092055  -0.08114  0  4.021347  0
C  C132  1  0.07386203  0.46217413  0.27642075  1  0.096694  0  -0.092031  -0.081059  0  4.02139  0
C  C133  1  0.57386365  0.03782763  0.72357962  1  -0.076654  0  -0.092011  -0.080991  0  4.021271  0
C  C134  1  0.92613826  0.53782175  0.77642065  1  -0.076685  0  -0.092053  -0.081089  0  4.021418  0
C  C135  1  0.42613760  0.96217746  0.22357832  1  0.096718  0  -0.09208  -0.081134  0  4.02149  0
C  C136  1  0.18750457  0.95177813  0.72379548  1  0.080742  0  -0.085482  -0.094908  0  4.003981  0
C  C137  1  0.68750462  0.54822232  0.27620346  1  -0.094221  0  -0.085468  -0.09479  0  4.003972  0
C  C138  1  0.81249668  0.04821899  0.22379634  1  -0.094191  0  -0.085502  -0.094853  0  4.004005  0
C  C139  1  0.31249567  0.45177755  0.77620370  1  -0.094209  0  -0.085448  -0.094798  0  4.003954  0
C  C140  1  0.81249774  0.04821987  0.27620438  1  0.080677  0  -0.085519  -0.094875  0  4.00405  0
C  C141  1  0.31249564  0.45177668  0.72379565  1  0.080712  0  -0.085465  -0.094872  0  4.003958  0
C  C142  1  0.18750358  0.95177701  0.77620352  1  -0.094193  0  -0.085473  -0.094865  0  4.004005  0
C  C143  1  0.68750356  0.54822244  0.22379579  1  0.080723  0  -0.085487  -0.094889  0  4.004022  0
C  C144  1  0.33085190  0.76013688  0.49128626  1  0.956292  0  0.159772  0.160703  0  3.894115  0
C  C145  1  0.83085202  0.73986243  0.50871345  1  0.955964  0  0.159803  0.160674  0  3.894144  0
C  C146  1  0.66914249  0.23986201  0.99128670  1  0.956331  0  0.159841  0.160816  0  3.894244  0
C  C147  1  0.16914179  0.26013767  0.00871331  1  0.956389  0  0.159837  0.16078  0  3.894282  0
C  C148  1  0.66914733  0.23986211  0.50871285  1  0.955961  0  0.159785  0.160703  0  3.894111  0
C  C149  1  0.16914721  0.26013756  0.49128641  1  0.955942  0  0.15976  0.160643  0  3.89419  0
C  C150  1  0.33085571  0.76013798  0.00871353  1  0.956171  0  0.159818  0.160825  0  3.894171  0
C  C151  1  0.83085641  0.73986132  0.99128618  1  0.956351  0  0.159821  0.160824  0  3.894207  0
C  C152  1  0.23384933  0.62526832  0.54238899  1  0.973898  0  0.160806  0.170765  0  3.922527  0
C  C153  1  0.73385027  0.87473008  0.45761146  1  0.97392  0  0.160772  0.17077  0  3.922664  0
C  C154  1  0.76614349  0.37472764  0.04239112  1  0.973858  0  0.160705  0.170708  0  3.922632  0
C  C155  1  0.26614408  0.12527294  0.95760891  1  0.973863  0  0.160738  0.170795  0  3.922506  0
C  C156  1  0.76614785  0.37473067  0.45761087  1  0.973837  0  0.160788  0.170781  0  3.922637  0
C  C157  1  0.26614896  0.12526891  0.54238878  1  0.97392  0  0.160771  0.170756  0  3.922634  0
C  C158  1  0.23385574  0.62527235  0.95760874  1  0.97387  0  0.160714  0.170736  0  3.92267  0
C  C159  1  0.73385617  0.87472705  0.04239133  1  0.973848  0  0.160721  0.170753  0  3.922587  0
C  C160  1  0.11328864  0.61767971  0.39833645  1  1.832644  0  0.311283  0.616387  0  4.239832  0
C  C161  1  0.61329282  0.88232180  0.60166247  1  1.832294  0  0.311314  0.616535  0  4.239733  0
C  C162  1  0.88670974  0.38232258  0.89833833  1  1.832681  0  0.311367  0.616641  0  4.239819  0
C  C163  1  0.38670828  0.11768085  0.10166171  1  1.832066  0  0.31135  0.616656  0  4.239813  0
C  C164  1  0.88670751  0.38232227  0.60166340  1  1.832702  0  0.311282  0.616467  0  4.239751  0
C  C165  1  0.38670948  0.11767818  0.39833701  1  1.83266  0  0.311317  0.616608  0  4.239666  0
C  C166  1  0.11328847  0.61768039  0.10166303  1  1.832655  0  0.311299  0.616471  0  4.239734  0
C  C167  1  0.61329403  0.88232013  0.89833815  1  1.832237  0  0.31127  0.616418  0  4.239686  0
C  C168  1  0.00466687  0.78675758  0.35369231  1  0.278987  0  -0.062409  -0.01919  0  3.908  0
C  C169  1  0.50466718  0.71324305  0.64630772  1  0.279006  0  -0.062367  -0.019066  0  3.907958  0
C  C170  1  0.99533454  0.21324193  0.85369244  1  0.279633  0  -0.062356  -0.019103  0  3.907996  0
C  C171  1  0.49533500  0.28675641  0.14630762  1  0.279639  0  -0.062354  -0.019039  0  3.907991  0
C  C172  1  0.99533339  0.21324440  0.64630868  1  0.278976  0  -0.062411  -0.019138  0  3.90807  0
C  C173  1  0.49533307  0.28675793  0.35369251  1  0.278991  0  -0.062365  -0.019109  0  3.908017  0
C  C174  1  0.00466777  0.78675606  0.14630742  1  0.278996  0  -0.062405  -0.019143  0  3.908177  0
C  C175  1  0.50466731  0.71324457  0.85369261  1  0.27959  0  -0.062438  -0.019226  0  3.908054  0
C  C176  1  0.16047104  0.80952650  0.35195234  1  0.281174  0  -0.062036  -0.021886  0  3.891715  0
C  C177  1  0.66047036  0.69047497  0.64804772  1  0.281235  0  -0.062089  -0.021971  0  3.891819  0
C  C178  1  0.83953036  0.19047302  0.85195320  1  0.281099  0  -0.06206  -0.021957  0  3.891808  0
C  C179  1  0.33953080  0.30952549  0.14804721  1  0.281161  0  -0.062064  -0.021931  0  3.891803  0
C  C180  1  0.83952921  0.19047548  0.64804865  1  0.281276  0  -0.061987  -0.021757  0  3.891554  0
C  C181  1  0.33952887  0.30952602  0.35195251  1  0.281217  0  -0.062058  -0.021893  0  3.891755  0
C  C182  1  0.16047092  0.80952597  0.14804703  1  0.28118  0  -0.062047  -0.021919  0  3.891844  0
C  C183  1  0.66047253  0.69047450  0.85195265  1  0.281368  0  -0.061972  -0.02191  0  3.891737  0
N  N184  1  0.22079763  0.74741986  0.52189474  1  -1.240119  0  -0.357653  -0.310331  0  3.566906  0
N  N185  1  0.72079770  0.75257955  0.47810533  1  -1.240154  0  -0.357623  -0.310323  0  3.567076  0
N  N186  1  0.77919312  0.25257619  0.02189583  1  -1.240135  0  -0.35759  -0.31029  0  3.567025  0
N  N187  1  0.27919360  0.24742437  0.97810457  1  -1.240203  0  -0.357575  -0.310282  0  3.567003  0
N  N188  1  0.77920057  0.25258012  0.47810437  1  -1.240129  0  -0.357625  -0.310297  0  3.56708  0
N  N189  1  0.27920050  0.24742043  0.52189453  1  -1.240113  0  -0.357596  -0.310255  0  3.567087  0
N  N190  1  0.22080303  0.74742280  0.97810403  1  -1.24015  0  -0.357594  -0.31036  0  3.567037  0
N  N191  1  0.72080563  0.75257562  0.02189529  1  -1.240168  0  -0.357588  -0.310314  0  3.567012  0
N  N192  1  0.34626744  0.56477323  0.52575206  1  -0.791939  0  -0.255925  -0.188657  0  3.54641  0
N  N193  1  0.84626731  0.93522705  0.47424802  1  -0.791895  0  -0.25594  -0.188762  0  3.546474  0
N  N194  1  0.65372947  0.43522479  0.02575264  1  -0.791992  0  -0.255894  -0.18862  0  3.546454  0
N  N195  1  0.15372809  0.06477490  0.97424699  1  -0.79195  0  -0.255906  -0.188704  0  3.546431  0
N  N196  1  0.65373179  0.43522775  0.47424742  1  -0.791904  0  -0.255919  -0.18863  0  3.546367  0
N  N197  1  0.15373192  0.06477293  0.52575184  1  -0.791951  0  -0.255929  -0.188675  0  3.54644  0
N  N198  1  0.34626874  0.56477320  0.97424759  1  -0.791968  0  -0.255931  -0.188716  0  3.546467  0
N  N199  1  0.84627011  0.93522509  0.02575287  1  -0.791937  0  -0.255916  -0.188673  0  3.546433  0
N  N200  1  0.40768804  0.65082078  0.49282958  1  -0.798057  0  -0.256307  -0.189935  0  3.540299  0
N  N201  1  0.90768906  0.84917945  0.50717052  1  -0.797778  0  -0.256339  -0.189845  0  3.540284  0
N  N202  1  0.59230430  0.34917711  0.99283106  1  -0.797751  0  -0.256376  -0.190075  0  3.540395  0
N  N203  1  0.09230475  0.15082165  0.00716931  1  -0.797786  0  -0.256373  -0.190041  0  3.540398  0
N  N204  1  0.59231016  0.34917921  0.50717028  1  -0.797782  0  -0.256332  -0.190005  0  3.540331  0
N  N205  1  0.09231017  0.15082154  0.49282972  1  -0.797733  0  -0.256308  -0.189918  0  3.540294  0
N  N206  1  0.40769185  0.65082288  0.00716955  1  -0.79774  0  -0.256311  -0.189941  0  3.540311  0
N  N207  1  0.90769448  0.84917734  0.99283092  1  -0.797739  0  -0.256334  -0.190028  0  3.54038  0
N  N208  1  0.99239183  0.68809996  0.39364785  1  -1.234156  0  -0.454161  -0.440666  0  3.440687  0
N  N209  1  0.49239179  0.81190018  0.60635188  1  -1.234101  0  -0.454161  -0.440774  0  3.440554  0
N  N210  1  0.00760963  0.31189838  0.89364776  1  -1.234098  0  -0.454175  -0.440786  0  3.44063  0
N  N211  1  0.50761034  0.18810047  0.10635185  1  -1.233902  0  -0.454164  -0.440769  0  3.440615  0
N  N212  1  0.00760945  0.31190102  0.60635313  1  -1.234071  0  -0.454201  -0.440785  0  3.440543  0
N  N213  1  0.50760949  0.18809981  0.39364798  1  -1.234123  0  -0.454201  -0.440796  0  3.440503  0
N  N214  1  0.99239165  0.68809862  0.10635210  1  -1.234165  0  -0.454109  -0.440638  0  3.440713  0
N  N215  1  0.49239299  0.81190151  0.89364839  1  -1.234136  0  -0.454121  -0.440669  0  3.440687  0
N  N216  1  0.21173928  0.68158418  0.37026299  1  -1.229018  0  -0.44244  -0.431928  0  3.461356  0
N  N217  1  0.71173946  0.81841724  0.62973595  1  -1.229033  0  -0.442476  -0.432004  0  3.461385  0
N  N218  1  0.78826010  0.31841526  0.87026415  1  -1.229003  0  -0.44249  -0.432064  0  3.461394  0
N  N219  1  0.28826065  0.18158429  0.12973551  1  -1.229021  0  -0.442448  -0.432016  0  3.461416  0
N  N220  1  0.78825995  0.31841780  0.62973687  1  -1.229061  0  -0.442461  -0.431986  0  3.461314  0
N  N221  1  0.28826080  0.18158275  0.37026391  1  -1.229025  0  -0.442479  -0.43205  0  3.461367  0
N  N222  1  0.21174016  0.68158473  0.12973684  1  -1.229027  0  -0.442429  -0.431951  0  3.461308  0
N  N223  1  0.71174063  0.81841768  0.87026435  1  -1.229064  0  -0.442437  -0.431854  0  3.461365  0
O  O224  1  0.02003832  0.83408723  0.61379883  1  -1.170538  0  -0.316624  -0.531265  0  2.286461  0
O  O225  1  0.52003939  0.66591338  0.38620158  1  -1.17053  0  -0.316632  -0.531271  0  2.286443  0
O  O226  1  0.97995870  0.16591138  0.11379888  1  -1.170477  0  -0.316673  -0.531285  0  2.286426  0
O  O227  1  0.47995795  0.33408598  0.88620155  1  -1.170462  0  -0.316648  -0.531207  0  2.286455  0
O  O228  1  0.97995989  0.16590977  0.38620141  1  -1.170475  0  -0.316718  -0.531347  0  2.286354  0
O  O229  1  0.47995881  0.33408561  0.61379865  1  -1.170474  0  -0.31663  -0.531242  0  2.286454  0
O  O230  1  0.02003951  0.83408761  0.88620173  1  -1.170503  0  -0.316617  -0.531193  0  2.286502  0
O  O231  1  0.52004231  0.66591500  0.11379868  1  -1.170462  0  -0.316651  -0.5313  0  2.286483  0
O  O232  1  0.22798435  0.92290013  0.62177371  1  -1.191606  0  -0.311091  -0.557978  0  2.239013  0
O  O233  1  0.72798449  0.57709928  0.37822523  1  -1.191591  0  -0.311136  -0.558035  0  2.238904  0
O  O234  1  0.77201575  0.07709547  0.12177417  1  -1.191635  0  -0.311062  -0.557996  0  2.239041  0
O  O235  1  0.27201490  0.42290510  0.87822623  1  -1.19164  0  -0.311064  -0.557975  0  2.239152  0
O  O236  1  0.77201591  0.07709588  0.37822615  1  -1.191645  0  -0.311076  -0.558018  0  2.239115  0
O  O237  1  0.27201372  0.42290469  0.62177425  1  -1.191649  0  -0.311067  -0.558003  0  2.239135  0
O  O238  1  0.22798450  0.92290253  0.87822532  1  -1.191595  0  -0.311081  -0.557967  0  2.239009  0
O  O239  1  0.72798536  0.57709489  0.12177400  1  -1.191638  0  -0.311066  -0.557994  0  2.239132  0
O  O240  1  0.12914100  0.51388666  0.42326456  1  -1.221086  0  -0.344712  -0.589114  0  2.120262  0
O  O241  1  0.62914196  0.98611484  0.57673549  1  -1.220787  0  -0.344685  -0.589097  0  2.120303  0
O  O242  1  0.87085844  0.48610856  0.92326337  1  -1.221177  0  -0.344724  -0.589137  0  2.120566  0
O  O243  1  0.37085912  0.01388693  0.07673554  1  -1.220775  0  -0.344741  -0.589189  0  2.120408  0
O  O244  1  0.87085926  0.48611333  0.57673492  1  -1.221172  0  -0.34468  -0.589087  0  2.120334  0
O  O245  1  0.37086138  0.01388614  0.42326475  1  -1.221139  0  -0.344672  -0.589135  0  2.120308  0
O  O246  1  0.12914181  0.51388646  0.07673574  1  -1.221101  0  -0.344747  -0.589156  0  2.120228  0
O  O247  1  0.62914524  0.98611505  0.92326469  1  -1.220752  0  -0.344688  -0.589082  0  2.120251  0
