# generated using pymatgen
data_MnH19C23(NO)5
_symmetry_space_group_name_H-M   'P 1'
_cell_length_a   7.43850479
_cell_length_b   7.63079185
_cell_length_c   10.58849303
_cell_angle_alpha   82.18179621
_cell_angle_beta   74.55137176
_cell_angle_gamma   62.99046283
_symmetry_Int_Tables_number   1
_chemical_formula_structural   MnH19C23(NO)5
_chemical_formula_sum   'Mn1 H19 C23 N5 O5'
_cell_volume   516.04191439
_cell_formula_units_Z   1
loop_
 _symmetry_equiv_pos_site_id
 _symmetry_equiv_pos_as_xyz
  1  'x, y, z'
loop_
 _atom_site_type_symbol
 _atom_site_label
 _atom_site_symmetry_multiplicity
 _atom_site_fract_x
 _atom_site_fract_y
 _atom_site_fract_z
 _atom_site_occupancy
 _atom_site_pbe_cm5_charge
 _atom_site_pbe_ddec_charge
 _atom_site_pbe_ddec_spin_density
 _atom_site_pbe_ddec_sum_bond_order
 _atom_site_pbe_magmom
Mn  Mn0  1  0.04381686  0.49558061  0.45946764  1  0.627122  0.921923  4.609978  2.467291  4.397
H  H1  1  0.50480141  0.46702470  0.46466409  1  0.309518  0.259043  -5e-06  1.034471  0.001
H  H2  1  0.13351734  0.09287302  0.50291843  1  0.291142  0.314273  0.001619  1.044038  0.002
H  H3  1  0.46852652  0.95006375  0.50328719  1  0.092013  0.087934  0.000247  1.025762  0.0
H  H4  1  0.50420072  0.14091267  0.39730292  1  0.095032  0.093939  -0.000208  1.044089  0.0
H  H5  1  0.47399853  0.95310265  0.33332388  1  0.085328  0.081923  0.000658  1.021629  0.001
H  H6  1  0.22212447  0.24894444  0.06100197  1  0.112336  0.128757  -1.8e-05  0.983588  0.0
H  H7  1  0.12581020  0.07341650  0.26474029  1  0.108431  0.10864  -0.00032  1.009242  0.0
H  H8  1  0.84868919  0.96709670  0.29046750  1  0.103287  0.10612  -0.000473  1.050627  0.0
H  H9  1  0.65150915  0.04963156  0.11559617  1  0.105073  0.103692  -2e-05  1.011653  0.0
H  H10  1  0.60608452  0.19561254  0.89301868  1  0.113758  0.112092  6.2e-05  1.009461  0.0
H  H11  1  0.80434212  0.67419882  0.10178145  1  0.102755  0.103936  8.1e-05  1.027753  0.0
H  H12  1  0.76358222  0.81118400  0.87747671  1  0.098374  0.102561  2.7e-05  1.007274  0.0
H  H13  1  0.56721256  0.90194194  0.70413686  1  0.094288  0.09182  -0.000252  1.044655  0.0
H  H14  1  0.24503977  0.85363428  0.74387373  1  0.092387  0.094135  0.00076  1.057081  0.0
H  H15  1  0.12737217  0.70633025  0.95185531  1  0.096082  0.098998  4e-06  1.0081  0.0
H  H16  1  0.16349315  0.58072557  0.17783668  1  0.102841  0.126535  0.001063  1.052212  0.0
H  H17  1  0.35556458  0.50814838  0.65806220  1  0.108714  0.154305  0.000365  1.007388  0.001
H  H18  1  0.40984883  0.34946480  0.79264106  1  0.096138  0.139556  0.000417  1.039304  0.0
H  H19  1  0.48878151  0.25137621  0.63387729  1  0.107548  0.158943  0.000498  0.976369  0.001
C  C20  1  0.42498119  0.04592288  0.41856289  1  -0.154972  -0.117979  0.003932  3.913502  0.004
C  C21  1  0.95902758  0.38022025  0.75885814  1  0.249713  0.532523  0.012455  4.028863  0.012
C  C22  1  0.99282561  0.24218508  0.97559417  1  0.102546  0.237422  0.003866  4.002667  0.003
C  C23  1  0.09998826  0.20220524  0.07350701  1  -0.089343  -0.18638  -0.000429  3.965272  0.0
C  C24  1  0.04489705  0.10416068  0.18647118  1  -0.068544  -0.017839  0.003506  3.936618  0.003
C  C25  1  0.88477090  0.04741739  0.20179881  1  -0.089941  -0.09811  -0.000315  3.985914  0.0
C  C26  1  0.77731944  0.09102642  0.10443049  1  -0.077606  -0.097793  0.002971  3.952932  0.002
C  C27  1  0.83002580  0.18985627  0.98819909  1  -0.018497  -0.012428  -0.000666  4.094555  -0.001
C  C28  1  0.72987146  0.23915924  0.88305026  1  -0.046169  -0.058183  0.011707  3.904009  0.009
C  C29  1  0.78650642  0.33312113  0.76945000  1  -0.008726  -0.14686  -0.002738  3.980306  -0.002
C  C30  1  0.67560289  0.38240392  0.66441471  1  0.147138  0.276682  0.015804  3.924897  0.013
C  C31  1  0.72082313  0.53255023  0.33304060  1  0.245381  0.456624  0.010838  4.104699  0.009
C  C32  1  0.59409220  0.58127669  0.23707575  1  -0.031866  -0.163177  0.003796  4.005898  0.003
C  C33  1  0.66268601  0.65635776  0.11673903  1  -0.085112  -0.132443  0.002182  3.999687  0.002
C  C34  1  0.55566217  0.70969136  0.01607321  1  -0.026473  0.03457  0.001586  4.053958  0.001
C  C35  1  0.62228122  0.79169659  0.89432169  1  -0.099935  -0.141072  0.000316  4.013745  0.0
C  C36  1  0.51256237  0.84295450  0.79814507  1  -0.107394  -0.104337  0.001712  4.03277  0.001
C  C37  1  0.33218894  0.81234771  0.82000596  1  -0.098472  -0.075813  0.001165  4.004295  0.001
C  C38  1  0.26595965  0.72994757  0.93629391  1  -0.095788  -0.139498  0.001405  3.967846  0.001
C  C39  1  0.37339797  0.67715707  0.03868113  1  -0.010856  0.100773  0.000594  4.035732  0.0
C  C40  1  0.30481876  0.59989989  0.16049871  1  -0.121895  -0.304574  0.006693  3.953113  0.004
C  C41  1  0.40549861  0.55576063  0.26314528  1  0.08699  0.324965  0.005842  4.104365  0.005
C  C42  1  0.47351978  0.37090847  0.68970911  1  -0.237908  -0.468486  0.001473  3.935797  0.001
N  N43  1  0.75498968  0.43417572  0.54796870  1  -0.204757  -0.184574  0.028663  3.405929  0.017
N  N44  1  0.64531960  0.47541772  0.45469985  1  -0.285812  -0.213655  0.001707  3.628315  0.002
N  N45  1  0.89098490  0.80461849  0.49451122  1  -0.269149  -0.503558  0.014316  2.938506  -0.005
N  N46  1  0.96564531  0.87678874  0.54521942  1  0.086642  0.43421  0.018795  4.491557  0.02
N  N47  1  0.03735850  0.94938714  0.59689094  1  -0.235651  -0.461553  0.056189  2.765738  0.05
O  O48  1  0.03783478  0.45860039  0.66528970  1  -0.262088  -0.470565  0.037721  2.405249  0.022
O  O49  1  0.05011318  0.33582418  0.86376346  1  -0.113016  -0.202595  0.005389  2.578707  0.006
O  O50  1  0.89090969  0.54466078  0.30571256  1  -0.283711  -0.489638  0.044321  2.359107  0.028
O  O51  1  0.33435165  0.49255979  0.37980979  1  -0.335549  -0.539406  0.049313  2.355268  0.032
O  O52  1  0.20570377  0.16996917  0.44473357  1  -0.401347  -0.456379  0.041406  2.495819  0.029
