# generated using pymatgen
data_Zn2H3C12S2BrO7
_symmetry_space_group_name_H-M   'P 1'
_cell_length_a   19.66666087
_cell_length_b   19.69652123
_cell_length_c   33.36906475
_cell_angle_alpha   79.10897360
_cell_angle_beta   79.19383162
_cell_angle_gamma   63.95153104
_symmetry_Int_Tables_number   1
_chemical_formula_structural   Zn2H3C12S2BrO7
_chemical_formula_sum   'Zn16 H24 C96 S16 Br8 O56'
_cell_volume   11323.53868768
_cell_formula_units_Z   8
loop_
 _symmetry_equiv_pos_site_id
 _symmetry_equiv_pos_as_xyz
  1  'x, y, z'
loop_
 _atom_site_type_symbol
 _atom_site_label
 _atom_site_symmetry_multiplicity
 _atom_site_fract_x
 _atom_site_fract_y
 _atom_site_fract_z
 _atom_site_occupancy
 _atom_site_pbe_bader_charge
 _atom_site_pbe_bader_spin_density
 _atom_site_pbe_cm5_charge
 _atom_site_pbe_ddec_charge
 _atom_site_pbe_ddec_spin_density
 _atom_site_pbe_ddec_sum_bond_order
 _atom_site_pbe_magmom
Zn  Zn0  1  0.05689338  0.39938439  0.47838678  1  1.325947  0  0.676675  0.977403  0  2.334915  0
Zn  Zn1  1  0.98466707  0.48343248  0.56025740  1  1.320462  0  0.677565  0.970148  0  2.388864  0
Zn  Zn2  1  0.05784086  0.56129562  0.48248599  1  1.315122  0  0.672814  0.964638  0  2.376117  0
Zn  Zn3  1  0.90083078  0.55437639  0.47994855  1  1.317469  0  0.672844  0.964214  0  2.376814  0
Zn  Zn4  1  0.69425546  0.35043183  0.27155201  1  1.321498  0  0.673967  0.97125  0  2.351547  0
Zn  Zn5  1  0.68922296  0.19013716  0.26701473  1  1.317897  0  0.674646  0.968432  0  2.361713  0
Zn  Zn6  1  0.76934728  0.26553692  0.19079425  1  1.306461  0  0.671857  0.964364  0  2.368502  0
Zn  Zn7  1  0.84774537  0.19547315  0.27323671  1  1.316364  0  0.67337  0.96499  0  2.375816  0
Zn  Zn8  1  0.26673815  0.76668420  0.68927704  1  1.307586  0  0.672341  0.961082  0  2.376924  0
Zn  Zn9  1  0.34875609  0.69608821  0.77137941  1  1.32015  0  0.675848  0.970331  0  2.373043  0
Zn  Zn10  1  0.19286635  0.84752576  0.77142854  1  1.317711  0  0.671091  0.964096  0  2.360775  0
Zn  Zn11  1  0.19145085  0.68719165  0.76618831  1  1.317916  0  0.674591  0.971163  0  2.360744  0
Zn  Zn12  1  0.56070663  0.06010620  0.98332677  1  1.314278  0  0.672195  0.965055  0  2.364666  0
Zn  Zn13  1  0.40120702  0.05506944  0.97815832  1  1.314248  0  0.671701  0.962017  0  2.368512  0
Zn  Zn14  1  0.55446488  0.90148288  0.97793100  1  1.319155  0  0.672355  0.967659  0  2.362009  0
Zn  Zn15  1  0.48411380  0.98341051  0.06038046  1  1.314583  0  0.671958  0.966271  0  2.359257  0
H  H16  1  0.95380229  0.24885365  0.35118216  1  0.099488  0  0.105897  0.115495  0  1.002564  0
H  H17  1  0.74669678  0.45551214  0.35090444  1  0.139015  0  0.116935  0.142188  0  0.978468  0
H  H18  1  0.00086627  0.29785099  0.39926990  1  0.110468  0  0.109434  0.114701  0  0.988168  0
H  H19  1  0.09786290  0.59767523  0.69996937  1  0.109832  0  0.106761  0.117655  0  0.998791  0
H  H20  1  0.20176117  0.70136360  0.59664107  1  0.083775  0  0.115628  0.140292  0  0.981547  0
H  H21  1  0.05011081  0.55054635  0.65124056  1  0.07436  0  0.10925  0.114411  0  0.990757  0
H  H22  1  0.46313655  0.24014883  0.34105999  1  0.145237  0  0.122489  0.148328  0  0.967709  0
H  H23  1  0.47927657  0.70289809  0.60124453  1  0.115679  0  0.122959  0.148984  0  0.967614  0
H  H24  1  0.20304483  0.97889049  0.60169067  1  0.118671  0  0.122556  0.14837  0  0.9687  0
H  H25  1  0.94865705  0.97011439  0.34797102  1  0.10512  0  0.122505  0.148116  0  0.968546  0
H  H26  1  0.54976914  0.04982865  0.15271292  1  0.104203  0  0.106364  0.116844  0  0.998956  0
H  H27  1  0.65296405  0.15329683  0.04892043  1  0.091794  0  0.116529  0.141795  0  0.978986  0
H  H28  1  0.59848265  0.09834368  0.20019754  1  0.102204  0  0.109101  0.114322  0  0.989469  0
H  H29  1  0.54755111  0.77054515  0.14833746  1  0.121884  0  0.122364  0.148416  0  0.968671  0
H  H30  1  0.16295516  0.14132696  0.04058229  1  0.139709  0  0.122712  0.14866  0  0.968142  0
H  H31  1  0.50118627  0.79617630  0.89888115  1  0.093334  0  0.10753  0.118098  0  0.998437  0
H  H32  1  0.29466418  0.00346276  0.89905207  1  0.092021  0  0.1157  0.140251  0  0.980616  0
H  H33  1  0.45173209  0.74974138  0.85074275  1  0.074496  0  0.109509  0.114915  0  0.988795  0
H  H34  1  0.30090926  0.27974132  0.90216675  1  0.141657  0  0.121971  0.147165  0  0.968389  0
H  H35  1  0.78678426  0.00959396  0.90897161  1  0.147438  0  0.12295  0.14867  0  0.967303  0
H  H36  1  0.80971817  0.52756335  0.41863649  1  0.646813  0  0.307633  0.357431  0  0.963355  0
H  H37  1  0.13613246  0.63636873  0.52654371  1  0.647536  0  0.307059  0.35645  0  0.963191  0
H  H38  1  0.72322478  0.22301025  0.11427056  1  0.661195  0  0.306883  0.356654  0  0.963723  0
H  H39  1  0.22182273  0.94081003  0.83145531  1  0.641898  0  0.308358  0.358832  0  0.95937  0
C  C40  1  0.06172106  0.31598145  0.56173142  1  1.591446  0  0.216405  0.622587  0  4.209463  0
C  C41  1  0.06969727  0.57049534  0.56944632  1  1.489295  0  0.226983  0.614634  0  4.151311  0
C  C42  1  0.18369195  0.43963569  0.43876033  1  1.59076  0  0.215228  0.622544  0  4.207532  0
C  C43  1  0.93696485  0.68406414  0.43889976  1  1.590915  0  0.214724  0.621227  0  4.209307  0
C  C44  1  0.93034081  0.43004119  0.43059304  1  1.498195  0  0.227547  0.618917  0  4.148665  0
C  C45  1  0.81654900  0.56094068  0.56210232  1  1.577946  0  0.215152  0.620742  0  4.21118  0
C  C46  1  0.56556486  0.31145498  0.31130492  1  1.543336  0  0.219266  0.613441  0  4.212722  0
C  C47  1  0.68075626  0.17992077  0.18053397  1  1.505512  0  0.226618  0.616077  0  4.1487  0
C  C48  1  0.68935201  0.43332400  0.18814648  1  1.583551  0  0.215391  0.621484  0  4.207646  0
C  C49  1  0.93488590  0.18748545  0.18974628  1  1.584032  0  0.214314  0.618733  0  4.209335  0
C  C50  1  0.81856877  0.32061730  0.31981470  1  1.566133  0  0.231354  0.607182  0  4.151323  0
C  C51  1  0.81108671  0.06603709  0.31171666  1  1.53923  0  0.220409  0.613311  0  4.212564  0
C  C52  1  0.43381847  0.68958344  0.68819542  1  1.569298  0  0.219295  0.611923  0  4.214988  0
C  C53  1  0.31903998  0.82043129  0.81954206  1  1.513562  0  0.227484  0.616206  0  4.149356  0
C  C54  1  0.18896503  0.93367949  0.68853360  1  1.554123  0  0.218904  0.611856  0  4.215137  0
C  C55  1  0.06614397  0.80969195  0.81120867  1  1.591803  0  0.21422  0.619268  0  4.212172  0
C  C56  1  0.18155403  0.68044985  0.67973281  1  1.534083  0  0.230752  0.605322  0  4.154065  0
C  C57  1  0.31267930  0.56585672  0.81110890  1  1.588753  0  0.215404  0.620085  0  4.209745  0
C  C58  1  0.43837867  0.18392014  0.93863162  1  1.54095  0  0.219338  0.611686  0  4.213273  0
C  C59  1  0.42960281  0.93119046  0.93040617  1  1.564237  0  0.231106  0.606915  0  4.15142  0
C  C60  1  0.68394746  0.93864403  0.93855449  1  1.576662  0  0.219158  0.612198  0  4.212487  0
C  C61  1  0.56137999  0.81618345  0.06140539  1  1.569785  0  0.219476  0.612324  0  4.213799  0
C  C62  1  0.57008094  0.06979815  0.06932629  1  1.53139  0  0.230934  0.607084  0  4.15227  0
C  C63  1  0.31615908  0.06151967  0.06132143  1  1.558534  0  0.219022  0.612826  0  4.214152  0
C  C64  1  0.90088501  0.40342866  0.40208144  1  -0.020504  0  -0.036211  -0.193032  0  3.977043  0
C  C65  1  0.84742234  0.34944518  0.34832969  1  -0.046646  0  -0.010303  -0.003422  0  3.990581  0
C  C66  1  0.82818934  0.44869236  0.38822056  1  0.513772  0  0.097965  0.322091  0  4.047391  0
C  C67  1  0.91956685  0.30433351  0.36181686  1  0.008197  0  -0.098282  -0.134064  0  4.004356  0
C  C68  1  0.80241319  0.42071944  0.36134171  1  -0.020677  0  -0.090617  -0.20954  0  3.906315  0
C  C69  1  0.94534449  0.33155448  0.38834432  1  -0.002806  0  -0.080861  -0.061691  0  4.004365  0
C  C70  1  0.09884459  0.59916892  0.59702117  1  0.019575  0  -0.03555  -0.189936  0  3.976004  0
C  C71  1  0.15259613  0.65219883  0.65100032  1  -0.015893  0  -0.010749  -0.003463  0  3.992115  0
C  C72  1  0.14223205  0.64225301  0.58128662  1  0.53293  0  0.097889  0.321603  0  4.050306  0
C  C73  1  0.10968526  0.60955333  0.66684621  1  -0.078978  0  -0.09667  -0.132758  0  4.00221  0
C  C74  1  0.16861370  0.66838086  0.60877145  1  0.037389  0  -0.091728  -0.210753  0  3.909463  0
C  C75  1  0.08342582  0.58366868  0.63989828  1  0.03041  0  -0.080353  -0.06169  0  4.003911  0
C  C76  1  0.30470880  0.45509572  0.40100896  1  0.027176  0  -0.02272  0.060681  0  4.00338  0
C  C77  1  0.44602779  0.29691645  0.34899717  1  0.037715  0  -0.087142  -0.131482  0  3.956586  0
C  C78  1  0.25850843  0.41618544  0.41402511  1  -0.143265  0  -0.031062  -0.176141  0  3.953327  0
C  C79  1  0.49082329  0.33686108  0.33643178  1  -0.173543  0  -0.022008  -0.115747  0  3.971708  0
C  C80  1  0.37794926  0.33998858  0.37259641  1  -0.16194  0  -0.019593  0.005116  0  4.068842  0
C  C81  1  0.37272398  0.41179443  0.37739926  1  -0.150383  0  -0.029896  -0.073907  0  4.097161  0
C  C82  1  0.72588381  0.57560240  0.63017995  1  -0.033254  0  -0.022703  0.060534  0  4.003761  0
C  C83  1  0.52407809  0.67380413  0.62122462  1  0.007328  0  -0.086689  -0.132392  0  3.95678  0
C  C84  1  0.74266281  0.58503389  0.58763003  1  -0.129129  0  -0.030971  -0.175511  0  3.956817  0
C  C85  1  0.50898903  0.66383168  0.66360814  1  -0.079761  0  -0.022061  -0.113354  0  3.972058  0
C  C86  1  0.60333358  0.64153553  0.60891530  1  -0.171011  0  -0.01949  0.004618  0  4.069111  0
C  C87  1  0.64654302  0.60775162  0.64236464  1  -0.099303  0  -0.029173  -0.07141  0  4.095759  0
C  C88  1  0.07595074  0.22544943  0.62996272  1  -0.01673  0  -0.02209  0.061847  0  4.000871  0
C  C89  1  0.17399705  0.02377442  0.62152180  1  0.007199  0  -0.087139  -0.131906  0  3.959536  0
C  C90  1  0.08554166  0.24208999  0.58738616  1  -0.127166  0  -0.03085  -0.175927  0  3.954008  0
C  C91  1  0.16378102  0.00883857  0.66391315  1  -0.08289  0  -0.02201  -0.114023  0  3.972565  0
C  C92  1  0.14191270  0.10290572  0.60902725  1  -0.163869  0  -0.019916  0.004234  0  4.072833  0
C  C93  1  0.10804255  0.14621783  0.64233882  1  -0.104564  0  -0.029601  -0.072197  0  4.096554  0
C  C94  1  0.84253297  0.80085925  0.39696920  1  -0.057265  0  -0.022437  0.060026  0  4.006382  0
C  C95  1  0.90433425  0.94963242  0.35250705  1  0.08218  0  -0.086288  -0.12977  0  3.954813  0
C  C96  1  0.91096109  0.75830319  0.41366719  1  -0.111878  0  -0.030758  -0.17559  0  3.953898  0
C  C97  1  0.83563715  0.99089594  0.33642385  1  -0.16451  0  -0.022223  -0.114649  0  3.971106  0
C  C98  1  0.90709617  0.88006083  0.37461449  1  -0.170296  0  -0.019184  0.004708  0  4.066959  0
C  C99  1  0.84023084  0.87020261  0.37474809  1  -0.100662  0  -0.029966  -0.072088  0  4.09747  0
C  C100  1  0.65278554  0.15263132  0.15158607  1  -0.031318  0  -0.035926  -0.190827  0  3.976588  0
C  C101  1  0.59866036  0.09871998  0.09801209  1  -0.027277  0  -0.010901  -0.004401  0  3.988092  0
C  C102  1  0.66831632  0.16848064  0.10830702  1  0.579225  0  0.097571  0.321596  0  4.048397  0
C  C103  1  0.58287151  0.08294169  0.14085014  1  -0.039761  0  -0.098139  -0.134307  0  4.005141  0
C  C104  1  0.64080026  0.14104042  0.08200155  1  0.060922  0  -0.090409  -0.209508  0  3.903368  0
C  C105  1  0.60984316  0.10981625  0.16696833  1  -0.064799  0  -0.081348  -0.063399  0  4.008737  0
C  C106  1  0.67405974  0.52401865  0.11985043  1  -0.026775  0  -0.023124  0.059863  0  4.005032  0
C  C107  1  0.57648424  0.72574847  0.12844268  1  0.009275  0  -0.087195  -0.132525  0  3.957904  0
C  C108  1  0.66483354  0.50722276  0.16242298  1  -0.125974  0  -0.03117  -0.176032  0  3.95232  0
C  C109  1  0.58652164  0.74091539  0.08605482  1  -0.079252  0  -0.021852  -0.113402  0  3.967287  0
C  C110  1  0.60837822  0.64654327  0.14086909  1  -0.179652  0  -0.019597  0.005338  0  4.068028  0
C  C111  1  0.64199158  0.60330978  0.10751564  1  -0.103361  0  -0.029947  -0.073465  0  4.096706  0
C  C112  1  0.08253404  0.12332711  0.17835123  1  0.002433  0  -0.022853  0.060446  0  4.004074  0
C  C113  1  0.17042791  0.12480567  0.07299445  1  0.076706  0  -0.086196  -0.131039  0  3.954494  0
C  C114  1  0.01027630  0.16215659  0.16551519  1  -0.174319  0  -0.03117  -0.174438  0  3.950459  0
C  C115  1  0.24155480  0.08607903  0.08665441  1  -0.220014  0  -0.022362  -0.114115  0  3.967287  0
C  C116  1  0.11214644  0.13850876  0.10643781  1  -0.147717  0  -0.018649  0.006146  0  4.064006  0
C  C117  1  0.14058792  0.10975399  0.14480150  1  -0.165277  0  -0.030869  -0.073787  0  4.098436  0
C  C118  1  0.34615084  0.84979908  0.84788435  1  -0.002003  0  -0.035928  -0.19109  0  3.97614  0
C  C119  1  0.40069471  0.90265062  0.90172968  1  -0.027244  0  -0.01042  -0.00428  0  3.9898  0
C  C120  1  0.30113977  0.92235011  0.86171634  1  0.505241  0  0.096903  0.319321  0  4.053277  0
C  C121  1  0.44560788  0.83063151  0.88824150  1  0.010268  0  -0.097167  -0.132761  0  4.000136  0
C  C122  1  0.32934922  0.94786945  0.88860914  1  -0.00989  0  -0.092032  -0.210584  0  3.909001  0
C  C123  1  0.41814709  0.80516852  0.86165589  1  0.030757  0  -0.080566  -0.062058  0  4.001747  0
C  C124  1  0.40722082  0.44879305  0.85293125  1  -0.009638  0  -0.023013  0.059291  0  4.005213  0
C  C125  1  0.34527617  0.30017372  0.89758728  1  0.102648  0  -0.086583  -0.130393  0  3.955624  0
C  C126  1  0.33878456  0.49139883  0.83625391  1  -0.164358  0  -0.030454  -0.173081  0  3.951079  0
C  C127  1  0.41394986  0.25887271  0.91370287  1  -0.190837  0  -0.022367  -0.114412  0  3.970577  0
C  C128  1  0.34267520  0.36958395  0.87530765  1  -0.156894  0  -0.019741  0.004384  0  4.068473  0
C  C129  1  0.40958237  0.37937907  0.87513263  1  -0.136675  0  -0.029875  -0.071855  0  4.096169  0
C  C130  1  0.94510560  0.79438730  0.84919284  1  0.021193  0  -0.022605  0.061446  0  4.003351  0
C  C131  1  0.80383625  0.95280517  0.90107439  1  0.091517  0  -0.086452  -0.130055  0  3.954565  0
C  C132  1  0.99140277  0.83315504  0.83609420  1  -0.134959  0  -0.031183  -0.175868  0  3.952307  0
C  C133  1  0.75891873  0.91298492  0.91362958  1  -0.214499  0  -0.021844  -0.114921  0  3.971054  0
C  C134  1  0.87192340  0.90960933  0.87750866  1  -0.190621  0  -0.019733  0.004569  0  4.067834  0
C  C135  1  0.87708585  0.83780140  0.87275749  1  -0.170782  0  -0.030055  -0.073682  0  4.097165  0
S  S136  1  0.29888370  0.32644603  0.39724230  1  0.29424  0  0.089059  0.139601  0  2.731034  0
S  S137  1  0.45101952  0.42651383  0.35301349  1  0.308115  0  0.090825  0.1426  0  2.775703  0
S  S138  1  0.66091634  0.63328266  0.56268500  1  0.283949  0  0.090465  0.1417  0  2.733153  0
S  S139  1  0.59017960  0.61544215  0.68879530  1  0.280889  0  0.090437  0.141391  0  2.778469  0
S  S140  1  0.13386592  0.16028557  0.56269105  1  0.280184  0  0.088845  0.139187  0  2.733079  0
S  S141  1  0.11542250  0.09008435  0.68887113  1  0.278659  0  0.090864  0.142332  0  2.775762  0
S  S142  1  0.97237426  0.80358559  0.40191223  1  0.275905  0  0.09039  0.141749  0  2.72957  0
S  S143  1  0.77415805  0.94597285  0.34783998  1  0.30925  0  0.088475  0.138343  0  2.777965  0
S  S144  1  0.61657168  0.58902284  0.18717742  1  0.286808  0  0.089636  0.140457  0  2.730034  0
S  S145  1  0.63449948  0.65966328  0.06102667  1  0.274712  0  0.089428  0.140084  0  2.775206  0
S  S146  1  0.01394517  0.18199965  0.11212914  1  0.305149  0  0.090965  0.141776  0  2.728128  0
S  S147  1  0.23844440  0.06599734  0.13988577  1  0.34186  0  0.087171  0.137227  0  2.778051  0
S  S148  1  0.27740275  0.44609871  0.84800530  1  0.287602  0  0.088469  0.138276  0  2.732473  0
S  S149  1  0.47558710  0.30363570  0.90210333  1  0.29557  0  0.088497  0.138954  0  2.777567  0
S  S150  1  0.95109081  0.92297129  0.85281685  1  0.300377  0  0.089993  0.14105  0  2.730129  0
S  S151  1  0.79867733  0.82327244  0.89712009  1  0.304629  0  0.088994  0.140105  0  2.777495  0
Br  Br152  1  0.28483065  0.55264643  0.41183781  1  0.010665  0  0.0486  -0.004378  0  1.399344  0
Br  Br153  1  0.79547797  0.52715898  0.66914679  1  0.016139  0  0.046095  -0.007958  0  1.406647  0
Br  Br154  1  0.02763089  0.29502785  0.66880889  1  0.016115  0  0.046024  -0.008231  0  1.407006  0
Br  Br155  1  0.76022300  0.77458865  0.40154125  1  0.011221  0  0.049086  -0.003442  0  1.398451  0
Br  Br156  1  0.72185915  0.45445515  0.08098827  1  0.018384  0  0.047731  -0.005032  0  1.398307  0
Br  Br157  1  0.10625521  0.09046332  0.23265399  1  0.005525  0  0.04244  -0.011707  0  1.394073  0
Br  Br158  1  0.48969287  0.47485707  0.84835363  1  0.009114  0  0.046318  -0.007018  0  1.396368  0
Br  Br159  1  0.96520662  0.69664140  0.83853850  1  0.00656  0  0.044818  -0.009401  0  1.395376  0
O  O160  1  0.00071559  0.49859389  0.49988721  1  -1.230301  0  -0.571177  -1.027394  0  2.529193  0
O  O161  1  0.07869881  0.31404342  0.52279477  1  -1.177973  0  -0.3206  -0.548401  0  2.320778  0
O  O162  1  0.03170864  0.53184198  0.58531228  1  -1.17093  0  -0.308474  -0.530509  0  2.346481  0
O  O163  1  0.15444875  0.50575771  0.45034992  1  -1.171239  0  -0.31837  -0.544588  0  2.393818  0
O  O164  1  0.02657409  0.37515310  0.58026637  1  -1.175161  0  -0.316182  -0.540592  0  2.39491  0
O  O165  1  0.15446984  0.39108200  0.44643675  1  -1.178526  0  -0.320183  -0.548395  0  2.321417  0
O  O166  1  0.08486542  0.58679035  0.53020496  1  -1.165052  0  -0.311031  -0.558306  0  2.369303  0
O  O167  1  0.00367226  0.65870350  0.45011218  1  -1.163351  0  -0.321386  -0.546994  0  2.328407  0
O  O168  1  0.88652641  0.49639048  0.44249603  1  -1.172331  0  -0.312062  -0.559311  0  2.372568  0
O  O169  1  0.89181344  0.65134212  0.44759817  1  -1.168201  0  -0.316632  -0.544138  0  2.390909  0
O  O170  1  0.99578774  0.38748814  0.44190728  1  -1.171637  0  -0.309155  -0.535626  0  2.334076  0
O  O171  1  0.87609499  0.52643194  0.58045993  1  -1.162281  0  -0.315006  -0.540533  0  2.394663  0
O  O172  1  0.81423232  0.57717209  0.52310917  1  -1.167513  0  -0.321715  -0.546947  0  2.328479  0
O  O173  1  0.74941192  0.25047045  0.25075674  1  -1.219676  0  -0.570374  -1.028237  0  2.52446  0
O  O174  1  0.59630923  0.35858713  0.30303094  1  -1.151425  0  -0.317682  -0.544092  0  2.331157  0
O  O175  1  0.66466220  0.16456830  0.21892614  1  -1.179511  0  -0.309554  -0.534352  0  2.335728  0
O  O176  1  0.72551555  0.37384992  0.16985801  1  -1.167728  0  -0.318262  -0.545177  0  2.389237  0
O  O177  1  0.59264024  0.24503780  0.30013054  1  -1.173185  0  -0.315741  -0.538666  0  2.310837  0
O  O178  1  0.67199473  0.43552672  0.22704089  1  -1.171807  0  -0.319554  -0.545552  0  2.323411  0
O  O179  1  0.72067037  0.21840963  0.16468298  1  -1.164586  0  -0.310786  -0.55879  0  2.365698  0
O  O180  1  0.87761059  0.22238418  0.16907869  1  -1.172119  0  -0.321121  -0.545642  0  2.324298  0
O  O181  1  0.86189134  0.25436334  0.30944162  1  -1.174155  0  -0.312916  -0.543473  0  2.343257  0
O  O182  1  0.93253507  0.17295929  0.22869103  1  -1.151181  0  -0.314989  -0.541287  0  2.387488  0
O  O183  1  0.75326931  0.36420269  0.30820045  1  -1.173287  0  -0.312485  -0.543685  0  2.33768  0
O  O184  1  0.74461783  0.09351753  0.30014874  1  -1.172887  0  -0.319335  -0.546437  0  2.33207  0
O  O185  1  0.85808839  0.09672066  0.30415480  1  -1.147829  0  -0.314868  -0.536025  0  2.313685  0
O  O186  1  0.24987101  0.74972796  0.74959597  1  -1.221031  0  -0.57065  -1.028273  0  2.526629  0
O  O187  1  0.37579261  0.72523993  0.66852850  1  -1.174226  0  -0.314898  -0.537078  0  2.314509  0
O  O188  1  0.36210318  0.75542507  0.80796448  1  -1.176895  0  -0.309205  -0.532623  0  2.341221  0
O  O189  1  0.17229638  0.93349454  0.72753770  1  -1.186554  0  -0.320495  -0.546244  0  2.332236  0
O  O190  1  0.43393992  0.67367951  0.72720726  1  -1.171939  0  -0.317899  -0.543169  0  2.335462  0
O  O191  1  0.22486976  0.87586811  0.66886235  1  -1.159034  0  -0.314538  -0.537019  0  2.315855  0
O  O192  1  0.25205202  0.86343686  0.80806616  1  -1.177562  0  -0.311129  -0.560219  0  2.36335  0
O  O193  1  0.09525618  0.85844015  0.80374055  1  -1.174254  0  -0.32209  -0.547456  0  2.325143  0
O  O194  1  0.16610560  0.66314127  0.71812554  1  -1.15462  0  -0.311272  -0.541428  0  2.340254  0
O  O195  1  0.09550693  0.74396713  0.79925242  1  -1.174168  0  -0.314903  -0.541124  0  2.386875  0
O  O196  1  0.21937464  0.71949713  0.66356138  1  -1.170028  0  -0.313759  -0.544361  0  2.343116  0
O  O197  1  0.35788652  0.59852499  0.80272587  1  -1.162301  0  -0.316174  -0.541927  0  2.390186  0
O  O198  1  0.24609616  0.59123428  0.79981662  1  -1.165984  0  -0.320212  -0.545576  0  2.324795  0
O  O199  1  0.50006294  0.00003956  0.99998828  1  -1.225697  0  -0.570076  -1.029741  0  2.521134  0
O  O200  1  0.50528244  0.15608688  0.94965889  1  -1.172092  0  -0.318733  -0.544251  0  2.33143  0
O  O201  1  0.38626789  0.99679776  0.94159924  1  -1.171467  0  -0.313535  -0.545908  0  2.3398  0
O  O202  1  0.65295008  0.89170166  0.94664432  1  -1.15693  0  -0.318353  -0.543859  0  2.330746  0
O  O203  1  0.39090413  0.15375001  0.94690956  1  -1.154489  0  -0.315845  -0.537847  0  2.310806  0
O  O204  1  0.65689350  0.00502196  0.94972418  1  -1.172835  0  -0.315134  -0.537193  0  2.309481  0
O  O205  1  0.49542586  0.88753674  0.94138946  1  -1.173568  0  -0.312051  -0.542112  0  2.335395  0
O  O206  1  0.57725504  0.81623476  0.02240857  1  -1.182509  0  -0.318322  -0.543854  0  2.331583  0
O  O207  1  0.53171699  0.03135002  0.08570534  1  -1.146766  0  -0.312775  -0.54443  0  2.336328  0
O  O208  1  0.52622675  0.87413580  0.08105754  1  -1.174339  0  -0.315729  -0.538507  0  2.309529  0
O  O209  1  0.58634906  0.08576349  0.03086208  1  -1.17567  0  -0.312635  -0.544155  0  2.338387  0
O  O210  1  0.31557548  0.07823396  0.02248393  1  -1.149341  0  -0.314346  -0.536668  0  2.311798  0
O  O211  1  0.37465932  0.02557930  0.08080693  1  -1.177963  0  -0.319172  -0.546146  0  2.330428  0
O  O212  1  0.78191612  0.51806560  0.39969009  1  -1.153142  0  -0.356367  -0.444874  0  2.243737  0
O  O213  1  0.15969895  0.65952808  0.54075499  1  -1.152705  0  -0.356792  -0.445103  0  2.244072  0
O  O214  1  0.70871066  0.20906573  0.09090829  1  -1.160938  0  -0.355559  -0.443782  0  2.244999  0
O  O215  1  0.23169051  0.96869963  0.85015963  1  -1.140147  0  -0.356017  -0.443448  0  2.240387  0
