# generated using pymatgen
data_Zn2H24C41S2N2(O4F3)2
_symmetry_space_group_name_H-M   'P 1'
_cell_length_a   10.98642172
_cell_length_b   21.84511618
_cell_length_c   23.63858391
_cell_angle_alpha   67.95747500
_cell_angle_beta   78.45763485
_cell_angle_gamma   75.06434887
_symmetry_Int_Tables_number   1
_chemical_formula_structural   Zn2H24C41S2N2(O4F3)2
_chemical_formula_sum   'Zn8 H96 C164 S8 N8 O32 F24'
_cell_volume   5046.95791281
_cell_formula_units_Z   4
loop_
 _symmetry_equiv_pos_site_id
 _symmetry_equiv_pos_as_xyz
  1  'x, y, z'
loop_
 _atom_site_type_symbol
 _atom_site_label
 _atom_site_symmetry_multiplicity
 _atom_site_fract_x
 _atom_site_fract_y
 _atom_site_fract_z
 _atom_site_occupancy
 _atom_site_pbe_bader_charge
 _atom_site_pbe_bader_spin_density
 _atom_site_pbe_cm5_charge
 _atom_site_pbe_ddec_charge
 _atom_site_pbe_ddec_spin_density
 _atom_site_pbe_ddec_sum_bond_order
 _atom_site_pbe_magmom
Zn  Zn0  1  0.89137823  0.43873755  0.80641390  1  1.292345  0  0.66871  0.835386  0  2.407666  0
Zn  Zn1  1  0.10862547  0.56126321  0.19358540  1  1.292319  0  0.668656  0.835368  0  2.407718  0
Zn  Zn2  1  0.85769235  0.39173163  0.93913642  1  1.288528  0  0.676379  0.832604  0  2.398086  0
Zn  Zn3  1  0.14231093  0.60826763  0.06086429  1  1.288427  0  0.676371  0.832605  0  2.398148  0
Zn  Zn4  1  0.87996445  0.88915990  0.93339712  1  1.297316  0  0.67816  0.836575  0  2.395688  0
Zn  Zn5  1  0.12002622  0.11084346  0.06660326  1  1.297312  0  0.678124  0.836553  0  2.395707  0
Zn  Zn6  1  0.91277296  0.93999262  0.79963491  1  1.303143  0  0.667873  0.838845  0  2.380272  0
Zn  Zn7  1  0.08722255  0.06000769  0.20036484  1  1.303127  0  0.667888  0.838905  0  2.380256  0
H  H8  1  0.87165441  0.07055403  0.97149254  1  0.094314  0  0.106283  0.111005  0  1.004553  0
H  H9  1  0.12835505  0.92944872  0.02850684  1  0.094337  0  0.106391  0.11113  0  1.004599  0
H  H10  1  0.89750469  0.68747924  0.95936385  1  0.119375  0  0.103174  0.106818  0  1.035969  0
H  H11  1  0.10249899  0.31252153  0.04063629  1  0.119447  0  0.103182  0.106872  0  1.035858  0
H  H12  1  0.90547595  0.14233643  0.77441669  1  0.067834  0  0.096003  0.100307  0  1.019748  0
H  H13  1  0.09453815  0.85766126  0.22558234  1  0.068152  0  0.096069  0.100338  0  1.019791  0
H  H14  1  0.91307387  0.25804680  0.77241964  1  0.083661  0  0.096184  0.098741  0  1.021553  0
H  H15  1  0.08694107  0.74195139  0.22757619  1  0.083819  0  0.096262  0.09875  0  1.021571  0
H  H16  1  0.88850536  0.76202613  0.76414782  1  0.079421  0  0.097573  0.100706  0  1.015242  0
H  H17  1  0.11149587  0.23797365  0.23585331  1  0.079363  0  0.097559  0.100698  0  1.015237  0
H  H18  1  0.87830538  0.57382531  0.96457279  1  0.103509  0  0.105642  0.110164  0  1.009099  0
H  H19  1  0.12169827  0.42617546  0.03542863  1  0.103664  0  0.105634  0.110153  0  1.009074  0
H  H20  1  0.87678767  0.18508952  0.96949119  1  0.103603  0  0.103664  0.108738  0  1.037403  0
H  H21  1  0.12322241  0.81491423  0.03050568  1  0.103233  0  0.103616  0.108732  0  1.037522  0
H  H22  1  0.86500029  0.64740134  0.76982628  1  0.059984  0  0.096701  0.101079  0  1.017448  0
H  H23  1  0.13499926  0.35259794  0.23017558  1  0.05982  0  0.096696  0.101081  0  1.017413  0
H  H24  1  0.79945458  0.22299055  0.15768302  1  0.100963  0  0.107496  0.123622  0  1.011334  0
H  H25  1  0.20053364  0.77700930  0.84231838  1  0.101037  0  0.107552  0.123757  0  1.011181  0
H  H26  1  0.76183380  0.43129036  0.14251334  1  0.106814  0  0.109679  0.118123  0  1.010778  0
H  H27  1  0.23816968  0.56870839  0.85748710  1  0.107232  0  0.109668  0.118131  0  1.010709  0
H  H28  1  0.80378296  0.45906304  0.02956304  1  0.129727  0  0.125168  0.101758  0  0.998234  0
H  H29  1  0.19622647  0.54093468  0.97043724  1  0.12968  0  0.125177  0.101721  0  0.998261  0
H  H30  1  0.83918809  0.26016560  0.04415619  1  0.151116  0  0.125791  0.106147  0  0.98863  0
H  H31  1  0.16080343  0.73983272  0.95584671  1  0.151001  0  0.125799  0.106177  0  0.988565  0
H  H32  1  0.27201713  0.46341584  0.77779678  1  0.083333  0  0.089086  0.095398  0  1.051637  0
H  H33  1  0.72799348  0.53657884  0.22220062  1  0.083275  0  0.089118  0.095465  0  1.051651  0
H  H34  1  0.27988903  0.85378590  0.96354574  1  0.106702  0  0.102968  0.106466  0  1.03138  0
H  H35  1  0.72010150  0.14621796  0.03645321  1  0.105438  0  0.10296  0.106422  0  1.031405  0
H  H36  1  0.25250834  0.35987383  0.97249687  1  0.084887  0  0.102488  0.104675  0  1.041759  0
H  H37  1  0.74749329  0.64012745  0.02750327  1  0.084852  0  0.102484  0.104717  0  1.041704  0
H  H38  1  0.49667959  0.47282084  0.77585898  1  0.094299  0  0.091783  0.095717  0  1.037993  0
H  H39  1  0.50333115  0.52717335  0.22414071  1  0.094248  0  0.091811  0.0957  0  1.037943  0
H  H40  1  0.47326295  0.37308041  0.97124761  1  0.06574  0  0.108596  0.11652  0  0.987233  0
H  H41  1  0.52673775  0.62691836  0.02875264  1  0.065784  0  0.108607  0.116538  0  0.987245  0
H  H42  1  0.29269556  0.96401618  0.76991854  1  0.123886  0  0.091428  0.098842  0  1.037213  0
H  H43  1  0.70730298  0.03598110  0.23007903  1  0.123994  0  0.091442  0.098866  0  1.037185  0
H  H44  1  0.09587949  0.05298019  0.57186401  1  0.102013  0  0.102292  0.119421  0  1.01151  0
H  H45  1  0.90411747  0.94701861  0.42813698  1  0.101988  0  0.102306  0.11948  0  1.011465  0
H  H46  1  0.73216779  0.39959283  0.24276857  1  0.110802  0  0.11003  0.131902  0  1.011019  0
H  H47  1  0.26782077  0.60040602  0.75723398  1  0.110747  0  0.109977  0.131812  0  1.011079  0
H  H48  1  0.09315504  0.96117522  0.67359530  1  0.085821  0  0.12258  0.093563  0  0.97408  0
H  H49  1  0.90683658  0.03882310  0.32640421  1  0.085631  0  0.122566  0.09355  0  0.97412  0
H  H50  1  0.74230510  0.05440530  0.73566648  1  0.156071  0  0.126184  0.109453  0  0.989346  0
H  H51  1  0.25768857  0.94559502  0.26433258  1  0.156119  0  0.12621  0.109467  0  0.989373  0
H  H52  1  0.71327927  0.22446387  0.54885533  1  0.082256  0  0.10337  0.125076  0  1.018094  0
H  H53  1  0.28671973  0.77553441  0.45114567  1  0.08228  0  0.103343  0.125058  0  1.018057  0
H  H54  1  0.73062046  0.15157962  0.63832872  1  0.069732  0  0.10646  0.116757  0  1.006964  0
H  H55  1  0.26937746  0.84842168  0.36167132  1  0.069789  0  0.106367  0.11666  0  1.007024  0
H  H56  1  0.49791027  0.87036070  0.96241309  1  0.06655  0  0.107131  0.115028  0  0.991232  0
H  H57  1  0.50207576  0.12964520  0.03758725  1  0.066362  0  0.107126  0.114992  0  0.991367  0
H  H58  1  0.51315971  0.97882315  0.76853568  1  0.062397  0  0.091404  0.095652  0  1.037298  0
H  H59  1  0.48683672  0.02117716  0.23146441  1  0.062368  0  0.091425  0.095726  0  1.037209  0
H  H60  1  0.10451789  0.27439256  0.36449401  1  0.057885  0  0.09862  0.145449  0  0.977785  0
H  H61  1  0.89547910  0.72560623  0.63550614  1  0.057836  0  0.098618  0.145469  0  0.977805  0
H  H62  1  0.96371803  0.33764952  0.35284297  1  0.093228  0  0.099538  0.148961  0  0.984887  0
H  H63  1  0.03627918  0.66234877  0.64715563  1  0.093186  0  0.099582  0.149034  0  0.984907  0
H  H64  1  0.97987509  0.26597444  0.33191803  1  0.097384  0  0.09976  0.146268  0  0.997701  0
H  H65  1  0.02012355  0.73402233  0.66808267  1  0.052428  0  0.099767  0.146292  0  0.99769  0
H  H66  1  0.66481793  0.14830207  0.39651122  1  0.055306  0  0.09804  0.144604  0  0.974812  0
H  H67  1  0.33518735  0.85169417  0.60349120  1  0.055311  0  0.09805  0.144632  0  0.97481  0
H  H68  1  0.63875108  0.20816500  0.43391169  1  0.054206  0  0.088998  0.137376  0  1.017229  0
H  H69  1  0.36125536  0.79183072  0.56608911  1  0.054234  0  0.088995  0.13739  0  1.017243  0
H  H70  1  0.79370366  0.16226245  0.42197727  1  0.08111  0  0.092321  0.13583  0  1.006678  0
H  H71  1  0.20629987  0.83773630  0.57802147  1  0.081097  0  0.092325  0.135863  0  1.006612  0
H  H72  1  0.79960708  0.71156951  0.14549463  1  0.097605  0  0.106028  0.119371  0  1.021217  0
H  H73  1  0.20039494  0.28843076  0.85450498  1  0.097579  0  0.106037  0.119382  0  1.021199  0
H  H74  1  0.75912520  0.91588374  0.14187047  1  0.093181  0  0.112687  0.122268  0  0.997527  0
H  H75  1  0.24088347  0.08411599  0.85813045  1  0.093094  0  0.112727  0.12229  0  0.997514  0
H  H76  1  0.06973479  0.53274191  0.57509299  1  0.085147  0  0.101089  0.118518  0  1.017038  0
H  H77  1  0.93026482  0.46725737  0.42490634  1  0.085154  0  0.101098  0.118534  0  1.017071  0
H  H78  1  0.07111947  0.44902675  0.68119195  1  0.084054  0  0.118907  0.088854  0  0.98763  0
H  H79  1  0.92888016  0.55097253  0.31880653  1  0.084045  0  0.118906  0.088868  0  0.987614  0
H  H80  1  0.69819699  0.63208290  0.63453279  1  0.096213  0  0.1066  0.116213  0  1.008531  0
H  H81  1  0.30180348  0.36791638  0.36546900  1  0.096211  0  0.106588  0.116212  0  1.008508  0
H  H82  1  0.71494546  0.54318600  0.73683321  1  0.147425  0  0.127108  0.109995  0  0.98574  0
H  H83  1  0.28505598  0.45681327  0.26316723  1  0.147411  0  0.127122  0.109987  0  0.985737  0
H  H84  1  0.68322025  0.70120100  0.54503849  1  0.098578  0  0.103263  0.125095  0  1.020336  0
H  H85  1  0.31678193  0.29880129  0.45496211  1  0.098685  0  0.103298  0.125161  0  1.020252  0
H  H86  1  0.85506840  0.75375141  0.03262842  1  0.152544  0  0.124591  0.104658  0  0.997303  0
H  H87  1  0.14492657  0.24625041  0.96737085  1  0.152516  0  0.124616  0.104681  0  0.997359  0
H  H88  1  0.81652530  0.94902120  0.02909085  1  0.165218  0  0.12551  0.103574  0  0.999291  0
H  H89  1  0.18347576  0.05097908  0.97090969  1  0.165138  0  0.125517  0.103558  0  0.999295  0
H  H90  1  0.07941089  0.74813324  0.36305405  1  0.01619  0  0.09921  0.146615  0  0.976196  0
H  H91  1  0.92058641  0.25186958  0.63694849  1  0.015885  0  0.099224  0.146625  0  0.976192  0
H  H92  1  0.95455112  0.74148283  0.32938630  1  0.087223  0  0.099351  0.145519  0  1.000302  0
H  H93  1  0.04545570  0.25851440  0.67061438  1  0.087204  0  0.099357  0.145484  0  1.000365  0
H  H94  1  0.94037807  0.81265350  0.35080486  1  0.040461  0  0.100275  0.149625  0  0.982393  0
H  H95  1  0.05961675  0.18734630  0.64919300  1  0.040337  0  0.100254  0.149574  0  0.982371  0
H  H96  1  0.71739620  0.88038596  0.24058391  1  0.125663  0  0.110676  0.131568  0  1.008095  0
H  H97  1  0.28261061  0.11961379  0.75941716  1  0.125632  0  0.110688  0.131587  0  1.008064  0
H  H98  1  0.64383575  0.62637151  0.38409797  1  0.052082  0  0.097319  0.145719  0  0.977897  0
H  H99  1  0.35615696  0.37363133  0.61590242  1  0.051979  0  0.097342  0.145732  0  0.97787  0
H  H100  1  0.76443646  0.64066022  0.41512334  1  0.058818  0  0.09193  0.134806  0  1.007585  0
H  H101  1  0.23555303  0.35934113  0.58487954  1  0.058795  0  0.091879  0.134766  0  1.007542  0
H  H102  1  0.60679823  0.68503617  0.42350641  1  0.056624  0  0.090657  0.140114  0  1.00928  0
H  H103  1  0.39319474  0.31496869  0.57649115  1  0.056574  0  0.090665  0.140096  0  1.009331  0
C  C104  1  0.87901581  0.11198955  0.92806338  1  -0.027566  0  -0.081307  -0.090576  0  3.969593  0
C  C105  1  0.12099894  0.88801166  0.07193269  1  -0.027992  0  -0.081382  -0.090535  0  3.969832  0
C  C106  1  0.88971192  0.67855581  0.91802896  1  -0.052748  0  -0.084242  -0.094251  0  3.973706  0
C  C107  1  0.11028911  0.32144448  0.08197285  1  -0.052753  0  -0.084225  -0.094359  0  3.973637  0
C  C108  1  0.89931236  0.15285331  0.81658195  1  0.001039  0  -0.092946  -0.103139  0  3.994418  0
C  C109  1  0.10070252  0.84714488  0.18341599  1  0.00072  0  -0.092983  -0.103125  0  3.994632  0
C  C110  1  0.90344027  0.21631668  0.81544487  1  -0.075967  0  -0.09273  -0.104436  0  4.002086  0
C  C111  1  0.09657655  0.78368149  0.18454994  1  -0.076001  0  -0.092846  -0.104408  0  4.00211  0
C  C112  1  0.88547423  0.72020950  0.80760622  1  -0.104233  0  -0.091836  -0.106988  0  3.999401  0
C  C113  1  0.11452366  0.27979180  0.19239510  1  -0.104171  0  -0.091826  -0.106963  0  3.999425  0
C  C114  1  0.24917608  0.41125123  0.87507788  1  -0.001592  0  -0.023008  -0.040223  0  3.985102  0
C  C115  1  0.75083077  0.58874600  0.12492152  1  -0.002165  0  -0.022905  -0.039833  0  3.98496  0
C  C116  1  0.49729942  0.42393143  0.87350730  1  7.2e-05  0  -0.013142  -0.017026  0  3.95109  0
C  C117  1  0.50270608  0.57606430  0.12649358  1  8.5e-05  0  -0.013202  -0.017164  0  3.951057  0
C  C118  1  0.87877270  0.61549971  0.92099724  1  -0.061849  0  -0.084226  -0.097074  0  3.977219  0
C  C119  1  0.12123282  0.38450105  0.07900359  1  -0.062007  0  -0.084243  -0.09699  0  3.97705  0
C  C120  1  0.88170221  0.17567542  0.92693192  1  -0.033014  0  -0.084758  -0.097217  0  3.973285  0
C  C121  1  0.11831049  0.82432630  0.07306415  1  -0.03279  0  -0.084635  -0.097213  0  3.973551  0
C  C122  1  0.87251298  0.65730886  0.81075135  1  0.018582  0  -0.091739  -0.100611  0  3.989226  0
C  C123  1  0.12749176  0.34269140  0.18925057  1  0.018606  0  -0.091742  -0.100637  0  3.989202  0
C  C124  1  0.89738941  0.29630011  0.86967193  1  1.551618  0  0.213273  0.587532  0  4.183782  0
C  C125  1  0.10262072  0.70370113  0.13032284  1  1.550991  0  0.21346  0.588246  0  4.183245  0
C  C126  1  0.65195453  0.93148987  0.86436288  1  1.583987  0  0.211446  0.590621  0  4.179532  0
C  C127  1  0.34803467  0.06851500  0.13563711  1  1.583673  0  0.211537  0.590798  0  4.179563  0
C  C128  1  0.85853923  0.53654160  0.87071062  1  1.55643  0  0.212939  0.59193  0  4.180854  0
C  C129  1  0.14145972  0.46345668  0.12929249  1  1.556498  0  0.213031  0.592045  0  4.180945  0
C  C130  1  0.51802624  0.92573915  0.86543109  1  -0.122271  0  -0.015429  -0.020717  0  3.949394  0
C  C131  1  0.48196442  0.07426421  0.13456972  1  -0.122298  0  -0.015536  -0.020907  0  3.949515  0
C  C132  1  0.27323633  0.90792164  0.86659508  1  -0.009032  0  -0.022254  -0.035144  0  3.975762  0
C  C133  1  0.72676012  0.09207866  0.13340459  1  -0.008778  0  -0.022207  -0.035098  0  3.975763  0
C  C134  1  0.14128590  0.90013731  0.86668717  1  1.534292  0  0.208435  0.579579  0  4.187886  0
C  C135  1  0.85870894  0.09986250  0.13330985  1  1.535349  0  0.208369  0.579539  0  4.187875  0
C  C136  1  0.90502808  0.79863971  0.85926424  1  1.562409  0  0.213247  0.585611  0  4.187384  0
C  C137  1  0.09496240  0.20136164  0.14073644  1  1.561741  0  0.213206  0.585579  0  4.187277  0
C  C138  1  0.77687510  0.32392148  0.16087590  1  -0.026419  0  0.012556  0.120745  0  4.028245  0
C  C139  1  0.22312114  0.67607681  0.83912448  1  -0.026496  0  0.012595  0.120788  0  4.028252  0
C  C140  1  0.63250388  0.42733714  0.87224493  1  1.56339  0  0.212747  0.59031  0  4.179813  0
C  C141  1  0.36750198  0.57265758  0.12775669  1  1.563154  0  0.212734  0.590411  0  4.179796  0
C  C142  1  0.86910817  0.60465183  0.86748320  1  0.007518  0  -0.016667  -0.026807  0  3.967493  0
C  C143  1  0.13089267  0.39534895  0.13251888  1  0.007611  0  -0.016685  -0.026876  0  3.967404  0
C  C144  1  0.79773562  0.27622924  0.13146549  1  0.021919  0  -0.081859  -0.174789  0  3.920799  0
C  C145  1  0.20225857  0.72376957  0.86853489  1  0.021886  0  -0.082015  -0.175112  0  3.920786  0
C  C146  1  0.88519451  0.03189718  0.87380989  1  1.577184  0  0.215063  0.592449  0  4.178516  0
C  C147  1  0.11480447  0.96810361  0.12619235  1  1.577444  0  0.215092  0.592482  0  4.17833  0
C  C148  1  0.75562967  0.30491729  0.22752314  1  -0.208253  0  -0.011089  -0.013151  0  4.014895  0
C  C149  1  0.24436842  0.69508351  0.77247748  1  -0.208357  0  -0.011085  -0.013113  0  4.014996  0
C  C150  1  0.11611558  0.40543628  0.87507449  1  1.544689  0  0.207838  0.577593  0  4.195223  0
C  C151  1  0.88388999  0.59456447  0.12492423  1  1.544556  0  0.207888  0.577533  0  4.195142  0
C  C152  1  0.88714928  0.10037446  0.87294019  1  -0.059261  0  -0.016282  -0.028734  0  3.97196  0
C  C153  1  0.11286710  0.89962472  0.12705728  1  -0.059072  0  -0.016317  -0.02892  0  3.97221  0
C  C154  1  0.89357405  0.73111220  0.86138200  1  -0.022953  0  -0.017609  -0.028156  0  3.968869  0
C  C155  1  0.10642716  0.26888758  0.13861997  1  -0.022845  0  -0.01757  -0.028093  0  3.96873  0
C  C156  1  0.77786674  0.39132433  0.12330560  1  0.021972  0  -0.074626  -0.155325  0  3.909429  0
C  C157  1  0.22213600  0.60867393  0.87669465  1  0.021489  0  -0.074652  -0.15539  0  3.909297  0
C  C158  1  0.80106447  0.40755022  0.06015085  1  0.463237  0  0.057623  0.104941  0  3.920326  0
C  C159  1  0.19894064  0.59244651  0.93985099  1  0.463448  0  0.057637  0.104991  0  3.920232  0
C  C160  1  0.82044087  0.29646452  0.06787449  1  0.435363  0  0.059265  0.113229  0  3.904274  0
C  C161  1  0.17955572  0.70353277  0.93212663  1  0.435427  0  0.059348  0.113382  0  3.90428  0
C  C162  1  0.31765689  0.44365695  0.81966809  1  -0.049158  0  -0.098667  -0.117321  0  4.021657  0
C  C163  1  0.68235200  0.55633724  0.18033133  1  -0.048724  0  -0.09877  -0.117719  0  4.021991  0
C  C164  1  0.68905728  0.34386450  0.37228196  1  -0.023443  0  -0.005942  -0.062968  0  3.93591  0
C  C165  1  0.31093576  0.65613231  0.62771964  1  -0.023405  0  -0.005921  -0.062939  0  3.935711  0
C  C166  1  0.72465535  0.24118873  0.34071882  1  -0.176529  0  -0.00105  0.060586  0  3.922188  0
C  C167  1  0.27534569  0.75880904  0.65928260  1  -0.176473  0  -0.001086  0.060546  0  3.922227  0
C  C168  1  0.33082918  0.88158459  0.92100095  1  -0.109908  0  -0.087173  -0.099375  0  3.9713  0
C  C169  1  0.66916279  0.11841776  0.07899925  1  -0.108921  0  -0.087121  -0.099265  0  3.971177  0
C  C170  1  0.30559555  0.38549924  0.92973286  1  -0.040858  0  -0.085596  -0.096245  0  3.970418  0
C  C171  1  0.69440647  0.61449852  0.07026678  1  -0.040875  0  -0.085617  -0.096417  0  3.970412  0
C  C172  1  0.44126833  0.44932182  0.81875712  1  -0.072676  0  -0.093409  -0.106273  0  4.000427  0
C  C173  1  0.55874032  0.55067289  0.18124426  1  -0.072622  0  -0.09339  -0.106067  0  4.000104  0
C  C174  1  0.42835861  0.39251836  0.92908822  1  -0.02788  0  -0.080017  -0.087477  0  3.95489  0
C  C175  1  0.57164392  0.60748040  0.07091314  1  -0.027816  0  -0.080023  -0.087447  0  3.955021  0
C  C176  1  0.33891741  0.94361529  0.81169843  1  -0.112761  0  -0.097272  -0.112162  0  4.009907  0
C  C177  1  0.66107794  0.05638553  0.18830031  1  -0.112796  0  -0.097318  -0.112225  0  4.009884  0
C  C178  1  0.01504883  0.05601692  0.60661471  1  -0.032639  0  -0.093543  -0.198941  0  3.953492  0
C  C179  1  0.98494797  0.94398238  0.39338570  1  -0.032761  0  -0.093556  -0.199023  0  3.953452  0
C  C180  1  0.73433949  0.34564780  0.26257796  1  0.032512  0  -0.097612  -0.185683  0  3.96329  0
C  C181  1  0.26565148  0.65435204  0.73742489  1  0.032565  0  -0.09754  -0.185604  0  3.963106  0
C  C182  1  0.01395342  0.00416158  0.66319129  1  0.519896  0  0.054354  0.104251  0  3.952804  0
C  C183  1  0.98604153  0.99583773  0.33680843  1  0.519962  0  0.05433  0.104176  0  3.952806  0
C  C184  1  0.91240131  0.11145996  0.59512751  1  -0.043327  0  0.006773  0.125895  0  4.036395  0
C  C185  1  0.08759771  0.88854083  0.40487304  1  -0.043324  0  0.006835  0.125979  0  4.036442  0
C  C186  1  0.89431374  0.22798224  0.87068866  1  -0.01736  0  -0.017765  -0.029263  0  3.970899  0
C  C187  1  0.10570125  0.77201846  0.12930544  1  -0.017276  0  -0.017872  -0.029537  0  3.971118  0
C  C188  1  0.81833603  0.05662024  0.69791147  1  0.505201  0  0.05536  0.112109  0  3.913881  0
C  C189  1  0.18165893  0.94337906  0.30208825  1  0.503902  0  0.055335  0.112145  0  3.913786  0
C  C190  1  0.66088244  0.37312561  0.46169886  1  1.093007  0  0.190752  0.356925  0  3.991926  0
C  C191  1  0.33911454  0.62687319  0.53830171  1  1.092989  0  0.190745  0.356804  0  3.991951  0
C  C192  1  0.72612521  0.32333226  0.42964449  1  -0.001544  0  -0.014345  -0.084819  0  3.933333  0
C  C193  1  0.27386766  0.67666504  0.57035652  1  -0.001494  0  -0.014396  -0.084825  0  3.933284  0
C  C194  1  0.71792760  0.31008940  0.32722221  1  0.023165  0  -0.034224  0.000752  0  4.066528  0
C  C195  1  0.28206453  0.68990993  0.67277902  1  0.023125  0  -0.03417  0.000857  0  4.066353  0
C  C196  1  0.80236970  0.21975762  0.51957867  1  -0.048487  0  -0.103188  -0.194503  0  3.999709  0
C  C197  1  0.19762874  0.78024217  0.48042269  1  -0.048313  0  -0.103132  -0.194451  0  3.999702  0
C  C198  1  0.81304608  0.11056093  0.64321419  1  -0.01631  0  -0.086046  -0.178373  0  3.942798  0
C  C199  1  0.18695014  0.88943988  0.35678659  1  -0.016293  0  -0.085971  -0.178336  0  3.942785  0
C  C200  1  0.60532510  0.41328780  0.35784219  1  1.090558  0  0.195073  0.350364  0  3.991951  0
C  C201  1  0.39467013  0.58670799  0.64216084  1  1.090489  0  0.194869  0.350059  0  3.992229  0
C  C202  1  0.90484985  0.16751038  0.53699268  1  -0.154373  0  -0.021775  -0.030994  0  4.02772  0
C  C203  1  0.09515006  0.83249041  0.46300948  1  -0.154285  0  -0.021766  -0.030943  0  4.027696  0
C  C204  1  0.45196394  0.89073526  0.92049975  1  0.04094  0  -0.08145  -0.088743  0  3.957665  0
C  C205  1  0.54802521  0.10926962  0.07950194  1  0.04122  0  -0.081472  -0.088738  0  3.957833  0
C  C206  1  0.55508666  0.42089503  0.42164765  1  1.153683  0  0.189019  0.252629  0  4.012797  0
C  C207  1  0.44491060  0.57910276  0.57835621  1  1.153604  0  0.18894  0.252502  0  4.013114  0
C  C208  1  0.46044008  0.95219950  0.81105692  1  0.073499  0  -0.095486  -0.108708  0  4.000298  0
C  C209  1  0.53955727  0.04780081  0.18894352  1  0.073471  0  -0.095443  -0.108668  0  4.000101  0
C  C210  1  0.00105469  0.28305832  0.36653254  1  -0.099595  0  -0.234954  -0.406961  0  3.970027  0
C  C211  1  0.99894323  0.71694046  0.63346710  1  -0.054502  0  -0.23503  -0.407109  0  3.970227  0
C  C212  1  0.94252030  0.24765658  0.42930819  1  -0.195658  0  0.000837  0.063735  0  3.919989  0
C  C213  1  0.05747647  0.75234272  0.57069307  1  -0.195859  0  0.000821  0.063707  0  3.920052  0
C  C214  1  0.70458774  0.18717975  0.40121229  1  -0.039288  0  -0.239728  -0.405068  0  3.990341  0
C  C215  1  0.29541614  0.81281800  0.59878719  1  -0.039254  0  -0.239759  -0.405173  0  3.990278  0
C  C216  1  0.82167712  0.26508592  0.45843982  1  0.10238  0  -0.033722  0.006422  0  4.068201  0
C  C217  1  0.17832170  0.73491287  0.54156101  1  0.102156  0  -0.033685  0.006433  0  4.068144  0
C  C218  1  0.80068635  0.76491102  0.12181409  1  -0.029742  0  -0.082888  -0.172754  0  3.924302  0
C  C219  1  0.19931658  0.23508925  0.87818630  1  -0.029761  0  -0.082933  -0.172787  0  3.924199  0
C  C220  1  0.74518013  0.78788292  0.22088339  1  -0.190525  0  -0.010397  -0.010329  0  4.014858  0
C  C221  1  0.25482765  0.21211682  0.77911590  1  -0.190681  0  -0.010459  -0.01036  0  4.014924  0
C  C222  1  0.77888609  0.87783508  0.12012166  1  -0.002517  0  -0.075441  -0.161539  0  3.918953  0
C  C223  1  0.22111906  0.12216417  0.87987888  1  -0.002606  0  -0.075556  -0.161683  0  3.918865  0
C  C224  1  0.77449893  0.80989923  0.15435443  1  0.006252  0  0.012391  0.120849  0  4.034574  0
C  C225  1  0.22550697  0.19010051  0.84564587  1  0.006303  0  0.01251  0.120985  0  4.034294  0
C  C226  1  0.98842478  0.53748617  0.60922256  1  -0.028743  0  -0.094833  -0.200664  0  3.957362  0
C  C227  1  0.01157555  0.46251361  0.39077737  1  -0.028707  0  -0.094872  -0.200756  0  3.957407  0
C  C228  1  0.98980599  0.49028146  0.66832549  1  0.535843  0  0.052745  0.10322  0  3.95283  0
C  C229  1  0.01019345  0.50971833  0.33167325  1  0.535867  0  0.052804  0.103293  0  3.952774  0
C  C230  1  0.78287033  0.59247660  0.64195500  1  -0.044046  0  -0.085435  -0.175719  0  3.943123  0
C  C231  1  0.21712965  0.40752418  0.35804462  1  -0.044036  0  -0.085387  -0.175667  0  3.943231  0
C  C232  1  0.88328761  0.59110873  0.59468296  1  -0.018356  0  0.00766  0.126622  0  4.038022  0
C  C233  1  0.11671368  0.40889104  0.40531604  1  -0.018374  0  0.00765  0.12662  0  4.038185  0
C  C234  1  0.79093581  0.54316692  0.69936065  1  0.50482  0  0.055695  0.112528  0  3.916082  0
C  C235  1  0.20906510  0.45683386  0.30063889  1  0.504822  0  0.055638  0.112531  0  3.916095  0
C  C236  1  0.77275275  0.69596124  0.51622902  1  -0.020012  0  -0.1032  -0.192785  0  4.00334  0
C  C237  1  0.22724848  0.30404106  0.48377251  1  -0.020054  0  -0.103222  -0.192904  0  4.003311  0
C  C238  1  0.87527945  0.64422713  0.53483750  1  -0.201177  0  -0.023214  -0.033813  0  4.036268  0
C  C239  1  0.12471939  0.35577417  0.46516289  1  -0.201201  0  -0.023187  -0.033759  0  4.036264  0
C  C240  1  0.83204153  0.78804167  0.05859061  1  0.497598  0  0.058459  0.113157  0  3.904242  0
C  C241  1  0.16795732  0.21195963  0.94140935  1  0.497875  0  0.058395  0.113116  0  3.904335  0
C  C242  1  0.81083996  0.89704816  0.05712716  1  0.436587  0  0.058135  0.106132  0  3.92027  0
C  C243  1  0.18916389  0.10295210  0.94287356  1  0.43688  0  0.058175  0.106258  0  3.920236  0
C  C244  1  0.79343488  0.74063956  0.45499734  1  0.036784  0  -0.033048  0.007536  0  4.069547  0
C  C245  1  0.20656265  0.25936275  0.54500366  1  0.036843  0  -0.032992  0.007716  0  4.069439  0
C  C246  1  0.91520451  0.72291850  0.42680310  1  -0.176562  0  0.000788  0.063237  0  3.919198  0
C  C247  1  0.08479230  0.27708331  0.57319686  1  -0.17656  0  0.00073  0.063145  0  3.919455  0
C  C248  1  0.57896618  0.89009964  0.35444594  1  1.102372  0  0.195117  0.350321  0  3.997539  0
C  C249  1  0.42102971  0.10990218  0.64555368  1  1.102437  0  0.195106  0.350114  0  3.997729  0
C  C250  1  0.66358318  0.82094061  0.36831554  1  0.023627  0  -0.005917  -0.061872  0  3.944147  0
C  C251  1  0.33641717  0.17906169  0.63168395  1  0.023597  0  -0.005989  -0.061912  0  3.94428  0
C  C252  1  0.97591846  0.75789851  0.36441283  1  0.010594  0  -0.234291  -0.406443  0  3.971297  0
C  C253  1  0.02408042  0.24210278  0.63558628  1  0.011062  0  -0.234256  -0.406321  0  3.971387  0
C  C254  1  0.63256934  0.84839772  0.45870844  1  1.072416  0  0.190633  0.356897  0  3.990714  0
C  C255  1  0.36743109  0.15160709  0.54128848  1  1.072768  0  0.190647  0.35682  0  3.990522  0
C  C256  1  0.52687588  0.89623901  0.41862641  1  1.170681  0  0.188609  0.249494  0  4.016611  0
C  C257  1  0.47311838  0.10376231  0.58137141  1  1.170402  0  0.188674  0.249738  0  4.016349  0
C  C258  1  0.71876923  0.82651330  0.25810322  1  -0.014886  0  -0.097422  -0.188445  0  3.974331  0
C  C259  1  0.28123835  0.17348694  0.74189676  1  -0.014818  0  -0.097427  -0.188487  0  3.974389  0
C  C260  1  0.70315102  0.72061585  0.33272633  1  -0.166049  0  -0.002117  0.058109  0  3.923093  0
C  C261  1  0.29685435  0.27938541  0.66727308  1  -0.166133  0  -0.002153  0.057979  0  3.92312  0
C  C262  1  0.69863180  0.79915543  0.42614030  1  -0.024047  0  -0.013933  -0.084168  0  3.938828  0
C  C263  1  0.30136946  0.20084687  0.57385996  1  -0.02397  0  -0.013988  -0.084364  0  3.938947  0
C  C264  1  0.67843702  0.66527777  0.39165773  1  -0.009344  0  -0.239214  -0.403868  0  3.985674  0
C  C265  1  0.32155740  0.33472556  0.60834107  1  -0.009225  0  -0.239214  -0.403805  0  3.985613  0
C  C266  1  0.69622272  0.78892118  0.32191435  1  0.024327  0  -0.03443  0.001114  0  4.07476  0
C  C267  1  0.30378005  0.21107959  0.67808503  1  0.024312  0  -0.03434  0.00135  0  4.074641  0
S  S268  1  0.02764382  0.17617192  0.47739612  1  0.237791  0  0.09583  0.105156  0  2.850108  0
S  S269  1  0.97235481  0.82382988  0.52260538  1  0.237957  0  0.095823  0.105144  0  2.850146  0
S  S270  1  0.75308463  0.22213540  0.27470650  1  0.245571  0  0.113321  0.12522  0  2.806089  0
S  S271  1  0.24691642  0.77786237  0.72529449  1  0.245629  0  0.113339  0.125244  0  2.806334  0
S  S272  1  0.73916058  0.70455865  0.26500462  1  0.238187  0  0.114218  0.124481  0  2.808068  0
S  S273  1  0.26084118  0.29544213  0.73499738  1  0.238341  0  0.114275  0.124504  0  2.80805  0
S  S274  1  0.99942062  0.65200236  0.47594591  1  0.255022  0  0.095932  0.105605  0  2.856392  0
S  S275  1  0.00057603  0.34799744  0.52405307  1  0.254942  0  0.095915  0.10558  0  2.856513  0
N  N276  1  0.82286862  0.36106875  0.03261643  1  -1.235205  0  -0.324659  -0.215261  0  3.526634  0
N  N277  1  0.17713242  0.63892902  0.96738498  1  -1.235199  0  -0.324677  -0.215284  0  3.526702  0
N  N278  1  0.91726020  0.00377816  0.70826014  1  -1.24227  0  -0.319566  -0.208994  0  3.491598  0
N  N279  1  0.08273513  0.99622014  0.29173948  1  -1.240871  0  -0.319587  -0.208987  0  3.491586  0
N  N280  1  0.83797797  0.85301014  0.02662754  1  -1.259462  0  -0.32499  -0.215041  0  3.524957  0
N  N281  1  0.16202183  0.14699115  0.97337150  1  -1.259689  0  -0.324978  -0.215108  0  3.525114  0
N  N282  1  0.89325234  0.49277575  0.71298870  1  -1.247373  0  -0.321454  -0.209175  0  3.495177  0
N  N283  1  0.10674783  0.50722453  0.28701023  1  -1.247421  0  -0.321477  -0.209232  0  3.495226  0
O  O284  1  0.86620437  0.48957912  0.92279495  1  -1.174111  0  -0.312916  -0.545132  0  2.350138  0
O  O285  1  0.13379572  0.51042116  0.07720694  1  -1.174165  0  -0.313028  -0.545215  0  2.350099  0
O  O286  1  0.86790134  0.30637526  0.92080627  1  -1.16521  0  -0.312238  -0.544095  0  2.357571  0
O  O287  1  0.13210846  0.69362698  0.07918733  1  -1.164619  0  -0.312285  -0.544329  0  2.357222  0
O  O288  1  0.89205216  0.80654366  0.91096961  1  -1.166797  0  -0.312474  -0.547977  0  2.383174  0
O  O289  1  0.10792740  0.19345976  0.08902961  1  -1.166226  0  -0.312437  -0.547993  0  2.383114  0
O  O290  1  0.92873275  0.33900553  0.81780879  1  -1.168277  0  -0.325681  -0.560647  0  2.342498  0
O  O291  1  0.07127610  0.66099671  0.18218531  1  -1.168196  0  -0.325745  -0.560968  0  2.342577  0
O  O292  1  0.88187040  0.98501372  0.92590266  1  -1.173102  0  -0.311993  -0.539989  0  2.351848  0
O  O293  1  0.11813103  0.01498807  0.07409818  1  -1.17313  0  -0.312024  -0.539946  0  2.351743  0
O  O294  1  0.84509210  0.53031480  0.82108308  1  -1.17113  0  -0.319935  -0.562343  0  2.362973  0
O  O295  1  0.15490880  0.46968599  0.17891688  1  -1.171188  0  -0.319917  -0.562352  0  2.363051  0
O  O296  1  0.92621992  0.84260473  0.80659932  1  -1.16991  0  -0.32356  -0.554371  0  2.327733  0
O  O297  1  0.07377591  0.15739709  0.19340242  1  -1.169928  0  -0.323549  -0.554379  0  2.327724  0
O  O298  1  0.66953833  0.41841940  0.92281038  1  -1.157649  0  -0.318534  -0.545331  0  2.310768  0
O  O299  1  0.33046695  0.58157683  0.07719204  1  -1.157465  0  -0.318453  -0.545325  0  2.310771  0
O  O300  1  0.05723149  0.37527521  0.92614121  1  -1.170872  0  -0.311592  -0.544471  0  2.321298  0
O  O301  1  0.94277040  0.62472557  0.07385613  1  -1.170694  0  -0.311653  -0.544506  0  2.321175  0
O  O302  1  0.88874358  0.02559777  0.82215079  1  -1.171266  0  -0.318309  -0.564351  0  2.379477  0
O  O303  1  0.11125428  0.97440102  0.17785139  1  -1.17137  0  -0.318333  -0.564416  0  2.379483  0
O  O304  1  0.71656068  0.94958025  0.81169138  1  -1.179267  0  -0.322979  -0.559725  0  2.32694  0
O  O305  1  0.28343389  0.05042007  0.18830888  1  -1.17899  0  -0.322999  -0.559785  0  2.327001  0
O  O306  1  0.70010318  0.43752052  0.82016653  1  -1.173767  0  -0.321386  -0.557247  0  2.333912  0
O  O307  1  0.29990159  0.56247722  0.17983414  1  -1.173588  0  -0.321413  -0.557292  0  2.333985  0
O  O308  1  0.07942540  0.87496296  0.91859335  1  -1.1753  0  -0.313068  -0.546873  0  2.316572  0
O  O309  1  0.92056963  0.12503635  0.08140340  1  -1.175385  0  -0.312971  -0.546814  0  2.31659  0
O  O310  1  0.10065358  0.92011432  0.81435498  1  -1.171621  0  -0.328722  -0.568166  0  2.328886  0
O  O311  1  0.89934367  0.07988396  0.18564235  1  -1.17252  0  -0.328767  -0.568208  0  2.328658  0
O  O312  1  0.69155408  0.91629234  0.91579887  1  -1.16362  0  -0.318758  -0.549903  0  2.317702  0
O  O313  1  0.30843904  0.08371201  0.08420054  1  -1.163687  0  -0.318757  -0.549926  0  2.317687  0
O  O314  1  0.07216934  0.43170400  0.82317815  1  -1.169329  0  -0.326095  -0.562288  0  2.338515  0
O  O315  1  0.92783176  0.56829879  0.17682110  1  -1.169302  0  -0.32609  -0.562257  0  2.338543  0
F  F316  1  0.44407482  0.39740394  0.44353434  1  -0.608646  0  -0.101666  -0.15672  0  1.358353  0
F  F317  1  0.55592128  0.60259436  0.55647113  1  -0.608565  0  -0.101601  -0.156625  0  1.358386  0
F  F318  1  0.61151449  0.34354219  0.52170639  1  -0.618548  0  -0.106567  -0.171247  0  1.317835  0
F  F319  1  0.38848988  0.65645656  0.47829523  1  -0.618496  0  -0.106556  -0.171195  0  1.317801  0
F  F320  1  0.53187685  0.48550442  0.42058804  1  -0.605254  0  -0.105207  -0.147145  0  1.334549  0
F  F321  1  0.46812197  0.51449436  0.57941322  1  -0.605198  0  -0.105179  -0.147083  0  1.334718  0
F  F322  1  0.50786336  0.42269895  0.32527234  1  -0.622095  0  -0.091393  -0.157486  0  1.354776  0
F  F323  1  0.49212779  0.57730039  0.67473067  1  -0.622043  0  -0.091323  -0.15741  0  1.35489  0
F  F324  1  0.74250486  0.41061213  0.46455565  1  -0.615217  0  -0.117354  -0.196927  0  1.347417  0
F  F325  1  0.25749513  0.58938614  0.53544314  1  -0.61529  0  -0.117341  -0.196861  0  1.347393  0
F  F326  1  0.67413667  0.46313045  0.32377796  1  -0.604843  0  -0.102205  -0.170036  0  1.305594  0
F  F327  1  0.32585614  0.53686434  0.67622520  1  -0.604956  0  -0.102117  -0.169907  0  1.305557  0
F  F328  1  0.41676427  0.87163586  0.43958997  1  -0.611854  0  -0.101049  -0.157066  0  1.364067  0
F  F329  1  0.58323423  0.12836393  0.56040928  1  -0.611805  0  -0.101099  -0.157155  0  1.363967  0
F  F330  1  0.48287597  0.89970311  0.32100645  1  -0.622106  0  -0.091719  -0.156259  0  1.348114  0
F  F331  1  0.51712555  0.10029616  0.67899101  1  -0.622045  0  -0.091729  -0.156182  0  1.348156  0
F  F332  1  0.58278844  0.81847880  0.51856085  1  -0.618319  0  -0.105359  -0.170898  0  1.322272  0
F  F333  1  0.41721214  0.18152803  0.48143748  1  -0.618516  0  -0.105361  -0.170849  0  1.322245  0
F  F334  1  0.64728228  0.94039658  0.32158173  1  -0.605109  0  -0.100568  -0.168975  0  1.308565  0
F  F335  1  0.35271528  0.05960573  0.67841800  1  -0.605157  0  -0.100522  -0.168918  0  1.308618  0
F  F336  1  0.50125748  0.96036185  0.41887247  1  -0.603421  0  -0.104623  -0.142985  0  1.327966  0
F  F337  1  0.49873366  0.03964049  0.58112400  1  -0.60337  0  -0.104643  -0.143044  0  1.327928  0
F  F338  1  0.71380417  0.88579929  0.46204689  1  -0.615415  0  -0.117793  -0.196224  0  1.343207  0
F  F339  1  0.28618943  0.11420656  0.53794857  1  -0.615438  0  -0.117792  -0.196186  0  1.343096  0
