# generated using pymatgen
data_AgH14C12S(NO)3
_symmetry_space_group_name_H-M   'P 1'
_cell_length_a   5.66152431
_cell_length_b   8.85257930
_cell_length_c   14.34104096
_cell_angle_alpha   73.68878471
_cell_angle_beta   88.26945075
_cell_angle_gamma   74.52286591
_symmetry_Int_Tables_number   1
_chemical_formula_structural   AgH14C12S(NO)3
_chemical_formula_sum   'Ag2 H28 C24 S2 N6 O6'
_cell_volume   664.03636395
_cell_formula_units_Z   2
loop_
 _symmetry_equiv_pos_site_id
 _symmetry_equiv_pos_as_xyz
  1  'x, y, z'
loop_
 _atom_site_type_symbol
 _atom_site_label
 _atom_site_symmetry_multiplicity
 _atom_site_fract_x
 _atom_site_fract_y
 _atom_site_fract_z
 _atom_site_occupancy
 _atom_site_hle17_bader_spin_density
 _atom_site_hle17_ddec_charge
 _atom_site_hle17_ddec_spin_density
 _atom_site_hle17_ddec_sum_bond_order
 _atom_site_hle17_magmom
 _atom_site_hse06_10hf_bader_spin_density
 _atom_site_hse06_10hf_ddec_charge
 _atom_site_hse06_10hf_ddec_spin_density
 _atom_site_hse06_10hf_ddec_sum_bond_order
 _atom_site_hse06_10hf_magmom
 _atom_site_hse06_bader_spin_density
 _atom_site_hse06_ddec_charge
 _atom_site_hse06_ddec_spin_density
 _atom_site_hse06_ddec_sum_bond_order
 _atom_site_hse06_magmom
 _atom_site_pbe_bader_spin_density
 _atom_site_pbe_cm5_charge
 _atom_site_pbe_ddec_charge
 _atom_site_pbe_ddec_spin_density
 _atom_site_pbe_ddec_sum_bond_order
 _atom_site_pbe_magmom
Ag  Ag0  1  0.07206254  0.11682149  0.04638910  1  0  0.583062  0  1.367092  0  0  0.458094  0  1.801304  0  0  0.48746  0  1.752133  0  0  0.463588  0.437406  0  1.83639  0
Ag  Ag1  1  0.92791820  0.88320270  0.95360670  1  0  0.583071  0  1.367031  0  0  0.458179  0  1.801194  0  0  0.487553  0  1.752021  0  0  0.463608  0.43747  0  1.836314  0
H  H2  1  0.82809714  0.86688043  0.30437523  1  0  0.100799  0  0.966762  0  0  0.108949  0  1.032456  0  0  0.111086  0  1.032705  0  0  0.102879  0.107376  0  1.032414  0
H  H3  1  0.17190210  0.13311438  0.69562263  1  0  0.100776  0  0.966664  0  0  0.108943  0  1.032344  0  0  0.111091  0  1.032556  0  0  0.102845  0.107368  0  1.032306  0
H  H4  1  0.73868054  0.68061841  0.45734429  1  0  0.083085  0  0.961143  0  0  0.095841  0  1.021923  0  0  0.098518  0  1.020891  0  0  0.096545  0.093898  0  1.022771  0
H  H5  1  0.26131142  0.31936304  0.54264693  1  0  0.08319  0  0.96121  0  0  0.095919  0  1.022006  0  0  0.098596  0  1.020975  0  0  0.096562  0.093978  0  1.022848  0
H  H6  1  0.98830579  0.97156622  0.42747928  1  0  0.090215  0  0.976915  0  0  0.102332  0  1.037633  0  0  0.104382  0  1.038331  0  0  0.098949  0.100724  0  1.037506  0
H  H7  1  0.01170460  0.02840902  0.57251904  1  0  0.090261  0  0.976911  0  0  0.10241  0  1.037552  0  0  0.104458  0  1.038255  0  0  0.099047  0.100801  0  1.037425  0
H  H8  1  0.07869469  0.16202183  0.27639963  1  0  0.112398  0  0.975697  0  0  0.116876  0  1.046637  0  0  0.120544  0  1.044228  0  0  0.104372  0.114336  0  1.048197  0
H  H9  1  0.92131702  0.83797777  0.72361047  1  0  0.112351  0  0.975632  0  0  0.116784  0  1.046641  0  0  0.120449  0  1.044229  0  0  0.104351  0.114244  0  1.048197  0
H  H10  1  0.10264669  0.71681794  0.55162391  1  0  0.104892  0  0.956562  0  0  0.126139  0  1.019676  0  0  0.127387  0  1.019752  0  0  0.090301  0.125253  0  1.019614  0
H  H11  1  0.89737901  0.28314988  0.44837828  1  0  0.10483  0  0.956516  0  0  0.126108  0  1.019598  0  0  0.127355  0  1.019677  0  0  0.090313  0.125223  0  1.019537  0
H  H12  1  0.36255420  0.72775564  0.61265069  1  0  0.129254  0  0.941951  0  0  0.149727  0  1.002764  0  0  0.151491  0  1.002563  0  0  0.09662  0.148392  0  1.003171  0
H  H13  1  0.63747388  0.27223290  0.38734018  1  0  0.129398  0  0.942076  0  0  0.149821  0  1.002934  0  0  0.151582  0  1.002744  0  0  0.096638  0.148484  0  1.003345  0
H  H14  1  0.39249381  0.57385138  0.55367112  1  0  0.100558  0  0.964547  0  0  0.12085  0  1.031172  0  0  0.12189  0  1.031508  0  0  0.088035  0.12022  0  1.030784  0
H  H15  1  0.60752871  0.42613353  0.44632604  1  0  0.100418  0  0.964636  0  0  0.120797  0  1.031138  0  0  0.121834  0  1.031479  0  0  0.088022  0.120169  0  1.030746  0
H  H16  1  0.13692874  0.56995651  0.72571066  1  0  0.119829  0  0.97717  0  0  0.132261  0  1.036321  0  0  0.135098  0  1.036589  0  0  0.105057  0.130354  0  1.03601  0
H  H17  1  0.86305356  0.43005059  0.27430065  1  0  0.119883  0  0.976992  0  0  0.132256  0  1.036218  0  0  0.135092  0  1.036489  0  0  0.10506  0.130349  0  1.035907  0
H  H18  1  0.83695646  0.50886538  0.62622643  1  0  0.070109  0  0.954274  0  0  0.08744  0  1.008949  0  0  0.089064  0  1.007276  0  0  0.098165  0.086115  0  1.010407  0
H  H19  1  0.16304186  0.49116357  0.37376899  1  0  0.070157  0  0.95445  0  0  0.087502  0  1.009097  0  0  0.089125  0  1.007424  0  0  0.098117  0.086176  0  1.010559  0
H  H20  1  0.59775819  0.30959664  0.70857739  1  0  0.103574  0  1.002672  0  0  0.11242  0  1.069387  0  0  0.114086  0  1.072647  0  0  0.093662  0.111352  0  1.066866  0
H  H21  1  0.40223485  0.69042747  0.29141267  1  0  0.103673  0  1.00285  0  0  0.112533  0  1.069568  0  0  0.114212  0  1.072783  0  0  0.093688  0.111469  0  1.067041  0
H  H22  1  0.51963760  0.13431539  0.86135829  1  0  0.31899  0  0.893258  0  0  0.307682  0  0.947709  0  0  0.313168  0  0.944962  0  0  0.298997  0.303727  0  0.949865  0
H  H23  1  0.48033848  0.86570273  0.13864143  1  0  0.318921  0  0.893395  0  0  0.307635  0  0.947795  0  0  0.313119  0  0.945053  0  0  0.298995  0.30368  0  0.949952  0
H  H24  1  0.61486799  0.15212893  0.96600966  1  0  0.308905  0  0.915971  0  0  0.293493  0  0.982384  0  0  0.300682  0  0.975948  0  0  0.291684  0.28841  0  0.98696  0
H  H25  1  0.38513389  0.84788171  0.03398471  1  0  0.308888  0  0.916055  0  0  0.293501  0  0.982449  0  0  0.300692  0  0.976011  0  0  0.291666  0.288419  0  0.987023  0
H  H26  1  0.22252087  0.39703749  0.98925398  1  0  0.331427  0  0.926861  0  0  0.313193  0  0.993008  0  0  0.320688  0  0.986569  0  0  0.29364  0.307709  0  0.998038  0
H  H27  1  0.77747028  0.60296956  0.01075651  1  0  0.33141  0  0.926865  0  0  0.313201  0  0.992983  0  0  0.320692  0  0.98655  0  0  0.293663  0.307719  0  0.998012  0
H  H28  1  0.28332728  0.54030215  0.88469585  1  0  0.339193  0  0.913335  0  0  0.322438  0  0.973836  0  0  0.329863  0  0.96774  0  0  0.297714  0.317083  0  0.978301  0
H  H29  1  0.71667716  0.45971579  0.11530488  1  0  0.339214  0  0.913412  0  0  0.322434  0  0.973915  0  0  0.329855  0  0.967823  0  0  0.297797  0.317083  0  0.978367  0
C  C30  1  0.46117444  0.02999515  0.28397926  1  0  -0.129451  0  3.760187  0  0  -0.103324  0  4.006045  0  0  -0.111366  0  4.028218  0  0  -0.02745  -0.098217  0  3.991292  0
C  C31  1  0.53881157  0.97000705  0.71603424  1  0  -0.129571  0  3.760135  0  0  -0.103478  0  4.006096  0  0  -0.111529  0  4.028266  0  0  -0.027431  -0.098363  0  3.991325  0
C  C32  1  0.64653457  0.89304169  0.33360579  1  0  -0.068564  0  3.770186  0  0  -0.091657  0  4.018513  0  0  -0.089527  0  4.037789  0  0  -0.08898  -0.092736  0  4.005318  0
C  C33  1  0.35347147  0.10694942  0.66639611  1  0  -0.068427  0  3.770439  0  0  -0.091519  0  4.018752  0  0  -0.089379  0  4.038034  0  0  -0.088958  -0.092599  0  4.005551  0
C  C34  1  0.59411740  0.78804841  0.41921733  1  0  -0.140298  0  3.744676  0  0  -0.15786  0  3.989561  0  0  -0.162683  0  4.010371  0  0  -0.095701  -0.154543  0  3.975159  0
C  C35  1  0.40586979  0.21193185  0.58077836  1  0  -0.140542  0  3.744649  0  0  -0.158011  0  3.989599  0  0  -0.16286  0  4.01039  0  0  -0.09571  -0.154691  0  3.975204  0
C  C36  1  0.35823257  0.81567027  0.45568127  1  0  0.150854  0  3.752391  0  0  0.178514  0  3.981714  0  0  0.181133  0  4.005673  0  0  -0.005656  0.176674  0  3.965156  0
C  C37  1  0.64178207  0.18431226  0.54431712  1  0  0.151028  0  3.752168  0  0  0.178444  0  3.981798  0  0  0.181133  0  4.005662  0  0  -0.005624  0.176586  0  3.965261  0
C  C38  1  0.17498791  0.95135660  0.40276228  1  0  -0.132562  0  3.731007  0  0  -0.148866  0  3.971955  0  0  -0.154016  0  3.994063  0  0  -0.09334  -0.145391  0  3.956807  0
C  C39  1  0.82501325  0.04863332  0.59723641  1  0  -0.132744  0  3.731432  0  0  -0.148959  0  3.972462  0  0  -0.154132  0  3.994549  0  0  -0.093394  -0.145481  0  3.957316  0
C  C40  1  0.22419836  0.05906743  0.31773081  1  0  -0.061621  0  3.747912  0  0  -0.088398  0  4.001205  0  0  -0.086647  0  4.020455  0  0  -0.08701  -0.089159  0  3.987814  0
C  C41  1  0.77580456  0.94092248  0.68226715  1  0  -0.061339  0  3.747405  0  0  -0.088073  0  4.000727  0  0  -0.086309  0  4.019964  0  0  -0.086939  -0.088837  0  3.987331  0
C  C42  1  0.30099617  0.70260158  0.54779553  1  0  -0.343543  0  3.716954  0  0  -0.424785  0  3.950946  0  0  -0.42709  0  3.959403  0  0  -0.239704  -0.422973  0  3.945101  0
C  C43  1  0.69901589  0.29737365  0.45219649  1  0  -0.343565  0  3.716935  0  0  -0.424768  0  3.950967  0  0  -0.427094  0  3.959405  0  0  -0.239755  -0.42295  0  3.945132  0
C  C44  1  0.05974226  0.40852945  0.85958067  1  0  0.517865  0  3.82601  0  0  0.488542  0  4.083813  0  0  0.511027  0  4.095434  0  0  0.226115  0.472786  0  4.076273  0
C  C45  1  0.94025335  0.59147026  0.14041918  1  0  0.518018  0  3.826002  0  0  0.488711  0  4.083795  0  0  0.511205  0  4.095413  0  0  0.226192  0.47295  0  4.07626  0
C  C46  1  0.03046511  0.48452868  0.75798035  1  0  -0.262193  0  3.706649  0  0  -0.280133  0  3.960988  0  0  -0.293236  0  3.98165  0  0  -0.113632  -0.270973  0  3.947093  0
C  C47  1  0.96954248  0.51547217  0.24202332  1  0  -0.262265  0  3.70625  0  0  -0.280144  0  3.960609  0  0  -0.293251  0  3.981274  0  0  -0.113647  -0.270981  0  3.946714  0
C  C48  1  0.86533162  0.44897375  0.70425850  1  0  0.025095  0  3.822889  0  0  0.007097  0  4.073723  0  0  0.015787  0  4.091199  0  0  -0.080786  0.001332  0  4.061579  0
C  C49  1  0.13468855  0.55103555  0.29574212  1  0  0.024991  0  3.822856  0  0  0.006964  0  4.07365  0  0  0.015654  0  4.091126  0  0  -0.080743  0.0012  0  4.061503  0
C  C50  1  0.73190975  0.33771334  0.74897726  1  0  -0.278492  0  3.740655  0  0  -0.294369  0  3.99332  0  0  -0.30815  0  4.016176  0  0  -0.126182  -0.2844  0  3.977311  0
C  C51  1  0.26809418  0.66230582  0.25102118  1  0  -0.278517  0  3.740855  0  0  -0.294408  0  3.993456  0  0  -0.308185  0  4.016321  0  0  -0.126198  -0.284437  0  3.977452  0
C  C52  1  0.77793947  0.26270264  0.84817904  1  0  0.471593  0  3.809263  0  0  0.447002  0  4.060312  0  0  0.466055  0  4.076749  0  0  0.20366  0.433588  0  4.049352  0
C  C53  1  0.22206077  0.73730314  0.15181550  1  0  0.471501  0  3.809225  0  0  0.446894  0  4.06029  0  0  0.465954  0  4.076735  0  0  0.20351  0.433477  0  4.049333  0
S  S54  1  0.52903109  0.16696600  0.17635290  1  0  1.290035  0  5.648272  0  0  1.190753  0  6.161545  0  0  1.238745  0  6.138306  0  0  0.50356  1.157543  0  6.17677  0
S  S55  1  0.47097427  0.83303609  0.82365128  1  0  1.289753  0  5.648613  0  0  1.190504  0  6.161906  0  0  1.238504  0  6.138661  0  0  0.503489  1.157296  0  6.17712  0
N  N56  1  0.93850517  0.29544942  0.90246078  1  0  -0.52428  0  3.175788  0  0  -0.44053  0  3.448293  0  0  -0.466096  0  3.457277  0  0  -0.366412  -0.423398  0  3.442535  0
N  N57  1  0.06148050  0.70455766  0.09753863  1  0  -0.524307  0  3.175531  0  0  -0.440622  0  3.448085  0  0  -0.466216  0  3.457092  0  0  -0.366342  -0.423485  0  3.442328  0
N  N58  1  0.21426051  0.44312145  0.91538070  1  0  -0.680507  0  3.101873  0  0  -0.640567  0  3.333612  0  0  -0.662148  0  3.330387  0  0  -0.586861  -0.62565  0  3.3367  0
N  N59  1  0.78573727  0.55688190  0.08462267  1  0  -0.680507  0  3.102118  0  0  -0.640558  0  3.333895  0  0  -0.662136  0  3.330672  0  0  -0.586984  -0.625645  0  3.33699  0
N  N60  1  0.66655310  0.14033861  0.89855188  1  0  -0.690865  0  3.219322  0  0  -0.631516  0  3.466199  0  0  -0.653493  0  3.461668  0  0  -0.617204  -0.616236  0  3.469677  0
N  N61  1  0.33343943  0.85967331  0.10144170  1  0  -0.690784  0  3.219411  0  0  -0.631448  0  3.466176  0  0  -0.653425  0  3.461651  0  0  -0.617126  -0.616165  0  3.469646  0
O  O62  1  0.29109548  0.26413167  0.12520611  1  0  -0.676726  0  2.06289  0  0  -0.610307  0  2.331043  0  0  -0.633017  0  2.315733  0  0  -0.341006  -0.594113  0  2.341404  0
O  O63  1  0.70890185  0.73587291  0.87479914  1  0  -0.6766  0  2.062953  0  0  -0.610236  0  2.331106  0  0  -0.63294  0  2.315782  0  0  -0.341019  -0.594043  0  2.341464  0
O  O64  1  0.66349601  0.26698259  0.20673068  1  0  -0.654409  0  1.971427  0  0  -0.59949  0  2.217674  0  0  -0.620938  0  2.204591  0  0  -0.330239  -0.584164  0  2.225934  0
O  O65  1  0.33651500  0.73300970  0.79327931  1  0  -0.654293  0  1.971483  0  0  -0.599377  0  2.217685  0  0  -0.620859  0  2.204662  0  0  -0.330227  -0.584049  0  2.225939  0
O  O66  1  0.68003506  0.05996801  0.12116270  1  0  -0.708247  0  2.043665  0  0  -0.647893  0  2.325502  0  0  -0.669794  0  2.306799  0  0  -0.35342  -0.632375  0  2.338089  0
O  O67  1  0.31995647  0.94003782  0.87884173  1  0  -0.708247  0  2.043697  0  0  -0.64789  0  2.325551  0  0  -0.669795  0  2.30685  0  0  -0.353423  -0.632368  0  2.338131  0
