# generated using pymatgen
data_MnH12C16(IO)6
_symmetry_space_group_name_H-M   'P 1'
_cell_length_a   4.61913913
_cell_length_b   16.27691926
_cell_length_c   16.71951006
_cell_angle_alpha   90.00010902
_cell_angle_beta   89.99991058
_cell_angle_gamma   91.25717780
_symmetry_Int_Tables_number   1
_chemical_formula_structural   MnH12C16(IO)6
_chemical_formula_sum   'Mn2 H24 C32 I12 O12'
_cell_volume   1256.75970093
_cell_formula_units_Z   2
loop_
 _symmetry_equiv_pos_site_id
 _symmetry_equiv_pos_as_xyz
  1  'x, y, z'
loop_
 _atom_site_type_symbol
 _atom_site_label
 _atom_site_symmetry_multiplicity
 _atom_site_fract_x
 _atom_site_fract_y
 _atom_site_fract_z
 _atom_site_occupancy
 _atom_site_hle17_ddec_charge
 _atom_site_hle17_ddec_spin_density
 _atom_site_hle17_ddec_sum_bond_order
 _atom_site_hle17_magmom
 _atom_site_hse06_10hf_ddec_charge
 _atom_site_hse06_10hf_ddec_spin_density
 _atom_site_hse06_10hf_ddec_sum_bond_order
 _atom_site_hse06_10hf_magmom
 _atom_site_hse06_ddec_charge
 _atom_site_hse06_ddec_spin_density
 _atom_site_hse06_ddec_sum_bond_order
 _atom_site_hse06_magmom
 _atom_site_pbe_cm5_charge
 _atom_site_pbe_ddec_charge
 _atom_site_pbe_ddec_spin_density
 _atom_site_pbe_ddec_sum_bond_order
 _atom_site_pbe_magmom
Mn  Mn0  1  0.49999585  0.49999966  0.50000125  1  1.233953  -4.797353  1.70139  -4.684  1.081278  -4.719878  2.183574  -4.545  1.136969  -4.76478  2.113925  -4.607  0.605672  1.038163  -4.6728  2.234511  -4.482
Mn  Mn1  1  0.50000288  0.00000123  0.99999809  1  1.23395  4.797361  1.701409  4.684  1.081252  4.719877  2.183595  4.545  1.136939  4.764783  2.113954  4.607  0.605667  1.038138  4.672806  2.234542  4.482
H  H2  1  0.90623781  0.50819937  0.60653539  1  0.371877  0.000503  0.90024  0.0  0.350854  -0.000235  0.961966  -0.001  0.361101  4.8e-05  0.951618  -0.001  0.305135  0.34356  -0.000506  0.969266  -0.001
H  H3  1  0.09375960  0.99180226  0.10653333  1  0.371847  -0.000502  0.900291  0.0  0.350819  0.000235  0.962024  0.001  0.361067  -4.8e-05  0.951674  0.001  0.305099  0.343527  0.000506  0.969314  0.001
H  H4  1  0.09376055  0.49180179  0.39346352  1  0.371854  0.000503  0.900267  0.0  0.350835  -0.000235  0.962002  -0.001  0.361084  4.9e-05  0.951646  -0.001  0.305126  0.343538  -0.000506  0.969302  -0.001
H  H5  1  0.90624103  0.00820012  0.89346379  1  0.371832  -0.000502  0.900273  0.0  0.350808  0.000235  0.962011  0.001  0.361056  -4.8e-05  0.951659  0.001  0.305104  0.343515  0.000506  0.969304  0.001
H  H6  1  0.54555536  0.07344310  0.53886383  1  0.092347  3.3e-05  1.005021  0.0  0.098382  -2.6e-05  1.081034  0.0  0.10244  -1.2e-05  1.077639  0.0  0.078697  0.09535  -5.1e-05  1.083669  0.0
H  H7  1  0.45446304  0.42655505  0.03886866  1  0.092248  -3.6e-05  1.005103  0.0  0.098314  2.6e-05  1.081062  0.0  0.102368  1.2e-05  1.077669  0.0  0.078661  0.095285  5.1e-05  1.083688  0.0
H  H8  1  0.45444052  0.92655437  0.46113449  1  0.092361  4.5e-05  1.005016  0.0  0.098441  -2.6e-05  1.08094  0.0  0.102508  -1.1e-05  1.077538  0.0  0.078728  0.095409  -5.1e-05  1.083573  0.0
H  H9  1  0.54554614  0.57344609  0.96113803  1  0.092351  -3.1e-05  1.00505  0.0  0.098389  2.6e-05  1.081051  0.0  0.102451  1.2e-05  1.077651  0.0  0.078694  0.095357  5.1e-05  1.083682  0.0
H  H10  1  0.66091967  0.32930256  0.60281388  1  0.11909  0.000405  0.956387  0.0  0.130182  0.000347  1.016511  0.0  0.134222  0.000389  1.013058  0.0  0.106995  0.127128  0.000292  1.01926  0.0
H  H11  1  0.33907886  0.17069511  0.10281470  1  0.119036  -0.000405  0.956398  0.0  0.130117  -0.000347  1.016542  0.0  0.134161  -0.000389  1.013086  0.0  0.106952  0.127066  -0.000292  1.019297  0.0
H  H12  1  0.33907194  0.67069552  0.39718384  1  0.119091  0.000409  0.956446  0.0  0.130203  0.000347  1.016541  0.0  0.134245  0.000389  1.013086  0.0  0.106978  0.127149  0.000292  1.019294  0.0
H  H13  1  0.66091718  0.82930420  0.89718541  1  0.119057  -0.000403  0.95637  0.0  0.130146  -0.000347  1.016504  0.0  0.134188  -0.000389  1.013048  0.0  0.106961  0.12709  -0.000292  1.019259  0.0
H  H14  1  0.58141588  0.54716137  0.70789792  1  0.057835  0.00016  0.988707  0.0  0.066658  2.9e-05  1.072888  0.0  0.068062  0.000105  1.071484  0.0  0.074483  0.065702  -6.1e-05  1.073857  0.0
H  H15  1  0.41858324  0.95284167  0.20789564  1  0.057889  -0.000158  0.988655  0.0  0.066698  -2.9e-05  1.072852  0.0  0.068105  -0.000105  1.07144  0.0  0.074524  0.065745  6.1e-05  1.073815  0.0
H  H16  1  0.41859320  0.45283855  0.29210399  1  0.057809  0.000158  0.988736  0.0  0.066623  2.9e-05  1.072932  0.0  0.068029  0.000105  1.071521  0.0  0.074472  0.065671  -6.1e-05  1.073894  0.0
H  H17  1  0.58141744  0.04716132  0.79210208  1  0.057862  -0.000165  0.988694  0.0  0.066705  -2.9e-05  1.072845  0.0  0.068104  -0.000105  1.071453  0.0  0.074499  0.065751  6.1e-05  1.07381  0.0
H  H18  1  0.72438784  0.44901423  0.73554933  1  0.05822  -0.000613  0.987205  -0.001  0.070017  -0.000855  1.066518  -0.001  0.070777  -0.000634  1.06579  -0.001  0.074106  0.069554  -0.001084  1.067018  -0.001
H  H19  1  0.27561043  0.05098922  0.23554517  1  0.058234  0.000605  0.987134  0.001  0.070024  0.000855  1.066466  0.001  0.070785  0.000634  1.065735  0.001  0.074109  0.069563  0.001084  1.066963  0.001
H  H20  1  0.27562341  0.55098568  0.26445079  1  0.058224  -0.000602  0.987209  -0.001  0.070032  -0.000855  1.066513  -0.001  0.070792  -0.000634  1.065784  -0.001  0.074126  0.06957  -0.001084  1.067017  -0.001
H  H21  1  0.72438592  0.94901378  0.76445016  1  0.058202  0.000607  0.987233  0.001  0.069999  0.000855  1.066548  0.001  0.07076  0.000634  1.065818  0.001  0.074098  0.069536  0.001084  1.067048  0.001
H  H22  1  0.37958295  0.45437328  0.68794693  1  0.086122  9.9e-05  0.929732  0.0  0.105659  -0.000192  0.989811  0.0  0.106348  -7.3e-05  0.989272  0.0  0.096944  0.10511  -0.000318  0.990299  0.0
H  H23  1  0.62041337  0.04562946  0.18794321  1  0.086036  -9.6e-05  0.929808  0.0  0.105608  0.000192  0.989843  0.0  0.106287  7.3e-05  0.989333  0.0  0.096934  0.105061  0.000318  0.990331  0.0
H  H24  1  0.62042180  0.54562664  0.31205557  1  0.086093  0.0001  0.929748  0.0  0.105638  -0.000191  0.989818  0.0  0.106322  -7.3e-05  0.989298  0.0  0.096949  0.105093  -0.000318  0.990303  0.0
H  H25  1  0.37958293  0.95437292  0.81205391  1  0.086114  -9.5e-05  0.929751  0.0  0.105651  0.000192  0.989831  0.0  0.106341  7.3e-05  0.989293  0.0  0.096945  0.105108  0.000318  0.990316  0.0
C  C26  1  0.99558557  0.37661975  0.48127381  1  0.687627  -0.012719  3.863159  -0.012  0.62937  -0.020777  4.166044  -0.019  0.665951  -0.015858  4.155578  -0.015  0.227157  0.603601  -0.026245  4.172612  -0.023
C  C27  1  0.00440687  0.12338233  0.98127468  1  0.687442  0.012713  3.863495  0.012  0.629269  0.020778  4.166222  0.019  0.665863  0.015859  4.155736  0.015  0.227035  0.603497  0.026247  4.172795  0.023
C  C28  1  0.00440609  0.62337895  0.51872571  1  0.687469  -0.012709  3.863509  -0.012  0.629297  -0.020779  4.166244  -0.019  0.665904  -0.015859  4.155742  -0.015  0.22704  0.603521  -0.026248  4.172823  -0.023
C  C29  1  0.99558953  0.87662128  0.01872423  1  0.687628  0.012715  3.863214  0.012  0.629409  0.020777  4.166031  0.019  0.665998  0.015858  4.155553  0.015  0.227116  0.603633  0.026246  4.172613  0.023
C  C30  1  0.87464561  0.29108865  0.49549307  1  -0.045657  0.000823  3.718532  0.001  -0.027261  4.6e-05  3.958757  0.0  -0.031632  0.000626  3.97729  0.0  -0.014695  -0.024661  -0.000565  3.946732  0.0
C  C31  1  0.12535969  0.20891283  0.99549584  1  -0.045827  -0.00084  3.718687  -0.001  -0.027454  -4.7e-05  3.95887  0.0  -0.031831  -0.000627  3.977406  0.0  -0.014773  -0.024849  0.000565  3.946842  0.0
C  C32  1  0.12535677  0.70890881  0.50450405  1  -0.045678  0.000828  3.7188  0.001  -0.027291  4.6e-05  3.958978  0.0  -0.03167  0.000626  3.977506  0.0  -0.014687  -0.024694  -0.000565  3.946958  0.0
C  C33  1  0.87464321  0.79109078  0.00450546  1  -0.045769  -0.000827  3.718788  -0.001  -0.027351  -4.7e-05  3.958968  0.0  -0.031724  -0.000626  3.977499  0.0  -0.014709  -0.024751  0.000565  3.946946  0.0
C  C34  1  0.93394070  0.22592968  0.44338800  1  -0.03353  -0.001547  3.640836  -0.001  -0.024869  -0.001747  3.90025  -0.002  -0.02245  -0.0014  3.922964  -0.001  -0.063724  -0.026581  -0.002354  3.885147  -0.002
C  C35  1  0.06606917  0.27407110  0.94339092  1  -0.033662  0.001568  3.640835  0.001  -0.024977  0.001747  3.900262  0.002  -0.022558  0.001402  3.922976  0.001  -0.063859  -0.026694  0.002354  3.885169  0.002
C  C36  1  0.06605730  0.77406718  0.55661091  1  -0.033471  -0.001547  3.640951  -0.001  -0.024789  -0.001746  3.900278  -0.002  -0.022367  -0.001403  3.92299  -0.001  -0.063668  -0.026504  -0.002355  3.885181  -0.002
C  C37  1  0.93393383  0.72593374  0.05661218  1  -0.033469  0.001558  3.640974  0.001  -0.024829  0.001745  3.900401  0.002  -0.022406  0.001405  3.923111  0.001  -0.063713  -0.026545  0.002355  3.885308  0.002
C  C38  1  0.81502112  0.14769876  0.45978197  1  0.010765  0.000883  3.674766  0.001  0.03313  0.000414  3.936009  0.0  0.033461  0.000582  3.961169  0.001  -0.061149  0.03278  0.000291  3.918981  0.0
C  C39  1  0.18499088  0.35230265  0.95978678  1  0.010892  -0.00091  3.674443  -0.001  0.033151  -0.000412  3.935838  0.0  0.033483  -0.000585  3.960993  -0.001  -0.061035  0.032797  -0.000291  3.918816  0.0
C  C40  1  0.18497260  0.85229871  0.54021694  1  0.010704  0.000921  3.674761  0.001  0.033095  0.000412  3.935928  0.0  0.033425  0.000588  3.96109  0.001  -0.061195  0.032746  0.000291  3.918898  0.0
C  C41  1  0.81501207  0.64770157  0.04021931  1  0.010718  -0.000914  3.674718  -0.001  0.033062  -0.00041  3.936013  0.0  0.033392  -0.000591  3.961175  -0.001  -0.061134  0.032712  -0.000291  3.918986  0.0
C  C42  1  0.63852212  0.13428225  0.52691913  1  -0.138979  -0.00146  3.785648  -0.001  -0.167319  -0.001562  4.038194  -0.001  -0.169178  -0.001268  4.059486  -0.001  -0.118105  -0.165916  -0.002115  4.023961  -0.002
C  C43  1  0.36149208  0.36571650  0.02692390  1  -0.138761  0.001498  3.785477  0.001  -0.16708  0.00156  4.038049  0.001  -0.168932  0.001274  4.059343  0.001  -0.118014  -0.16567  0.002115  4.023804  0.002
C  C44  1  0.36148015  0.86571399  0.47307978  1  -0.138884  -0.001532  3.785483  -0.001  -0.167234  -0.00156  4.038042  -0.001  -0.1691  -0.001277  4.059327  -0.001  -0.118084  -0.165825  -0.002115  4.0238  -0.002
C  C45  1  0.63851067  0.63428527  0.97308219  1  -0.138941  0.0015  3.785558  0.001  -0.167267  0.001557  4.0381  0.001  -0.169129  0.001284  4.059389  0.001  -0.118053  -0.165856  0.002115  4.023854  0.002
C  C46  1  0.58446037  0.20003660  0.57767428  1  0.04397  0.000757  3.679396  0.001  0.067415  0.00021  3.94569  0.0  0.068956  0.000436  3.969234  0.0  -0.055096  0.066175  1.9e-05  3.929782  0.0
C  C47  1  0.41554911  0.29996102  0.07767770  1  0.043894  -0.000777  3.679529  -0.001  0.067324  -0.000209  3.945804  0.0  0.068864  -0.000439  3.969351  0.0  -0.055163  0.066084  -1.9e-05  3.929893  0.0
C  C48  1  0.41554623  0.79995963  0.42232583  1  0.043928  0.000798  3.679361  0.001  0.067336  0.000209  3.94572  0.0  0.068876  0.000441  3.969268  0.0  -0.055165  0.066097  1.9e-05  3.929807  0.0
C  C49  1  0.58445353  0.70003952  0.92232600  1  0.044013  -0.000797  3.679332  -0.001  0.067453  -0.000207  3.945621  0.0  0.068993  -0.000448  3.969167  0.0  -0.055133  0.066213  -1.9e-05  3.929708  0.0
C  C50  1  0.70214148  0.27801078  0.56310273  1  -0.09738  -0.001314  3.728207  -0.001  -0.13459  -0.001454  3.985207  -0.001  -0.133137  -0.001138  4.000458  -0.001  -0.095818  -0.135598  -0.001952  3.975344  -0.002
C  C51  1  0.29786175  0.22198866  0.06310546  1  -0.097168  0.001329  3.728107  0.001  -0.134358  0.001455  3.985081  0.001  -0.132909  0.001138  4.000337  0.001  -0.095708  -0.135371  0.001951  3.975226  0.002
C  C52  1  0.29786080  0.72198546  0.43689618  1  -0.097397  -0.001345  3.728233  -0.001  -0.134626  -0.001454  3.985221  -0.001  -0.133174  -0.001141  4.000473  -0.001  -0.095821  -0.135634  -0.001952  3.975359  -0.002
C  C53  1  0.70213883  0.77801311  0.93689645  1  -0.097294  0.001329  3.728092  0.001  -0.134505  0.001452  3.985088  0.001  -0.133055  0.001142  4.000341  0.001  -0.095779  -0.135511  0.001951  3.975229  0.002
C  C54  1  0.59771587  0.48223331  0.69075561  1  -0.017119  -0.001721  3.645103  -0.002  -0.109611  -0.003445  3.907874  -0.003  -0.102824  -0.002593  3.911626  -0.002  -0.156295  -0.114327  -0.004264  3.905022  -0.003
C  C55  1  0.40228476  0.01776944  0.19075253  1  -0.017017  0.001725  3.645009  0.002  -0.109532  0.003445  3.907784  0.003  -0.102746  0.002592  3.911529  0.002  -0.156317  -0.114252  0.004265  3.904929  0.003
C  C56  1  0.40229105  0.51776661  0.30924570  1  -0.017066  -0.001733  3.645159  -0.002  -0.109562  -0.003445  3.907946  -0.003  -0.102775  -0.002592  3.911697  -0.002  -0.156308  -0.114285  -0.004265  3.905103  -0.003
C  C57  1  0.59771592  0.98223355  0.80924459  1  -0.017159  0.001735  3.645175  0.002  -0.109657  0.003445  3.907938  0.003  -0.102871  0.002593  3.91169  0.002  -0.156319  -0.114375  0.004265  3.905089  0.003
I  I58  1  0.19739907  0.25063827  0.34255389  1  0.010002  -0.000211  1.553785  0.0  -0.005012  -0.000944  1.899308  -0.001  -0.006576  -0.000445  1.888848  0.0  0.090093  -0.004104  -0.001608  1.906912  -0.001
I  I59  1  0.80261593  0.24936538  0.84255525  1  0.010027  0.000213  1.553736  0.0  -0.004992  0.000945  1.89925  0.001  -0.006556  0.000446  1.888796  0.0  0.090092  -0.004082  0.001608  1.906851  0.001
I  I60  1  0.80260325  0.74935858  0.65744622  1  0.009996  -0.000219  1.553756  0.0  -0.005035  -0.000944  1.899251  -0.001  -0.006598  -0.000446  1.888792  0.0  0.090085  -0.004126  -0.001608  1.906861  -0.001
I  I61  1  0.19739372  0.75064130  0.15744546  1  0.009994  0.000215  1.553796  0.0  -0.005016  0.000945  1.899315  0.001  -0.006579  0.000445  1.888855  0.0  0.090087  -0.004104  0.001608  1.906924  0.001
I  I62  1  0.88301443  0.04496792  0.38599800  1  -0.004219  -0.000126  1.473444  0.0  -0.013188  -0.000171  1.798554  0.0  -0.015772  -5.5e-05  1.789756  0.0  0.101473  -0.011499  -0.000402  1.804898  0.0
I  I63  1  0.11700230  0.45503335  0.88600423  1  -0.004231  0.000123  1.473433  0.0  -0.013162  0.000172  1.79859  0.0  -0.015748  5.3e-05  1.789788  0.0  0.101482  -0.011471  0.000401  1.804937  0.0
I  I64  1  0.11696847  0.95502956  0.61399732  1  -0.004166  -0.000128  1.473447  0.0  -0.013161  -0.000172  1.798581  0.0  -0.015747  -5.4e-05  1.789782  0.0  0.10149  -0.011471  -0.000402  1.80493  0.0
I  I65  1  0.88300937  0.54497148  0.11400186  1  -0.004196  0.000128  1.473445  0.0  -0.013152  0.000173  1.798559  0.0  -0.015738  5.3e-05  1.789759  0.0  0.10147  -0.01146  0.000401  1.804905  0.0
I  I66  1  0.31935264  0.18510342  0.67990998  1  0.015504  -0.000178  1.482346  0.0  0.015465  -0.000259  1.809013  0.0  0.011782  -0.000143  1.798994  0.0  0.10306  0.017987  -0.000443  1.816284  0.0
I  I67  1  0.68066242  0.31489009  0.17991271  1  0.015517  0.000176  1.482463  0.0  0.015472  0.00026  1.809138  0.0  0.011789  0.000142  1.799116  0.0  0.103088  0.017991  0.000443  1.816415  0.0
I  I68  1  0.68065407  0.81489404  0.32009013  1  0.015519  -0.000176  1.482395  0.0  0.015478  -0.00026  1.809086  0.0  0.011792  -0.000142  1.799069  0.0  0.103096  0.017999  -0.000443  1.816354  0.0
I  I69  1  0.31934398  0.68510369  0.82009158  1  0.015508  0.000177  1.48239  0.0  0.015465  0.000261  1.809057  0.0  0.011777  0.000142  1.799046  0.0  0.103089  0.017989  0.000443  1.816329  0.0
O  O70  1  0.84482636  0.42648742  0.43986657  1  -0.667767  -0.023518  2.020962  -0.011  -0.604277  -0.032512  2.275112  -0.016  -0.633042  -0.02884  2.260266  -0.013  -0.305682  -0.582996  -0.036002  2.284811  -0.019
O  O71  1  0.15516616  0.07351274  0.93986848  1  -0.667649  0.023518  2.02093  0.011  -0.604187  0.032509  2.275024  0.016  -0.632952  0.028838  2.260172  0.013  -0.305643  -0.582906  0.035998  2.284724  0.019
O  O72  1  0.15516525  0.57351066  0.56013234  1  -0.667753  -0.023519  2.020936  -0.011  -0.604271  -0.032511  2.275015  -0.016  -0.633044  -0.028838  2.260159  -0.013  -0.305668  -0.582988  -0.036  2.28472  -0.019
O  O73  1  0.84483236  0.92649026  0.06013043  1  -0.66776  0.023519  2.020838  0.011  -0.604273  0.03251  2.274945  0.016  -0.63304  0.028839  2.260097  0.013  -0.30566  -0.582988  0.035999  2.284648  0.019
O  O74  1  0.23795164  0.39373757  0.51296092  1  -0.622226  -0.034926  2.064533  -0.023  -0.558563  -0.04136  2.333401  -0.025  -0.590496  -0.036984  2.322088  -0.021  -0.29401  -0.534933  -0.045659  2.340533  -0.029
O  O75  1  0.76203491  0.10626608  0.01296024  1  -0.622152  0.03493  2.06488  0.023  -0.558512  0.041359  2.333702  0.025  -0.590447  0.036983  2.322375  0.021  -0.293897  -0.534881  0.04566  2.340839  0.029
O  O76  1  0.76203791  0.60626174  0.48703919  1  -0.622116  -0.03493  2.064803  -0.023  -0.558498  -0.041359  2.33363  -0.025  -0.59044  -0.036984  2.322302  -0.021  -0.293888  -0.534861  -0.045659  2.340764  -0.029
O  O77  1  0.23795722  0.89373815  0.98703748  1  -0.622245  0.034925  2.064678  0.023  -0.558601  0.041362  2.333512  0.025  -0.590536  0.036983  2.322195  0.021  -0.293998  -0.534969  0.045659  2.340653  0.029
O  O78  1  0.72491966  0.47402025  0.61255711  1  -0.543492  -0.030024  2.208622  -0.019  -0.46313  -0.038457  2.452947  -0.025  -0.486526  -0.034519  2.440982  -0.022  -0.396429  -0.445471  -0.042198  2.460605  -0.029
O  O79  1  0.27507908  0.02598051  0.11255410  1  -0.54357  0.030022  2.2087  0.019  -0.463156  0.038455  2.452961  0.025  -0.486552  0.034518  2.440997  0.022  -0.396406  -0.445496  0.042197  2.460614  0.029
O  O80  1  0.27507860  0.52597967  0.38744240  1  -0.543466  -0.03002  2.20864  -0.019  -0.463113  -0.038453  2.452948  -0.025  -0.486507  -0.034516  2.440984  -0.022  -0.396423  -0.445452  -0.042195  2.460602  -0.029
O  O81  1  0.72492361  0.97402064  0.88744182  1  -0.543412  0.030018  2.208663  0.019  -0.463058  0.038456  2.452994  0.025  -0.486454  0.034518  2.441031  0.022  -0.396391  -0.445402  0.042196  2.460649  0.029
