# generated using pymatgen
data_CuH4C6N2Cl
_symmetry_space_group_name_H-M   'P 1'
_cell_length_a   3.66255907
_cell_length_b   12.49584331
_cell_length_c   14.74980392
_cell_angle_alpha   89.99943852
_cell_angle_beta   89.99958328
_cell_angle_gamma   96.06567248
_symmetry_Int_Tables_number   1
_chemical_formula_structural   CuH4C6N2Cl
_chemical_formula_sum   'Cu4 H16 C24 N8 Cl4'
_cell_volume   671.27148137
_cell_formula_units_Z   4
loop_
 _symmetry_equiv_pos_site_id
 _symmetry_equiv_pos_as_xyz
  1  'x, y, z'
loop_
 _atom_site_type_symbol
 _atom_site_label
 _atom_site_symmetry_multiplicity
 _atom_site_fract_x
 _atom_site_fract_y
 _atom_site_fract_z
 _atom_site_occupancy
 _atom_site_hle17_bader_spin_density
 _atom_site_hle17_ddec_charge
 _atom_site_hle17_ddec_spin_density
 _atom_site_hle17_ddec_sum_bond_order
 _atom_site_hle17_magmom
 _atom_site_hse06_10hf_bader_spin_density
 _atom_site_hse06_10hf_ddec_charge
 _atom_site_hse06_10hf_ddec_spin_density
 _atom_site_hse06_10hf_ddec_sum_bond_order
 _atom_site_hse06_10hf_magmom
 _atom_site_hse06_bader_spin_density
 _atom_site_hse06_ddec_charge
 _atom_site_hse06_ddec_spin_density
 _atom_site_hse06_ddec_sum_bond_order
 _atom_site_hse06_magmom
 _atom_site_pbe_bader_spin_density
 _atom_site_pbe_cm5_charge
 _atom_site_pbe_ddec_charge
 _atom_site_pbe_ddec_spin_density
 _atom_site_pbe_ddec_sum_bond_order
 _atom_site_pbe_magmom
Cu  Cu0  1  0.49331555  0.96945175  0.25307205  1  0  0.533889  0  2.098789  0  0  0.443114  0  2.615318  0  0  0.428771  0  2.576139  0  0  0.494185  0.455854  0  2.638934  0
Cu  Cu1  1  0.50668528  0.53055264  0.75307238  1  0  0.533693  0  2.098883  0  0  0.442883  0  2.615449  0  0  0.428524  0  2.57626  0  0  0.494179  0.455628  0  2.639081  0
Cu  Cu2  1  0.50668702  0.03055682  0.74692861  1  0  0.533787  0  2.098833  0  0  0.442958  0  2.61538  0  0  0.428588  0  2.576165  0  0  0.494205  0.455707  0  2.638999  0
Cu  Cu3  1  0.49331098  0.46945351  0.24692422  1  0  0.533847  0  2.098968  0  0  0.443035  0  2.615515  0  0  0.428685  0  2.576333  0  0  0.494184  0.45577  0  2.639121  0
H  H4  1  0.66801830  0.74438757  0.27530768  1  0  0.089911  0  0.949474  0  0  0.09488  0  1.016262  0  0  0.098172  0  1.013917  0  0  0.106864  0.092307  0  1.018321  0
H  H5  1  0.33197941  0.75561735  0.77530988  1  0  0.089906  0  0.949509  0  0  0.09491  0  1.016268  0  0  0.0982  0  1.013923  0  0  0.106877  0.09233  0  1.018332  0
H  H6  1  0.33198069  0.25561859  0.72469298  1  0  0.089926  0  0.949474  0  0  0.094897  0  1.016246  0  0  0.098193  0  1.013902  0  0  0.106868  0.092321  0  1.018306  0
H  H7  1  0.66802448  0.24438720  0.22469485  1  0  0.089959  0  0.949439  0  0  0.094931  0  1.016213  0  0  0.098224  0  1.013864  0  0  0.106871  0.092362  0  1.018283  0
H  H8  1  0.69688927  0.61354492  0.39939798  1  0  0.115037  0  0.962326  0  0  0.121083  0  1.029644  0  0  0.125181  0  1.027014  0  0  0.105649  0.118062  0  1.031667  0
H  H9  1  0.30313194  0.88645043  0.89940796  1  0  0.115117  0  0.962444  0  0  0.121116  0  1.029788  0  0  0.125217  0  1.02715  0  0  0.105703  0.118087  0  1.031811  0
H  H10  1  0.30308835  0.38645478  0.60060065  1  0  0.115088  0  0.962398  0  0  0.121127  0  1.029714  0  0  0.125229  0  1.027075  0  0  0.105707  0.118105  0  1.03174  0
H  H11  1  0.69689183  0.11354851  0.10060083  1  0  0.115079  0  0.962379  0  0  0.121101  0  1.029721  0  0  0.125204  0  1.027081  0  0  0.10567  0.118081  0  1.031748  0
H  H12  1  0.25670672  0.84523660  0.57867578  1  0  0.121691  0  0.988496  0  0  0.127335  0  1.055485  0  0  0.131456  0  1.05429  0  0  0.094404  0.124227  0  1.056654  0
H  H13  1  0.74331848  0.65474665  0.07867011  1  0  0.121655  0  0.988571  0  0  0.127278  0  1.055543  0  0  0.1314  0  1.054356  0  0  0.094401  0.124161  0  1.056705  0
H  H14  1  0.74326845  0.15476390  0.42132691  1  0  0.121658  0  0.988604  0  0  0.12727  0  1.055626  0  0  0.131387  0  1.054442  0  0  0.094388  0.124167  0  1.056801  0
H  H15  1  0.25669286  0.34524021  0.92132648  1  0  0.121726  0  0.988509  0  0  0.127371  0  1.055467  0  0  0.131493  0  1.054271  0  0  0.094423  0.124263  0  1.056633  0
H  H16  1  0.23221541  0.96518184  0.44305385  1  0  0.07915  0  0.949703  0  0  0.085604  0  1.018227  0  0  0.088742  0  1.015937  0  0  0.108187  0.083288  0  1.020039  0
H  H17  1  0.76779272  0.53481053  0.94304140  1  0  0.079194  0  0.949764  0  0  0.085716  0  1.018218  0  0  0.088833  0  1.015947  0  0  0.108176  0.083394  0  1.020027  0
H  H18  1  0.76778792  0.03482110  0.55694885  1  0  0.07915  0  0.949681  0  0  0.085614  0  1.01823  0  0  0.088704  0  1.015992  0  0  0.108166  0.083298  0  1.020041  0
H  H19  1  0.23221268  0.46518276  0.05695045  1  0  0.079137  0  0.949744  0  0  0.0856  0  1.018265  0  0  0.088739  0  1.015977  0  0  0.108146  0.08328  0  1.020067  0
C  C20  1  0.57766982  0.76414016  0.34302114  1  0  0.139164  0  3.673997  0  0  0.110412  0  3.931435  0  0  0.116668  0  3.943704  0  0  0.045107  0.10583  0  3.924023  0
C  C21  1  0.42233783  0.73585909  0.84302196  1  0  0.139149  0  3.673954  0  0  0.110305  0  3.93144  0  0  0.116569  0  3.943695  0  0  0.045058  0.105715  0  3.924017  0
C  C22  1  0.42231901  0.23586035  0.65697885  1  0  0.138956  0  3.674053  0  0  0.110207  0  3.931439  0  0  0.116443  0  3.943722  0  0  0.045001  0.105625  0  3.924037  0
C  C23  1  0.57767859  0.26414225  0.15697803  1  0  0.139019  0  3.673918  0  0  0.110272  0  3.931338  0  0  0.116529  0  3.943606  0  0  0.045111  0.105671  0  3.923928  0
C  C24  1  0.59539160  0.69073192  0.41313490  1  0  -0.129473  0  3.685059  0  0  -0.152226  0  3.931283  0  0  -0.155961  0  3.948875  0  0  -0.074033  -0.149888  0  3.920055  0
C  C25  1  0.40462732  0.80926566  0.91314057  1  0  -0.129643  0  3.685074  0  0  -0.152308  0  3.931336  0  0  -0.156044  0  3.948925  0  0  -0.074213  -0.149965  0  3.920097  0
C  C26  1  0.40458715  0.30927100  0.58686238  1  0  -0.129462  0  3.685077  0  0  -0.152247  0  3.931339  0  0  -0.155964  0  3.948927  0  0  -0.074092  -0.149912  0  3.920117  0
C  C27  1  0.59539400  0.19073407  0.08686348  1  0  -0.129445  0  3.685163  0  0  -0.152186  0  3.931409  0  0  -0.155915  0  3.94899  0  0  -0.074103  -0.149845  0  3.920199  0
C  C28  1  0.48247831  0.71922927  0.50011910  1  0  0.0508  0  3.881541  0  0  0.071717  0  4.110072  0  0  0.072749  0  4.128029  0  0  0.011047  0.070452  0  4.098337  0
C  C29  1  0.51754332  0.78076140  0.00011962  1  0  0.05101  0  3.881762  0  0  0.071881  0  4.110356  0  0  0.072909  0  4.12832  0  0  0.011188  0.070599  0  4.098606  0
C  C30  1  0.51750317  0.28077365  0.49988088  1  0  0.050593  0  3.881772  0  0  0.07153  0  4.110306  0  0  0.072545  0  4.128262  0  0  0.010964  0.070269  0  4.098579  0
C  C31  1  0.48247056  0.21923270  0.99988308  1  0  0.050837  0  3.881694  0  0  0.071741  0  4.110259  0  0  0.072765  0  4.128221  0  0  0.011075  0.070473  0  4.098528  0
C  C32  1  0.35032708  0.82021319  0.51244576  1  0  -0.137263  0  3.685326  0  0  -0.158603  0  3.931135  0  0  -0.163476  0  3.949936  0  0  -0.078075  -0.155473  0  3.919035  0
C  C33  1  0.64969578  0.67977410  0.01244007  1  0  -0.13736  0  3.685314  0  0  -0.158679  0  3.93124  0  0  -0.163536  0  3.949996  0  0  -0.078167  -0.155552  0  3.919147  0
C  C34  1  0.64965601  0.17978651  0.48755422  1  0  -0.137115  0  3.685121  0  0  -0.158435  0  3.930957  0  0  -0.163293  0  3.949739  0  0  -0.078085  -0.155319  0  3.918875  0
C  C35  1  0.35031311  0.32021356  0.98755449  1  0  -0.137306  0  3.685185  0  0  -0.15863  0  3.931051  0  0  -0.163498  0  3.949851  0  0  -0.078097  -0.155498  0  3.918948  0
C  C36  1  0.33867618  0.88712860  0.43785060  1  0  0.117775  0  3.696851  0  0  0.090256  0  3.95319  0  0  0.095181  0  3.967328  0  0  0.037754  0.086739  0  3.944216  0
C  C37  1  0.66133428  0.61286223  0.93784043  1  0  0.117799  0  3.697015  0  0  0.090214  0  3.953334  0  0  0.095153  0  3.967493  0  0  0.037807  0.086694  0  3.944331  0
C  C38  1  0.66131896  0.11287433  0.56215277  1  0  0.117711  0  3.696784  0  0  0.090137  0  3.953154  0  0  0.095098  0  3.967302  0  0  0.037788  0.086628  0  3.944176  0
C  C39  1  0.33867113  0.38713106  0.06215481  1  0  0.117772  0  3.696848  0  0  0.090219  0  3.953232  0  0  0.095141  0  3.967371  0  0  0.037809  0.086702  0  3.944229  0
C  C40  1  0.50083342  0.64891333  0.57487494  1  0  0.300939  0  3.676161  0  0  0.285035  0  3.933126  0  0  0.297319  0  3.944456  0  0  0.198107  0.277379  0  3.925552  0
C  C41  1  0.49918361  0.85106192  0.07487017  1  0  0.301129  0  3.67547  0  0  0.285263  0  3.932413  0  0  0.297554  0  3.943754  0  0  0.198092  0.277612  0  3.924822  0
C  C42  1  0.49915833  0.35107994  0.42513250  1  0  0.301302  0  3.67578  0  0  0.285416  0  3.932723  0  0  0.297715  0  3.944058  0  0  0.198174  0.277746  0  3.925159  0
C  C43  1  0.50083319  0.14892494  0.92513117  1  0  0.301006  0  3.675932  0  0  0.285123  0  3.93288  0  0  0.297414  0  3.944218  0  0  0.198058  0.277464  0  3.925301  0
N  N44  1  0.45386835  0.86113689  0.35445084  1  0  -0.288174  0  3.347156  0  0  -0.226441  0  3.647734  0  0  -0.229047  0  3.649249  0  0  -0.354673  -0.225465  0  3.647108  0
N  N45  1  0.54613377  0.63886302  0.85444611  1  0  -0.288178  0  3.347416  0  0  -0.226382  0  3.647977  0  0  -0.228982  0  3.649464  0  0  -0.354673  -0.225392  0  3.647322  0
N  N46  1  0.54612217  0.13886846  0.64555321  1  0  -0.287995  0  3.347278  0  0  -0.226175  0  3.647733  0  0  -0.228758  0  3.64921  0  0  -0.354584  -0.225209  0  3.647112  0
N  N47  1  0.45387803  0.36114073  0.14555116  1  0  -0.28814  0  3.347267  0  0  -0.226386  0  3.647831  0  0  -0.22899  0  3.649342  0  0  -0.354705  -0.225377  0  3.64717  0
N  N48  1  0.51264296  0.59246739  0.63808414  1  0  -0.413286  0  3.124459  0  0  -0.376732  0  3.465783  0  0  -0.374134  0  3.458476  0  0  -0.382763  -0.379753  0  3.470021  0
N  N49  1  0.48736859  0.90752798  0.13809384  1  0  -0.413793  0  3.123581  0  0  -0.377286  0  3.464977  0  0  -0.374685  0  3.457673  0  0  -0.382902  -0.380311  0  3.469194  0
N  N50  1  0.48735576  0.40753796  0.36190567  1  0  -0.413757  0  3.123956  0  0  -0.377231  0  3.465335  0  0  -0.374624  0  3.458004  0  0  -0.382874  -0.380252  0  3.469571  0
N  N51  1  0.51262787  0.09247093  0.86191225  1  0  -0.413505  0  3.124244  0  0  -0.376966  0  3.465592  0  0  -0.374368  0  3.458279  0  0  -0.382787  -0.379987  0  3.469816  0
Cl  Cl52  1  0.03320301  0.08173603  0.28734243  1  0  -0.579932  0  1.236056  0  0  -0.515164  0  1.591337  0  0  -0.531368  0  1.56604  0  0  -0.311614  -0.503266  0  1.607835  0
Cl  Cl53  1  0.96680602  0.41826978  0.78734130  1  0  -0.579921  0  1.236093  0  0  -0.515184  0  1.591438  0  0  -0.531375  0  1.566126  0  0  -0.311663  -0.503302  0  1.607956  0
Cl  Cl54  1  0.96680804  0.91827335  0.71265823  1  0  -0.579929  0  1.23605  0  0  -0.515176  0  1.591354  0  0  -0.53136  0  1.56602  0  0  -0.311667  -0.503296  0  1.60786  0
Cl  Cl55  1  0.03320361  0.58173558  0.21265394  1  0  -0.579886  0  1.236115  0  0  -0.515113  0  1.591396  0  0  -0.531318  0  1.566095  0  0  -0.311621  -0.503231  0  1.6079  0
