# generated using pymatgen
data_CuH7C7NClO
_symmetry_space_group_name_H-M   'P 1'
_cell_length_a   3.74351650
_cell_length_b   12.97120131
_cell_length_c   15.74613949
_cell_angle_alpha   89.99965587
_cell_angle_beta   89.99992754
_cell_angle_gamma   98.48163044
_symmetry_Int_Tables_number   1
_chemical_formula_structural   CuH7C7NClO
_chemical_formula_sum   'Cu4 H28 C28 N4 Cl4 O4'
_cell_volume   756.23729120
_cell_formula_units_Z   4
loop_
 _symmetry_equiv_pos_site_id
 _symmetry_equiv_pos_as_xyz
  1  'x, y, z'
loop_
 _atom_site_type_symbol
 _atom_site_label
 _atom_site_symmetry_multiplicity
 _atom_site_fract_x
 _atom_site_fract_y
 _atom_site_fract_z
 _atom_site_occupancy
 _atom_site_hle17_bader_spin_density
 _atom_site_hle17_ddec_charge
 _atom_site_hle17_ddec_spin_density
 _atom_site_hle17_ddec_sum_bond_order
 _atom_site_hle17_magmom
 _atom_site_hse06_10hf_bader_spin_density
 _atom_site_hse06_10hf_ddec_charge
 _atom_site_hse06_10hf_ddec_spin_density
 _atom_site_hse06_10hf_ddec_sum_bond_order
 _atom_site_hse06_10hf_magmom
 _atom_site_hse06_bader_spin_density
 _atom_site_hse06_ddec_charge
 _atom_site_hse06_ddec_spin_density
 _atom_site_hse06_ddec_sum_bond_order
 _atom_site_hse06_magmom
 _atom_site_pbe_bader_spin_density
 _atom_site_pbe_cm5_charge
 _atom_site_pbe_ddec_charge
 _atom_site_pbe_ddec_spin_density
 _atom_site_pbe_ddec_sum_bond_order
 _atom_site_pbe_magmom
Cu  Cu0  1  0.75478161  0.50453285  0.56088980  1  0  0.370492  0  2.021851  0  0  0.276188  0  2.527206  0  0  0.285811  0  2.467698  0  0  0.332313  0.27234  0  2.566013  0
Cu  Cu1  1  0.74521854  0.99547166  0.06088858  1  0  0.370569  0  2.021804  0  0  0.276256  0  2.52721  0  0  0.285902  0  2.467688  0  0  0.332345  0.272412  0  2.566042  0
Cu  Cu2  1  0.24521283  0.49547357  0.43911019  1  0  0.370507  0  2.021888  0  0  0.276218  0  2.527259  0  0  0.285875  0  2.467748  0  0  0.332346  0.272369  0  2.566078  0
Cu  Cu3  1  0.25477193  0.00452619  0.93910887  1  0  0.370522  0  2.021824  0  0  0.27623  0  2.527206  0  0  0.285877  0  2.467676  0  0  0.332345  0.272386  0  2.566029  0
H  H4  1  0.34495833  0.58254892  0.01338657  1  0  0.145948  0  0.965143  0  0  0.161462  0  1.028345  0  0  0.165028  0  1.025961  0  0  0.097756  0.158909  0  1.030056  0
H  H5  1  0.15504992  0.91744693  0.51338388  1  0  0.14592  0  0.965191  0  0  0.161448  0  1.028387  0  0  0.16499  0  1.026026  0  0  0.09774  0.158892  0  1.030092  0
H  H6  1  0.65503996  0.41744274  0.98661533  1  0  0.145912  0  0.965229  0  0  0.161447  0  1.028404  0  0  0.164997  0  1.026035  0  0  0.097753  0.158893  0  1.030113  0
H  H7  1  0.84498091  0.08255731  0.48661103  1  0  0.145885  0  0.965188  0  0  0.161404  0  1.028388  0  0  0.164954  0  1.026015  0  0  0.097709  0.158848  0  1.030096  0
H  H8  1  0.96649026  0.64147728  0.97911512  1  0  0.14212  0  0.946641  0  0  0.165052  0  1.004936  0  0  0.166453  0  1.005123  0  0  0.102087  0.16393  0  1.004933  0
H  H9  1  0.53352528  0.85852016  0.47911145  1  0  0.142144  0  0.946647  0  0  0.16506  0  1.00497  0  0  0.166462  0  1.005157  0  0  0.102057  0.163933  0  1.004964  0
H  H10  1  0.03352126  0.35851988  0.02088995  1  0  0.142146  0  0.94661  0  0  0.165052  0  1.004958  0  0  0.166455  0  1.005144  0  0  0.102059  0.163926  0  1.004953  0
H  H11  1  0.46650020  0.14148405  0.52088092  1  0  0.142151  0  0.946564  0  0  0.165042  0  1.004933  0  0  0.166441  0  1.005126  0  0  0.102098  0.163918  0  1.004924  0
H  H12  1  0.40448673  0.70487101  0.95748497  1  0  0.133423  0  0.985675  0  0  0.15083  0  1.053964  0  0  0.152433  0  1.0543  0  0  0.086396  0.149383  0  1.053976  0
H  H13  1  0.09552774  0.79512142  0.45748541  1  0  0.133407  0  0.985748  0  0  0.150811  0  1.054048  0  0  0.152413  0  1.054383  0  0  0.086398  0.149357  0  1.05406  0
H  H14  1  0.59552422  0.29511914  0.04251692  1  0  0.133449  0  0.985644  0  0  0.15085  0  1.053937  0  0  0.152451  0  1.054275  0  0  0.08643  0.149401  0  1.053946  0
H  H15  1  0.90450236  0.20488126  0.54251268  1  0  0.133414  0  0.985626  0  0  0.150822  0  1.05391  0  0  0.152423  0  1.054244  0  0  0.086386  0.149375  0  1.05392  0
H  H16  1  0.03379435  0.47708105  0.73108532  1  0  0.083533  0  0.942581  0  0  0.089273  0  1.014258  0  0  0.09286  0  1.010014  0  0  0.113723  0.086524  0  1.017512  0
H  H17  1  0.46620481  0.02291805  0.23108637  1  0  0.083514  0  0.942622  0  0  0.089278  0  1.014252  0  0  0.092866  0  1.010003  0  0  0.113703  0.08653  0  1.017504  0
H  H18  1  0.96619380  0.52291756  0.26891213  1  0  0.083516  0  0.942731  0  0  0.089264  0  1.014363  0  0  0.092849  0  1.010121  0  0  0.113714  0.086518  0  1.017621  0
H  H19  1  0.53379904  0.97707985  0.76891108  1  0  0.083503  0  0.942709  0  0  0.089277  0  1.014329  0  0  0.092863  0  1.010086  0  0  0.113732  0.086531  0  1.017582  0
H  H20  1  0.15576468  0.77878236  0.85233334  1  0  0.101189  0  0.98691  0  0  0.11014  0  1.051676  0  0  0.112758  0  1.050087  0  0  0.091954  0.10775  0  1.053451  0
H  H21  1  0.34421286  0.72121540  0.35232582  1  0  0.101257  0  0.986868  0  0  0.11022  0  1.051616  0  0  0.112841  0  1.050027  0  0  0.091988  0.10783  0  1.053391  0
H  H22  1  0.84422202  0.22121314  0.14767428  1  0  0.10121  0  0.986754  0  0  0.110155  0  1.051568  0  0  0.112769  0  1.049986  0  0  0.091975  0.107797  0  1.053303  0
H  H23  1  0.65580530  0.27879033  0.64767354  1  0  0.10119  0  0.986849  0  0  0.110141  0  1.051633  0  0  0.112753  0  1.050052  0  0  0.09202  0.107761  0  1.053396  0
H  H24  1  0.94012659  0.85057584  0.71638037  1  0  0.116991  0  0.964429  0  0  0.123855  0  1.02789  0  0  0.128039  0  1.025474  0  0  0.107379  0.120725  0  1.029987  0
H  H25  1  0.55986750  0.64942355  0.21637391  1  0  0.11702  0  0.964343  0  0  0.123861  0  1.027823  0  0  0.128037  0  1.025421  0  0  0.107409  0.120708  0  1.029938  0
H  H26  1  0.05987747  0.14942829  0.28362915  1  0  0.116986  0  0.964455  0  0  0.123836  0  1.027903  0  0  0.128024  0  1.025498  0  0  0.107437  0.120672  0  1.03002  0
H  H27  1  0.44013830  0.35057280  0.78362735  1  0  0.117023  0  0.964392  0  0  0.123864  0  1.027874  0  0  0.128063  0  1.02544  0  0  0.107408  0.1207  0  1.029994  0
H  H28  1  0.77324222  0.72964005  0.59529260  1  0  0.081845  0  0.935167  0  0  0.092539  0  0.995354  0  0  0.095133  0  0.993161  0  0  0.114386  0.090431  0  0.997277  0
H  H29  1  0.72676401  0.77036655  0.09529058  1  0  0.081813  0  0.93522  0  0  0.092504  0  0.995402  0  0  0.095101  0  0.993207  0  0  0.114365  0.090401  0  0.997332  0
H  H30  1  0.22675366  0.27036949  0.40471057  1  0  0.081868  0  0.935243  0  0  0.092522  0  0.995453  0  0  0.095117  0  0.993259  0  0  0.114365  0.090419  0  0.997371  0
H  H31  1  0.27323376  0.22962977  0.90470878  1  0  0.08184  0  0.935217  0  0  0.092541  0  0.995379  0  0  0.095136  0  0.993186  0  0  0.114381  0.090436  0  0.997303  0
C  C32  1  0.23555803  0.57022776  0.87968149  1  0  0.503695  0  3.673624  0  0  0.488187  0  3.941871  0  0  0.509765  0  3.94624  0  0  0.166195  0.473331  0  3.938893  0
C  C33  1  0.26443067  0.92977139  0.37967932  1  0  0.503844  0  3.673799  0  0  0.488481  0  3.941816  0  0  0.510058  0  3.946172  0  0  0.166271  0.473627  0  3.938843  0
C  C34  1  0.76441833  0.42976847  0.12031977  1  0  0.503886  0  3.673696  0  0  0.488458  0  3.941811  0  0  0.510033  0  3.946172  0  0  0.166312  0.473608  0  3.938842  0
C  C35  1  0.73557715  0.07023508  0.62031432  1  0  0.503625  0  3.673673  0  0  0.488202  0  3.94178  0  0  0.509777  0  3.946141  0  0  0.166309  0.473344  0  3.938804  0
C  C36  1  0.24024387  0.62733478  0.96259120  1  0  -0.445325  0  3.659625  0  0  -0.524779  0  3.889511  0  0  -0.531  0  3.893598  0  0  -0.253534  -0.520038  0  3.886861  0
C  C37  1  0.25976520  0.87265759  0.46259058  1  0  -0.445345  0  3.659674  0  0  -0.524848  0  3.889485  0  0  -0.531047  0  3.893599  0  0  -0.253511  -0.520103  0  3.886831  0
C  C38  1  0.75975674  0.37265611  0.03740943  1  0  -0.445374  0  3.659616  0  0  -0.52487  0  3.889487  0  0  -0.531072  0  3.89358  0  0  -0.253555  -0.520128  0  3.886832  0
C  C39  1  0.74026454  0.12734430  0.53740560  1  0  -0.445297  0  3.659629  0  0  -0.524747  0  3.889466  0  0  -0.530947  0  3.893571  0  0  -0.253544  -0.520007  0  3.886811  0
C  C40  1  0.01480024  0.56010661  0.73031351  1  0  0.128822  0  3.64785  0  0  0.084325  0  3.904922  0  0  0.093668  0  3.919266  0  0  0.051677  0.078195  0  3.895604  0
C  C41  1  0.48518997  0.93989370  0.23030996  1  0  0.128912  0  3.647865  0  0  0.084474  0  3.904852  0  0  0.093817  0  3.919194  0  0  0.051805  0.078347  0  3.895536  0
C  C42  1  0.98518096  0.43989431  0.26968712  1  0  0.128844  0  3.647904  0  0  0.084436  0  3.904921  0  0  0.093776  0  3.919269  0  0  0.051731  0.078304  0  3.895615  0
C  C43  1  0.51481728  0.06010577  0.76968495  1  0  0.128835  0  3.647746  0  0  0.084357  0  3.904806  0  0  0.093697  0  3.919153  0  0  0.051659  0.078226  0  3.895488  0
C  C44  1  0.11098337  0.62131718  0.80220462  1  0  -0.108846  0  3.746899  0  0  -0.083767  0  3.97982  0  0  -0.095985  0  4.005801  0  0  -0.019098  -0.075979  0  3.962686  0
C  C45  1  0.38899613  0.87868409  0.30220203  1  0  -0.108732  0  3.746686  0  0  -0.083725  0  3.979587  0  0  -0.095942  0  4.005572  0  0  -0.019098  -0.075933  0  3.962454  0
C  C46  1  0.88898944  0.37868293  0.19779792  1  0  -0.108717  0  3.746714  0  0  -0.083685  0  3.979618  0  0  -0.095898  0  4.0056  0  0  -0.019067  -0.075898  0  3.962497  0
C  C47  1  0.61100721  0.12131847  0.69779352  1  0  -0.108732  0  3.746791  0  0  -0.0837  0  3.979709  0  0  -0.095914  0  4.00569  0  0  -0.019115  -0.075899  0  3.962561  0
C  C48  1  0.08277254  0.72772605  0.79824910  1  0  -0.020389  0  3.685026  0  0  -0.049967  0  3.931118  0  0  -0.044173  0  3.949969  0  0  -0.06752  -0.053807  0  3.91899  0
C  C49  1  0.41721698  0.77227373  0.29824385  1  0  -0.020645  0  3.685269  0  0  -0.050237  0  3.931372  0  0  -0.044439  0  3.950203  0  0  -0.06759  -0.054071  0  3.919234  0
C  C50  1  0.91721597  0.27227334  0.20175787  1  0  -0.02055  0  3.68507  0  0  -0.050143  0  3.931207  0  0  -0.044339  0  3.950042  0  0  -0.067567  -0.054003  0  3.919044  0
C  C51  1  0.58279830  0.22772577  0.70175423  1  0  -0.020409  0  3.684934  0  0  -0.049974  0  3.931024  0  0  -0.044175  0  3.949874  0  0  -0.067516  -0.053819  0  3.918878  0
C  C52  1  0.96371629  0.76827313  0.72312317  1  0  -0.117843  0  3.721845  0  0  -0.127393  0  3.971878  0  0  -0.136195  0  3.993205  0  0  -0.083789  -0.121847  0  3.958104  0
C  C53  1  0.53626544  0.73172848  0.22311949  1  0  -0.117809  0  3.721858  0  0  -0.127339  0  3.971889  0  0  -0.136139  0  3.99322  0  0  -0.083895  -0.121764  0  3.958145  0
C  C54  1  0.03627439  0.23173094  0.27688253  1  0  -0.117847  0  3.721834  0  0  -0.127368  0  3.971849  0  0  -0.136183  0  3.99317  0  0  -0.083958  -0.121786  0  3.958108  0
C  C55  1  0.46373038  0.26826938  0.77688050  1  0  -0.117894  0  3.721732  0  0  -0.127449  0  3.971765  0  0  -0.136263  0  3.993086  0  0  -0.083885  -0.121866  0  3.95802  0
C  C56  1  0.87067537  0.70160756  0.65504063  1  0  0.14074  0  3.650474  0  0  0.108972  0  3.898861  0  0  0.116732  0  3.915705  0  0  0.04844  0.103796  0  3.887958  0
C  C57  1  0.62932383  0.79839621  0.15503787  1  0  0.140884  0  3.650437  0  0  0.109139  0  3.898771  0  0  0.116896  0  3.915617  0  0  0.048603  0.103959  0  3.887879  0
C  C58  1  0.12932334  0.29839654  0.34496381  1  0  0.140764  0  3.650397  0  0  0.10908  0  3.898727  0  0  0.116843  0  3.91557  0  0  0.048593  0.103905  0  3.88782  0
C  C59  1  0.37067467  0.20160167  0.84496149  1  0  0.140767  0  3.650539  0  0  0.109042  0  3.898873  0  0  0.116797  0  3.915728  0  0  0.048505  0.103864  0  3.88797  0
N  N60  1  0.89303263  0.59836795  0.65824738  1  0  -0.286076  0  3.379443  0  0  -0.213803  0  3.683505  0  0  -0.226701  0  3.690475  0  0  -0.363981  -0.206304  0  3.679138  0
N  N61  1  0.60696762  0.90163814  0.15824285  1  0  -0.286322  0  3.379626  0  0  -0.214088  0  3.683724  0  0  -0.226993  0  3.690698  0  0  -0.364135  -0.206592  0  3.679376  0
N  N62  1  0.10695913  0.40163846  0.34175706  1  0  -0.286145  0  3.379463  0  0  -0.213971  0  3.683573  0  0  -0.226878  0  3.690557  0  0  -0.364059  -0.206474  0  3.67922  0
N  N63  1  0.39303731  0.09836210  0.84175333  1  0  -0.286119  0  3.379479  0  0  -0.213903  0  3.683581  0  0  -0.226805  0  3.690554  0  0  -0.364017  -0.206406  0  3.679226  0
Cl  Cl64  1  0.78272669  0.60994762  0.43614721  1  0  -0.486161  0  1.492462  0  0  -0.415429  0  1.889017  0  0  -0.429525  0  1.847453  0  0  -0.269187  -0.404827  0  1.916666  0
Cl  Cl65  1  0.71726092  0.89005237  0.93614719  1  0  -0.486201  0  1.492445  0  0  -0.41548  0  1.889023  0  0  -0.429571  0  1.847443  0  0  -0.269198  -0.404879  0  1.916686  0
Cl  Cl66  1  0.21727310  0.39005882  0.56385405  1  0  -0.486172  0  1.492428  0  0  -0.415444  0  1.888984  0  0  -0.429527  0  1.847407  0  0  -0.269208  -0.404846  0  1.916641  0
Cl  Cl67  1  0.28273259  0.10994627  0.06385027  1  0  -0.486179  0  1.492423  0  0  -0.41544  0  1.888979  0  0  -0.429534  0  1.847406  0  0  -0.269186  -0.404844  0  1.916649  0
O  O68  1  0.32931501  0.48293442  0.87424735  1  0  -0.48415  0  1.915259  0  0  -0.435654  0  2.117329  0  0  -0.455093  0  2.115593  0  0  -0.255203  -0.422487  0  2.118516  0
O  O69  1  0.17067534  0.01705342  0.37424659  1  0  -0.484235  0  1.915615  0  0  -0.435837  0  2.117684  0  0  -0.455272  0  2.115937  0  0  -0.255259  -0.422669  0  2.118877  0
O  O70  1  0.67066274  0.51705326  0.12575328  1  0  -0.484286  0  1.915533  0  0  -0.43586  0  2.117625  0  0  -0.455294  0  2.11588  0  0  -0.255309  -0.422695  0  2.118825  0
O  O71  1  0.82931637  0.98294132  0.62574769  1  0  -0.484123  0  1.91522  0  0  -0.435697  0  2.11735  0  0  -0.455131  0  2.115599  0  0  -0.25527  -0.422533  0  2.11855  0
