# generated using pymatgen
data_Ni3H30C38(N4O7)2
_symmetry_space_group_name_H-M   'P 1'
_cell_length_a   10.04592605
_cell_length_b   14.81587278
_cell_length_c   17.74259283
_cell_angle_alpha   82.31497374
_cell_angle_beta   73.63664535
_cell_angle_gamma   70.05870297
_symmetry_Int_Tables_number   1
_chemical_formula_structural   Ni3H30C38(N4O7)2
_chemical_formula_sum   'Ni6 H60 C76 N16 O28'
_cell_volume   2379.82878858
_cell_formula_units_Z   2
loop_
 _symmetry_equiv_pos_site_id
 _symmetry_equiv_pos_as_xyz
  1  'x, y, z'
loop_
 _atom_site_type_symbol
 _atom_site_label
 _atom_site_symmetry_multiplicity
 _atom_site_fract_x
 _atom_site_fract_y
 _atom_site_fract_z
 _atom_site_occupancy
 _atom_site_pbe_bader_charge
 _atom_site_pbe_bader_spin_density
 _atom_site_pbe_cm5_charge
 _atom_site_pbe_ddec_charge
 _atom_site_pbe_ddec_spin_density
 _atom_site_pbe_ddec_sum_bond_order
 _atom_site_pbe_magmom
Ni  Ni0  1  0.99985637  0.50000212  0.50034676  1  1.189319  -1.571455  0.626616  0.78472  -1.898723  2.332776  -1.561
Ni  Ni1  1  0.99970702  0.00053694  0.99949273  1  1.184879  1.571349  0.626371  0.784602  1.86489  2.331181  1.561
Ni  Ni2  1  0.73794697  0.28194692  0.42232360  1  1.086741  -0.019635  0.60426  0.700881  -0.030929  2.49553  -0.02
Ni  Ni3  1  0.44307587  0.21839156  0.07841429  1  1.130712  1.528489  0.626418  0.749302  1.813802  2.476244  1.514
Ni  Ni4  1  0.26030200  0.71810608  0.57845615  1  1.129295  -1.52854  0.627857  0.751756  -1.847915  2.476741  -1.514
Ni  Ni5  1  0.55690152  0.78184068  0.92196497  1  1.130397  1.528674  0.6262  0.748473  1.813461  2.475498  1.514
H  H6  1  0.01830629  0.19585530  0.47685533  1  0.128926  0.000944  0.119369  0.093628  0.000374  1.019765  0.001
H  H7  1  0.69088112  0.30646312  0.02241868  1  0.130125  0.0021  0.117273  0.090311  0.000853  1.019208  0.001
H  H8  1  0.97994184  0.80612448  0.52197272  1  0.120082  -0.002125  0.117685  0.091225  -0.000896  1.018555  -0.001
H  H9  1  0.30895120  0.69380496  0.97798322  1  0.126226  0.002111  0.117694  0.090739  0.00086  1.019405  0.001
H  H10  1  0.42526310  0.38733077  0.11314795  1  0.415651  -0.000697  0.314347  0.299707  -8.8e-05  0.922093  -0.001
H  H11  1  0.92777788  0.10989913  0.38744517  1  0.421133  -0.000343  0.312299  0.297282  -6.7e-05  0.927395  0.0
H  H12  1  0.57587278  0.61238319  0.88815791  1  0.413733  -0.00067  0.314476  0.300302  -7.6e-05  0.923094  -0.001
H  H13  1  0.07542723  0.88769776  0.61204359  1  0.421118  0.00065  0.313957  0.299167  4.7e-05  0.922223  0.001
H  H14  1  0.25802481  0.38717793  0.11659126  1  0.428167  -0.000557  0.319351  0.311765  -6.7e-05  0.904575  -0.001
H  H15  1  0.76429876  0.10880957  0.38351129  1  0.437839  -1.2e-05  0.318026  0.309019  0.000112  0.908105  0.0
H  H16  1  0.74297339  0.61330329  0.88433917  1  0.447844  -0.000567  0.318496  0.310035  -5.3e-05  0.905035  -0.001
H  H17  1  0.23960184  0.88658399  0.61608567  1  0.439064  0.000568  0.319241  0.311101  4.3e-05  0.905284  0.001
H  H18  1  0.59603959  0.47571953  0.44577124  1  0.599057  0.000492  0.317187  0.399605  0.000332  0.883504  0.001
H  H19  1  0.51277691  0.03104935  0.05549309  1  0.608064  0.000749  0.321116  0.403591  0.000801  0.874994  0.001
H  H20  1  0.40492782  0.53050452  0.55306917  1  0.592144  -0.000623  0.319224  0.402658  -0.000588  0.878665  -0.001
H  H21  1  0.48710789  0.96910096  0.94472588  1  0.607175  0.000748  0.320994  0.403159  0.000801  0.875796  0.001
H  H22  1  0.74405115  0.43005425  0.47153661  1  0.632651  -0.00049  0.291469  0.379235  -0.000189  0.965696  0.0
H  H23  1  0.64510569  0.07321474  0.02897153  1  0.639066  -0.000117  0.294336  0.382613  0.000173  0.960438  0.0
H  H24  1  0.25290722  0.57256781  0.52979430  1  0.645262  0.000143  0.293986  0.382771  -0.000187  0.959928  0.0
H  H25  1  0.35452043  0.92714473  0.97071621  1  0.662282  -9.8e-05  0.294167  0.38262  0.000169  0.960568  0.0
H  H26  1  0.53782426  0.32690330  0.22499714  1  0.092686  -1.8e-05  0.108681  0.123735  1.7e-05  1.010331  0.0
H  H27  1  0.09081581  0.17020262  0.27588832  1  0.104986  0.000242  0.108425  0.123414  0.000144  1.010035  0.0
H  H28  1  0.46291147  0.67188404  0.77628165  1  0.133301  -0.000262  0.108331  0.123342  -0.000189  1.009269  0.0
H  H29  1  0.91034094  0.82843035  0.72383055  1  0.112169  0.000249  0.109091  0.123642  0.000172  1.010152  0.0
H  H30  1  0.08774051  0.36406481  0.23715507  1  0.069022  -0.000134  0.112271  0.125502  -0.000146  0.979436  0.0
H  H31  1  0.69108102  0.13316655  0.26233652  1  0.071345  0.000157  0.111119  0.124545  6.6e-05  0.98196  0.0
H  H32  1  0.91288520  0.63559604  0.76339553  1  0.055978  -0.000168  0.112232  0.125581  -0.000164  0.98185  0.0
H  H33  1  0.31121436  0.86407296  0.73711967  1  0.071364  0.000187  0.112532  0.126409  0.000162  0.98123  0.0
H  H34  1  0.78302666  0.99552763  0.91636369  1  0.112683  0.002355  0.117419  0.09939  0.001046  1.024442  0.001
H  H35  1  0.69533511  0.50520500  0.58280999  1  0.111063  -0.001759  0.117214  0.099077  -0.00057  1.026963  -0.001
H  H36  1  0.21638991  0.00507292  0.08257137  1  0.121699  0.002392  0.117507  0.099452  0.00106  1.024058  0.001
H  H37  1  0.30478720  0.49461151  0.41790217  1  0.110992  -0.002411  0.117048  0.098768  -0.001129  1.024798  -0.001
H  H38  1  0.11543823  0.11576685  0.85532705  1  0.128325  0.001565  0.115496  0.102596  0.000587  1.007091  0.001
H  H39  1  0.08788199  0.38448810  0.64388011  1  0.11487  -0.001596  0.11558  0.102415  -0.000591  1.00866  -0.001
H  H40  1  0.88381440  0.88496728  0.14317798  1  0.114087  0.001597  0.115787  0.103112  0.000579  1.007815  0.001
H  H41  1  0.91269794  0.61553359  0.35645560  1  0.120534  -0.001561  0.116022  0.102861  -0.000585  1.008033  -0.001
H  H42  1  0.06576285  0.17210649  0.72259576  1  0.091006  0.000955  0.109612  0.117541  0.000455  1.004865  0.0
H  H43  1  0.96252601  0.32793071  0.77646896  1  0.083492  -0.000899  0.109337  0.117906  -0.000426  1.004181  0.0
H  H44  1  0.93348758  0.82820219  0.27585741  1  0.080648  0.000911  0.109538  0.117682  0.000409  1.004282  0.0
H  H45  1  0.03855959  0.67149186  0.22374923  1  0.094156  -0.000867  0.109545  0.117562  -0.000417  1.003899  0.0
H  H46  1  0.57254438  0.24940867  0.57597232  1  0.140978  0.001168  0.130212  0.113956  0.000554  0.969003  0.001
H  H47  1  0.39904725  0.25270528  0.92264161  1  0.129442  0.00195  0.129872  0.111688  0.000781  0.968614  0.002
H  H48  1  0.42544304  0.75281092  0.42333441  1  0.15235  -0.001945  0.129327  0.111842  -0.000802  0.969164  -0.002
H  H49  1  0.60113437  0.74718650  0.07772451  1  0.134572  0.001956  0.129709  0.111788  0.000785  0.968119  0.002
H  H50  1  0.61494428  0.18967413  0.70738713  1  0.088804  0.000531  0.112029  0.11873  0.00025  1.014663  0.0
H  H51  1  0.51478241  0.31044424  0.79086401  1  0.083861  0.000874  0.111301  0.118145  0.00042  1.016333  0.0
H  H52  1  0.38393951  0.81067315  0.29130285  1  0.079906  -0.00082  0.111422  0.117879  -0.000395  1.015486  0.0
H  H53  1  0.48651723  0.68836866  0.20932700  1  0.08151  0.000824  0.111638  0.118423  0.000388  1.014939  0.0
H  H54  1  0.07874870  0.13533131  0.60126258  1  0.130459  0.000406  0.113778  0.133332  0.000175  0.998743  0.0
H  H55  1  0.81674459  0.36551863  0.89781001  1  0.119208  0.00092  0.113456  0.133772  0.000463  0.998244  0.0
H  H56  1  0.91978460  0.86551945  0.39710039  1  0.122523  -0.000702  0.113439  0.132993  -0.000323  0.998113  0.0
H  H57  1  0.18388028  0.63394037  0.10247871  1  0.117993  0.000915  0.114041  0.134302  0.000457  0.997063  0.0
H  H58  1  0.68532407  0.97220057  0.81148162  1  0.497205  0.000444  0.28702  0.297916  0.000404  1.012998  0.0
H  H59  1  0.46984490  0.52794320  0.68734988  1  0.491857  -0.000416  0.287811  0.299278  -0.00038  1.012105  0.0
H  H60  1  0.31402806  0.02794399  0.18763229  1  0.489738  0.000445  0.287501  0.297891  0.000412  1.013682  0.0
H  H61  1  0.53048035  0.47167208  0.31389420  1  0.508297  4.7e-05  0.288501  0.297305  8e-05  1.00983  0.0
H  H62  1  0.68861890  0.04367829  0.72930927  1  0.425507  0.000246  0.296615  0.284512  0.000136  0.968788  0.0
H  H63  1  0.46292028  0.45627588  0.76934605  1  0.430014  -0.000281  0.296227  0.28525  -0.000159  0.96854  0.0
H  H64  1  0.31106045  0.95615746  0.26950480  1  0.425757  0.000275  0.296285  0.284219  0.000148  0.970658  0.0
H  H65  1  0.53822206  0.54215576  0.23129497  1  0.404935  -0.000311  0.297205  0.286488  -0.00016  0.966565  0.0
C  C66  1  0.93081701  0.19200180  0.52861658  1  0.498532  -0.000285  0.043223  0.092874  8e-05  3.931679  0.0
C  C67  1  0.65178378  0.31015828  0.97039204  1  0.410005  -0.005544  0.043736  0.098157  -0.003018  3.937679  -0.004
C  C68  1  0.06742208  0.80988826  0.47011707  1  0.408844  0.005655  0.044584  0.099088  0.002973  3.93503  0.004
C  C69  1  0.34832470  0.68982193  0.02996896  1  0.426791  -0.00563  0.0444  0.098938  -0.003056  3.935268  -0.004
C  C70  1  0.31696269  0.34640475  0.22060053  1  0.281441  -0.006277  0.081364  0.268011  -0.003398  4.035312  -0.006
C  C71  1  0.88572238  0.15026047  0.27976784  1  0.35534  -0.00207  0.083161  0.273133  -0.001024  4.05113  -0.002
C  C72  1  0.68364840  0.65307811  0.78038223  1  0.300206  -0.006458  0.080836  0.267263  -0.003401  4.042312  -0.007
C  C73  1  0.11626271  0.84704232  0.71997614  1  0.22043  0.006359  0.081894  0.268873  0.003264  4.042093  0.006
C  C74  1  0.14642318  0.34114282  0.34745880  1  0.009495  -0.010394  -0.014206  -0.05374  -0.006223  3.987749  -0.008
C  C75  1  0.83639178  0.15780083  0.15259239  1  0.015511  0.002744  -0.01648  -0.054346  0.001698  3.99686  0.002
C  C76  1  0.85326031  0.65840305  0.65337112  1  -0.031191  -0.010049  -0.014862  -0.054793  -0.005985  3.996147  -0.008
C  C77  1  0.16442662  0.84167818  0.84706598  1  -0.016027  0.010009  -0.015303  -0.053836  0.00585  3.995951  0.008
C  C78  1  0.39898160  0.31740207  0.34053654  1  0.025332  -0.004482  -0.017845  -0.056551  -0.002703  3.988514  -0.003
C  C79  1  0.05724485  0.18147022  0.16026099  1  -0.00871  0.000389  -0.018014  -0.054246  0.000537  3.996206  0.0
C  C80  1  0.60103944  0.68205428  0.66067365  1  -0.020921  -0.007197  -0.018428  -0.055025  -0.004536  3.992761  -0.005
C  C81  1  0.94309469  0.81842061  0.83958412  1  -0.004978  0.007154  -0.017678  -0.05445  0.004428  3.993727  0.005
C  C82  1  0.42736244  0.33081975  0.25863531  1  -0.000672  0.014793  -0.085069  -0.178488  0.00863  3.93108  0.009
C  C83  1  0.01769414  0.16695088  0.24201396  1  -0.016159  0.011968  -0.088735  -0.185082  0.006993  3.934478  0.007
C  C84  1  0.57309418  0.66852615  0.74251454  1  -0.051099  0.014308  -0.085052  -0.178292  0.008152  3.931991  0.009
C  C85  1  0.98332288  0.83181342  0.75773062  1  0.063628  -0.014164  -0.086451  -0.179071  -0.00827  3.932494  -0.009
C  C86  1  0.17645650  0.35098939  0.26544165  1  0.053848  0.016653  -0.082925  -0.178102  0.00966  3.916721  0.011
C  C87  1  0.79465533  0.14654622  0.23447952  1  0.049047  0.010706  -0.08471  -0.183402  0.006313  3.923878  0.007
C  C88  1  0.82393224  0.64847571  0.73536024  1  0.057657  0.016478  -0.084045  -0.179597  0.009574  3.922763  0.01
C  C89  1  0.20707809  0.85145700  0.76508393  1  0.030466  -0.016426  -0.084502  -0.182094  -0.009708  3.923366  -0.01
C  C90  1  0.25750618  0.32185991  0.38668214  1  -0.011937  0.016481  -0.00118  -0.057341  0.00985  3.898534  0.01
C  C91  1  0.96685526  0.17737498  0.11368006  1  -0.085938  0.013699  -0.003916  -0.063003  0.007895  3.906849  0.009
C  C92  1  0.74211120  0.67770187  0.61431893  1  0.020423  0.015129  -0.001799  -0.058312  0.009079  3.904067  0.01
C  C93  1  0.03354869  0.82269069  0.88602910  1  -0.050421  -0.01504  -0.00299  -0.061517  -0.009189  3.906313  -0.01
C  C94  1  0.22243200  0.31173611  0.47596544  1  1.608816  -0.005224  0.192365  0.577623  -0.004915  4.279284  -0.004
C  C95  1  0.01064191  0.18802587  0.02445829  1  1.671495  0.004208  0.190924  0.576968  0.004133  4.276763  0.002
C  C96  1  0.77680908  0.68819573  0.52504706  1  1.609096  -0.004968  0.191698  0.576051  -0.004742  4.277864  -0.003
C  C97  1  0.98918055  0.81274584  0.97529748  1  1.666425  0.004988  0.192669  0.579497  0.004663  4.27375  0.003
C  C98  1  0.52200905  0.30400100  0.37626283  1  1.488694  -0.000118  0.199553  0.544041  -0.000542  4.14807  0.001
C  C99  1  0.20249362  0.19479445  0.12511235  1  1.507422  -0.003611  0.198274  0.549835  -0.001572  4.168619  -0.006
C  C100  1  0.47790299  0.69473481  0.62525390  1  1.516391  0.003488  0.196798  0.54743  0.001292  4.171917  0.006
C  C101  1  0.79750204  0.80564181  0.87499202  1  1.506769  -0.003403  0.198816  0.550892  -0.001386  4.168486  -0.006
C  C102  1  0.99069443  0.35355192  0.39136719  1  1.554038  -0.001206  0.22396  0.583735  -0.002678  4.148727  0.0
C  C103  1  0.73673631  0.14653919  0.10852838  1  1.551484  -0.002152  0.223404  0.586872  8.9e-05  4.148474  -0.002
C  C104  1  0.00844156  0.64635834  0.60930473  1  1.562544  0.00227  0.223946  0.587628  -0.000252  4.148315  0.003
C  C105  1  0.26360519  0.85355468  0.89116404  1  1.553881  -0.002192  0.223487  0.587055  0.000138  4.149634  -0.003
C  C106  1  0.84184405  0.03607685  0.87182224  1  0.495007  -0.003918  0.038571  -0.012846  -0.00181  3.900044  -0.003
C  C107  1  0.75059713  0.46454000  0.62727421  1  0.519104  0.004253  0.039223  -0.011483  0.001911  3.898275  0.003
C  C108  1  0.15761137  0.96437849  0.12694851  1  0.518124  -0.003696  0.038939  -0.011553  -0.001615  3.901231  -0.003
C  C109  1  0.24979544  0.53526081  0.37330984  1  0.520668  0.004122  0.039863  -0.01063  0.001815  3.900988  0.003
C  C110  1  0.80410508  0.06402899  0.79934351  1  0.476202  0.003788  0.101702  0.218157  0.002309  4.056615  0.003
C  C111  1  0.66880153  0.43619709  0.69950685  1  0.454239  -0.005206  0.102483  0.221153  -0.003188  4.055008  -0.004
C  C112  1  0.19539600  0.93614975  0.19934685  1  0.40185  0.005632  0.101895  0.218147  0.003363  4.059647  0.004
C  C113  1  0.33185932  0.56316181  0.30099084  1  0.389237  -0.005537  0.101851  0.218853  -0.00334  4.056722  -0.004
C  C114  1  0.88437709  0.11715976  0.74387386  1  -0.052827  -0.00396  -0.013907  -0.03549  -0.002387  3.969304  -0.002
C  C115  1  0.74729680  0.38302544  0.75492617  1  -0.047861  0.005034  -0.013685  -0.03387  0.002946  3.969472  0.004
C  C116  1  0.11485380  0.88308025  0.25463651  1  0.056887  -0.005015  -0.013737  -0.03415  -0.00298  3.972752  -0.004
C  C117  1  0.25372580  0.61613234  0.24536181  1  0.016903  0.005552  -0.012713  -0.032118  0.003244  3.966652  0.004
C  C118  1  0.85223085  0.15307395  0.66731547  1  -0.039101  -0.001314  0.008739  0.11261  -0.000817  3.994262  -0.001
C  C119  1  0.67442498  0.34752873  0.83146343  1  -0.004851  -0.007541  0.009018  0.115746  -0.004478  3.991347  -0.005
C  C120  1  0.14656659  0.84753385  0.33131542  1  -0.080929  0.007794  0.0086  0.114783  0.004554  3.991999  0.005
C  C121  1  0.32657198  0.65160947  0.16876082  1  -0.002032  -0.007685  0.009439  0.115602  -0.004568  3.990193  -0.005
C  C122  1  0.03049288  0.10154744  0.83648926  1  0.484327  -0.002026  0.023377  0.047163  -0.000666  3.977964  -0.001
C  C123  1  0.96993939  0.39869797  0.66265386  1  0.496524  0.002589  0.023516  0.049223  0.000891  3.980668  0.002
C  C124  1  0.96879458  0.89898509  0.16207679  1  0.449588  -0.002513  0.023217  0.047641  -0.000969  3.979647  -0.002
C  C125  1  0.03070519  0.60109298  0.33770178  1  0.477123  0.003173  0.02243  0.047892  0.001283  3.981324  0.002
C  C126  1  0.00019820  0.13287571  0.76407514  1  -0.049876  0.004488  -0.089029  -0.163327  0.00266  4.011323  0.004
C  C127  1  0.89900200  0.36721640  0.73491976  1  -0.03712  -0.005834  -0.090026  -0.167378  -0.003514  4.015449  -0.004
C  C128  1  0.99912170  0.86739036  0.23440083  1  -0.034002  0.006018  -0.089691  -0.165686  0.003606  4.014873  0.005
C  C129  1  0.10195255  0.63222804  0.26536035  1  -0.087061  -0.005927  -0.089254  -0.16556  -0.00356  4.011513  -0.004
C  C130  1  0.68290944  0.22186339  0.58461067  1  0.398655  0.000429  0.050094  0.096806  0.000514  3.925989  0.0
C  C131  1  0.49057210  0.27999503  0.91406252  1  0.448093  -0.004843  0.049194  0.101385  -0.002267  3.934972  -0.003
C  C132  1  0.31524812  0.78000150  0.41440241  1  0.466915  0.005025  0.047642  0.09693  0.002265  3.937347  0.003
C  C133  1  0.50979757  0.71971733  0.08627081  1  0.447872  -0.00489  0.050015  0.101681  -0.002298  3.932827  -0.003
C  C134  1  0.70847904  0.18733003  0.65756799  1  0.018812  0.001846  -0.087915  -0.191203  0.001182  3.964955  0.002
C  C135  1  0.55532381  0.31344258  0.84093542  1  -0.045305  0.006835  -0.089161  -0.195692  0.004055  3.963129  0.005
C  C136  1  0.29024475  0.81356066  0.34116849  1  -0.04028  -0.006856  -0.088925  -0.193313  -0.004132  3.961185  -0.005
C  C137  1  0.44566700  0.68568483  0.15929208  1  -0.051658  0.006908  -0.089364  -0.195623  0.004081  3.962411  0.005
C  C138  1  0.96441450  0.15718227  0.59984570  1  -0.061424  0.00156  -0.079602  -0.164398  0.000896  3.921537  0.001
C  C139  1  0.72261750  0.34410222  0.89914354  1  0.015416  0.006562  -0.079393  -0.16675  0.003967  3.921117  0.005
C  C140  1  0.03398476  0.84397271  0.39874404  1  0.04979  -0.006228  -0.080161  -0.167849  -0.003802  3.920579  -0.005
C  C141  1  0.27796310  0.65541790  0.10114008  1  0.003813  0.006694  -0.080764  -0.169  0.004034  3.920395  0.005
N  N142  1  0.95051952  0.05371354  0.88989768  1  -1.212986  0.063783  -0.317102  -0.20115  0.039897  3.604679  0.057
N  N143  1  0.89498966  0.44684702  0.60934778  1  -1.209128  -0.065858  -0.318922  -0.204052  -0.041831  3.608919  -0.059
N  N144  1  0.04877278  0.94696592  0.10888191  1  -1.215582  0.065847  -0.317768  -0.201853  0.041004  3.606529  0.059
N  N145  1  0.10538211  0.55304365  0.39113758  1  -1.199134  -0.064891  -0.317297  -0.202402  -0.041254  3.607324  -0.058
N  N146  1  0.34917200  0.35327177  0.13683944  1  -1.133989  0.074213  -0.584482  -0.58319  0.045785  3.434435  0.063
N  N147  1  0.84166453  0.14242984  0.36306980  1  -1.180642  0.044678  -0.579501  -0.580639  0.026953  3.426788  0.036
N  N148  1  0.65164576  0.64659815  0.86412673  1  -1.131399  0.074888  -0.584291  -0.582195  0.046198  3.436636  0.063
N  N149  1  0.16145456  0.85343841  0.63624978  1  -1.119499  -0.074699  -0.584869  -0.582758  -0.046985  3.437048  -0.063
N  N150  1  0.79264480  0.22383750  0.52021042  1  -1.215784  0.039016  -0.341512  -0.225887  0.023402  3.636176  0.031
N  N151  1  0.53694174  0.27883493  0.97864168  1  -1.211416  0.066296  -0.342201  -0.246813  0.041415  3.62338  0.059
N  N152  1  0.20535298  0.77865387  0.47870106  1  -1.230824  -0.066469  -0.341751  -0.244708  -0.042359  3.625046  -0.059
N  N153  1  0.46301377  0.72129949  0.02175936  1  -1.211345  0.066446  -0.341752  -0.245514  0.041534  3.618602  0.059
N  N154  1  0.69397378  0.03739569  0.78614701  1  -1.253537  0.00185  -0.59911  -0.609954  0.00101  3.32489  0.001
N  N155  1  0.51880788  0.46272030  0.71259533  1  -1.272288  -0.002442  -0.599817  -0.613419  -0.001378  3.324074  -0.002
N  N156  1  0.30557309  0.96262893  0.21268154  1  -1.246854  0.003172  -0.600043  -0.610903  0.001761  3.327724  0.002
N  N157  1  0.48195834  0.53641958  0.28806674  1  -1.218399  -0.000533  -0.599154  -0.61207  -0.00027  3.324899  0.0
O  O158  1  0.92754565  0.30570670  0.36750791  1  -1.132216  -0.08239  -0.302507  -0.51879  -0.049459  2.395119  -0.071
O  O159  1  0.60207022  0.19451700  0.13283416  1  -1.147753  0.075133  -0.306709  -0.529619  0.045221  2.40713  0.069
O  O160  1  0.07087442  0.69468798  0.63300930  1  -1.14007  -0.075637  -0.30651  -0.529565  -0.046508  2.4062  -0.069
O  O161  1  0.39827261  0.80531049  0.86738465  1  -1.147329  0.075712  -0.306152  -0.528711  0.045582  2.407085  0.069
O  O162  1  0.62325068  0.34162676  0.33980992  1  -1.116851  0.036486  -0.310415  -0.515725  0.021443  2.24604  0.032
O  O163  1  0.30436200  0.15531300  0.16169217  1  -1.147643  0.071926  -0.318115  -0.538529  0.043046  2.241634  0.065
O  O164  1  0.37903819  0.65560358  0.66194112  1  -1.147173  -0.072226  -0.316636  -0.536031  -0.044178  2.244841  -0.065
O  O165  1  0.69556984  0.84506028  0.83847979  1  -1.147431  0.072325  -0.317648  -0.538449  0.04332  2.240147  0.065
O  O166  1  0.19688867  0.38945535  0.51072875  1  -1.154456  -0.054675  -0.335727  -0.583293  -0.032983  2.265666  -0.047
O  O167  1  0.09695886  0.11037413  0.98913781  1  -1.160199  0.06093  -0.336467  -0.583766  0.035954  2.260885  0.053
O  O168  1  0.80356854  0.61056856  0.48979027  1  -1.153216  -0.055947  -0.336085  -0.583094  -0.033744  2.268129  -0.049
O  O169  1  0.90214166  0.89064689  0.00996451  1  -1.159075  0.055318  -0.336974  -0.584319  0.032754  2.261153  0.048
O  O170  1  0.92714849  0.40984386  0.44849360  1  -1.149265  -0.05845  -0.285598  -0.526658  -0.036399  2.387181  -0.054
O  O171  1  0.78565746  0.09100398  0.05081962  1  -1.150465  0.056424  -0.286183  -0.527726  0.03443  2.389969  0.053
O  O172  1  0.07272243  0.58985197  0.55224602  1  -1.148298  -0.056918  -0.28631  -0.527922  -0.035416  2.385027  -0.053
O  O173  1  0.21425822  0.90986791  0.94834986  1  -1.146028  0.056427  -0.286243  -0.528337  0.034414  2.390003  0.053
O  O174  1  0.53412958  0.25632587  0.44057161  1  -1.112126  -0.086132  -0.29427  -0.48925  -0.051791  2.172183  -0.075
O  O175  1  0.22988666  0.24398535  0.06157853  1  -1.122102  0.080786  -0.304416  -0.507407  0.048235  2.175892  0.073
O  O176  1  0.46504710  0.74325391  0.56135716  1  -1.123433  -0.081589  -0.303754  -0.507429  -0.049642  2.176978  -0.073
O  O177  1  0.77018131  0.75668953  0.93867269  1  -1.12058  0.081103  -0.303866  -0.507542  0.048405  2.176213  0.073
O  O178  1  0.21879424  0.23223893  0.50790290  1  -1.157616  -0.022051  -0.3355  -0.544717  -0.012784  2.082317  -0.018
O  O179  1  0.95959228  0.26790235  0.99287055  1  -1.15617  0.02722  -0.335333  -0.544205  0.015531  2.081918  0.023
O  O180  1  0.77932896  0.76802776  0.49346366  1  -1.151161  -0.022563  -0.335326  -0.543886  -0.013105  2.080997  -0.019
O  O181  1  0.04047122  0.73324809  0.00736512  1  -1.155794  0.022394  -0.335932  -0.545697  0.012717  2.080106  0.019
O  O182  1  0.64412375  0.42445405  0.47913873  1  -1.194318  0.034076  -0.563916  -0.737296  0.020345  2.079883  0.029
O  O183  1  0.54466739  0.08195833  0.02274929  1  -1.198804  0.060921  -0.561512  -0.732244  0.037021  2.107589  0.053
O  O184  1  0.35038536  0.58227987  0.52247813  1  -1.190189  -0.059187  -0.560788  -0.73332  -0.036819  2.119199  -0.052
O  O185  1  0.45473545  0.91830027  0.97735782  1  -1.22053  0.060833  -0.56152  -0.732003  0.037001  2.109827  0.053
