# generated using pymatgen
data_CuH16C16S2Br
_symmetry_space_group_name_H-M   'P 1'
_cell_length_a   11.44751147
_cell_length_b   11.94663692
_cell_length_c   12.05842882
_cell_angle_alpha   109.56145723
_cell_angle_beta   91.40888412
_cell_angle_gamma   93.16682688
_symmetry_Int_Tables_number   1
_chemical_formula_structural   CuH16C16S2Br
_chemical_formula_sum   'Cu4 H64 C64 S8 Br4'
_cell_volume   1549.91987280
_cell_formula_units_Z   4
loop_
 _symmetry_equiv_pos_site_id
 _symmetry_equiv_pos_as_xyz
  1  'x, y, z'
loop_
 _atom_site_type_symbol
 _atom_site_label
 _atom_site_symmetry_multiplicity
 _atom_site_fract_x
 _atom_site_fract_y
 _atom_site_fract_z
 _atom_site_occupancy
 _atom_site_hle17_bader_spin_density
 _atom_site_hle17_ddec_charge
 _atom_site_hle17_ddec_spin_density
 _atom_site_hle17_ddec_sum_bond_order
 _atom_site_hle17_magmom
 _atom_site_hse06_10hf_bader_spin_density
 _atom_site_hse06_10hf_ddec_charge
 _atom_site_hse06_10hf_ddec_spin_density
 _atom_site_hse06_10hf_ddec_sum_bond_order
 _atom_site_hse06_10hf_magmom
 _atom_site_hse06_bader_spin_density
 _atom_site_hse06_ddec_charge
 _atom_site_hse06_ddec_spin_density
 _atom_site_hse06_ddec_sum_bond_order
 _atom_site_hse06_magmom
 _atom_site_pbe_bader_spin_density
 _atom_site_pbe_cm5_charge
 _atom_site_pbe_ddec_charge
 _atom_site_pbe_ddec_spin_density
 _atom_site_pbe_ddec_sum_bond_order
 _atom_site_pbe_magmom
Cu  Cu0  1  0.57733432  0.98433675  0.91581572  1  0  0.19803  0  2.27412  0  0  0.119563  0  2.783192  0  0  0.125318  0  2.734925  0  0  0.271698  0.117693  0  2.814142  0
Cu  Cu1  1  0.42266853  0.01566697  0.08418443  1  0  0.198024  0  2.274112  0  0  0.119553  0  2.78318  0  0  0.125325  0  2.734917  0  0  0.271699  0.117683  0  2.81413  0
Cu  Cu2  1  0.92838051  0.43230924  0.89920728  1  0  0.208259  0  2.249332  0  0  0.130115  0  2.753037  0  0  0.135258  0  2.705718  0  0  0.269635  0.128707  0  2.783217  0
Cu  Cu3  1  0.07162152  0.56769537  0.10079314  1  0  0.20825  0  2.249207  0  0  0.130105  0  2.752898  0  0  0.135279  0  2.705592  0  0  0.269613  0.128705  0  2.783067  0
H  H4  1  0.00437272  0.88995817  0.03918783  1  0  0.083376  0  1.006967  0  0  0.095403  0  1.070266  0  0  0.096812  0  1.071698  0  0  0.079802  0.094399  0  1.06925  0
H  H5  1  0.99562734  0.11004288  0.96081389  1  0  0.083359  0  1.006987  0  0  0.09539  0  1.070278  0  0  0.096798  0  1.071715  0  0  0.079799  0.094384  0  1.069265  0
H  H6  1  0.79553551  0.96506580  0.08449676  1  0  0.104814  0  0.936046  0  0  0.124396  0  0.992555  0  0  0.124478  0  0.994286  0  0  0.099571  0.124259  0  0.991487  0
H  H7  1  0.20446455  0.03493525  0.91550413  1  0  0.104811  0  0.936059  0  0  0.124399  0  0.992564  0  0  0.124479  0  0.994294  0  0  0.099574  0.124259  0  0.991494  0
H  H8  1  0.80434784  0.85256029  0.94826255  1  0  0.094588  0  0.943101  0  0  0.109144  0  1.007785  0  0  0.110572  0  1.006965  0  0  0.090728  0.108055  0  1.008486  0
H  H9  1  0.19565223  0.14744076  0.05173833  1  0  0.094663  0  0.942989  0  0  0.10915  0  1.007751  0  0  0.110577  0  1.00693  0  0  0.09073  0.108062  0  1.008446  0
H  H10  1  0.85738934  0.17720917  0.79584910  1  0  0.082876  0  1.010292  0  0  0.081805  0  1.097971  0  0  0.086221  0  1.094046  0  0  0.083143  0.078497  0  1.100987  0
H  H11  1  0.14261247  0.82279187  0.20415099  1  0  0.082901  0  1.010269  0  0  0.081836  0  1.097934  0  0  0.086252  0  1.094008  0  0  0.083146  0.078526  0  1.100953  0
H  H12  1  0.89872756  0.12050372  0.58355170  1  0  0.076964  0  0.988915  0  0  0.081323  0  1.063876  0  0  0.08376  0  1.063782  0  0  0.090793  0.079595  0  1.063986  0
H  H13  1  0.10127151  0.87949553  0.41644608  1  0  0.076959  0  0.988959  0  0  0.081301  0  1.063937  0  0  0.08374  0  1.063834  0  0  0.090773  0.079573  0  1.064045  0
H  H14  1  0.88480942  0.90532599  0.45677068  1  0  0.081693  0  0.987041  0  0  0.091321  0  1.053046  0  0  0.093283  0  1.053343  0  0  0.093655  0.089903  0  1.052922  0
H  H15  1  0.11518982  0.09467593  0.54322881  1  0  0.081684  0  0.987043  0  0  0.091308  0  1.053042  0  0  0.09327  0  1.053339  0  0  0.09366  0.089883  0  1.052926  0
H  H16  1  0.83174509  0.74979438  0.54472828  1  0  0.089853  0  0.96161  0  0  0.100291  0  1.022069  0  0  0.102309  0  1.022834  0  0  0.098009  0.098757  0  1.021719  0
H  H17  1  0.16825410  0.25020666  0.45527175  1  0  0.089852  0  0.961587  0  0  0.100287  0  1.022054  0  0  0.102309  0  1.022814  0  0  0.098004  0.098752  0  1.021705  0
H  H18  1  0.78529600  0.80721337  0.75539941  1  0  0.09456  0  0.96461  0  0  0.105808  0  1.027365  0  0  0.108814  0  1.025593  0  0  0.100039  0.103532  0  1.028886  0
H  H19  1  0.21470400  0.19278678  0.24460035  1  0  0.094598  0  0.964571  0  0  0.105834  0  1.027338  0  0  0.10884  0  1.025563  0  0  0.100043  0.103537  0  1.028884  0
H  H20  1  0.47964424  0.08156502  0.70395750  1  0  0.102729  0  0.94752  0  0  0.117809  0  1.010394  0  0  0.118921  0  1.010412  0  0  0.100937  0.11698  0  1.010498  0
H  H21  1  0.52035587  0.91843691  0.29604201  1  0  0.102705  0  0.947501  0  0  0.117796  0  1.01036  0  0  0.118909  0  1.010375  0  0  0.100929  0.116955  0  1.010476  0
H  H22  1  0.62875692  0.04844932  0.69501063  1  0  0.101815  0  0.956444  0  0  0.11789  0  1.018151  0  0  0.118378  0  1.019208  0  0  0.099558  0.117481  0  1.017561  0
H  H23  1  0.37124309  0.95155084  0.30499079  1  0  0.101857  0  0.956394  0  0  0.117919  0  1.01811  0  0  0.118406  0  1.019166  0  0  0.099554  0.117508  0  1.017522  0
H  H24  1  0.58371373  0.89931619  0.48411858  1  0  0.085211  0  0.958728  0  0  0.096117  0  1.023489  0  0  0.097876  0  1.024631  0  0  0.095086  0.094853  0  1.022786  0
H  H25  1  0.41628639  0.10068575  0.51588259  1  0  0.085232  0  0.958661  0  0  0.096132  0  1.023433  0  0  0.097891  0  1.024577  0  0  0.095089  0.094867  0  1.022732  0
H  H26  1  0.39253117  0.74685457  0.82198156  1  0  0.100693  0  0.969543  0  0  0.110438  0  1.032336  0  0  0.113775  0  1.030649  0  0  0.090569  0.107967  0  1.033738  0
H  H27  1  0.60746976  0.25314646  0.17801768  1  0  0.10068  0  0.969548  0  0  0.110425  0  1.032338  0  0  0.113757  0  1.030662  0  0  0.090562  0.107952  0  1.033739  0
H  H28  1  0.17982300  0.70175098  0.83503550  1  0  0.085639  0  0.967435  0  0  0.092532  0  1.037366  0  0  0.095873  0  1.035362  0  0  0.091544  0.0901  0  1.038883  0
H  H29  1  0.82017602  0.29824738  0.16496365  1  0  0.085647  0  0.967432  0  0  0.092518  0  1.037387  0  0  0.095859  0  1.035383  0  0  0.091542  0.090086  0  1.038903  0
H  H30  1  0.03283925  0.79244770  0.74144254  1  0  0.088471  0  0.964198  0  0  0.0989  0  1.026821  0  0  0.101506  0  1.026359  0  0  0.095343  0.097024  0  1.027261  0
H  H31  1  0.96716064  0.20755065  0.25855497  1  0  0.088461  0  0.964199  0  0  0.098908  0  1.026809  0  0  0.101515  0  1.026349  0  0  0.095354  0.097028  0  1.027254  0
H  H32  1  0.09933099  0.92536372  0.63195822  1  0  0.083665  0  0.971981  0  0  0.096598  0  1.031139  0  0  0.09842  0  1.031595  0  0  0.095958  0.095316  0  1.030856  0
H  H33  1  0.90066896  0.07463553  0.36804042  1  0  0.083672  0  0.971981  0  0  0.096592  0  1.031147  0  0  0.098413  0  1.031604  0  0  0.095957  0.095313  0  1.030847  0
H  H34  1  0.31069256  0.97078467  0.61733862  1  0  0.090617  0  0.985638  0  0  0.101479  0  1.050551  0  0  0.103445  0  1.051245  0  0  0.096644  0.100073  0  1.050162  0
H  H35  1  0.68930733  0.02921370  0.38265972  1  0  0.090619  0  0.985616  0  0  0.101475  0  1.050535  0  0  0.103441  0  1.051228  0  0  0.096639  0.100067  0  1.050147  0
H  H36  1  0.90963269  0.39251077  0.47224138  1  0  0.081939  0  0.969404  0  0  0.092106  0  1.036111  0  0  0.093728  0  1.037405  0  0  0.092857  0.09093  0  1.035324  0
H  H37  1  0.09036300  0.60749025  0.52775773  1  0  0.081942  0  0.969414  0  0  0.0921  0  1.036138  0  0  0.093722  0  1.03743  0  0  0.09285  0.090923  0  1.035351  0
H  H38  1  0.87295706  0.52429636  0.68526238  1  0  0.104764  0  0.957371  0  0  0.121543  0  1.016389  0  0  0.121318  0  1.019191  0  0  0.101382  0.121588  0  1.014614  0
H  H39  1  0.12704185  0.47570024  0.31473868  1  0  0.104705  0  0.957471  0  0  0.121538  0  1.016422  0  0  0.121315  0  1.019215  0  0  0.101382  0.121568  0  1.014669  0
H  H40  1  0.02292324  0.57367331  0.70653480  1  0  0.100243  0  0.95363  0  0  0.114258  0  1.018023  0  0  0.115375  0  1.018083  0  0  0.09893  0.11339  0  1.018098  0
H  H41  1  0.97707661  0.42632418  0.29346574  1  0  0.100249  0  0.953619  0  0  0.114267  0  1.017996  0  0  0.115384  0  1.018053  0  0  0.098933  0.113401  0  1.018067  0
H  H42  1  0.19306337  0.49847140  0.64831102  1  0  0.091564  0  0.983457  0  0  0.103099  0  1.047163  0  0  0.105151  0  1.047666  0  0  0.097449  0.101618  0  1.04694  0
H  H43  1  0.80693745  0.50152784  0.35168597  1  0  0.091528  0  0.983369  0  0  0.103089  0  1.04707  0  0  0.10514  0  1.047572  0  0  0.097429  0.101604  0  1.046852  0
H  H44  1  0.40208786  0.46079704  0.66536505  1  0  0.084807  0  0.968368  0  0  0.097181  0  1.026609  0  0  0.098939  0  1.02723  0  0  0.097294  0.095926  0  1.026241  0
H  H45  1  0.59790964  0.53920489  0.33463606  1  0  0.084802  0  0.968362  0  0  0.097185  0  1.026595  0  0  0.098944  0  1.027213  0  0  0.09729  0.095925  0  1.026235  0
H  H46  1  0.46007401  0.29557689  0.73147459  1  0  0.085645  0  0.971279  0  0  0.094058  0  1.038236  0  0  0.096728  0  1.037489  0  0  0.093478  0.092031  0  1.03901  0
H  H47  1  0.53992511  0.70442323  0.26852183  1  0  0.08572  0  0.971295  0  0  0.094112  0  1.038269  0  0  0.096782  0  1.03753  0  0  0.0935  0.092083  0  1.039047  0
H  H48  1  0.30623875  0.16891236  0.78608601  1  0  0.08487  0  0.986054  0  0  0.092987  0  1.054726  0  0  0.095995  0  1.053267  0  0  0.087432  0.090767  0  1.055923  0
H  H49  1  0.69376126  0.83108780  0.21391541  1  0  0.084856  0  0.986095  0  0  0.092965  0  1.054783  0  0  0.095973  0  1.053321  0  0  0.087404  0.090743  0  1.055978  0
H  H50  1  0.09734463  0.20656631  0.77176243  1  0  0.098622  0  0.955753  0  0  0.10992  0  1.015689  0  0  0.112986  0  1.014207  0  0  0.095177  0.107681  0  1.0169  0
H  H51  1  0.90265526  0.79343205  0.22823425  1  0  0.098634  0  0.955728  0  0  0.109932  0  1.015664  0  0  0.112999  0  1.014183  0  0  0.095188  0.107691  0  1.016876  0
H  H52  1  0.69691199  0.43497956  0.08043108  1  0  0.106656  0  0.918166  0  0  0.129665  0  0.967103  0  0  0.129965  0  0.967896  0  0  0.105604  0.129349  0  0.966736  0
H  H53  1  0.30309069  0.56502150  0.91957069  1  0  0.10661  0  0.918089  0  0  0.129616  0  0.967073  0  0  0.129911  0  0.96787  0  0  0.105615  0.129303  0  0.966702  0
H  H54  1  0.70006803  0.56292523  0.03713283  1  0  0.102287  0  0.947041  0  0  0.115195  0  1.011499  0  0  0.116343  0  1.01193  0  0  0.09802  0.114291  0  1.011402  0
H  H55  1  0.29993466  0.43707583  0.96286811  1  0  0.102233  0  0.947087  0  0  0.115172  0  1.011532  0  0  0.116317  0  1.011967  0  0  0.098003  0.114269  0  1.011433  0
H  H56  1  0.49566264  0.36576352  0.98288553  1  0  0.08252  0  1.016232  0  0  0.094444  0  1.080748  0  0  0.096775  0  1.08093  0  0  0.07632  0.09273  0  1.080717  0
H  H57  1  0.50433573  0.63423842  0.01711727  1  0  0.082489  0  1.016239  0  0  0.094421  0  1.08074  0  0  0.096767  0  1.080904  0  0  0.076311  0.092708  0  1.080709  0
H  H58  1  0.69298064  0.26445511  0.63443061  1  0  0.097913  0  0.947573  0  0  0.110371  0  1.006229  0  0  0.112881  0  1.006058  0  0  0.098599  0.108539  0  1.0065  0
H  H59  1  0.30702182  0.73554238  0.36556916  1  0  0.097871  0  0.947558  0  0  0.110329  0  1.006249  0  0  0.112839  0  1.006077  0  0  0.098598  0.108498  0  1.00652  0
H  H60  1  0.64555211  0.34088914  0.47230856  1  0  0.086387  0  0.972933  0  0  0.095594  0  1.035756  0  0  0.097435  0  1.036697  0  0  0.094491  0.094275  0  1.035172  0
H  H61  1  0.35445216  0.65910927  0.52769487  1  0  0.086377  0  0.972809  0  0  0.095557  0  1.035659  0  0  0.097395  0  1.036597  0  0  0.094519  0.094242  0  1.035069  0
H  H62  1  0.60827926  0.55630581  0.51841597  1  0  0.083326  0  0.982054  0  0  0.093155  0  1.046313  0  0  0.095717  0  1.045539  0  0  0.095632  0.091289  0  1.046945  0
H  H63  1  0.39171790  0.44369078  0.48158505  1  0  0.083413  0  0.982111  0  0  0.093241  0  1.04637  0  0  0.095802  0  1.045599  0  0  0.095678  0.09139  0  1.046984  0
H  H64  1  0.61796476  0.69138556  0.72624649  1  0  0.076345  0  1.00361  0  0  0.081321  0  1.078464  0  0  0.084023  0  1.077349  0  0  0.087369  0.079319  0  1.079391  0
H  H65  1  0.38203781  0.30861370  0.27375220  1  0  0.076281  0  1.00363  0  0  0.081253  0  1.078493  0  0  0.083956  0  1.077382  0  0  0.08734  0.079254  0  1.079415  0
H  H66  1  0.67245931  0.61817637  0.88742266  1  0  0.100672  0  0.971128  0  0  0.109169  0  1.037096  0  0  0.112588  0  1.035299  0  0  0.094734  0.106615  0  1.038625  0
H  H67  1  0.32754408  0.38182202  0.11257743  1  0  0.100673  0  0.971111  0  0  0.109156  0  1.037107  0  0  0.112574  0  1.03531  0  0  0.094718  0.106603  0  1.038636  0
C  C68  1  0.96569575  0.95834982  0.01095711  1  0  -0.084137  0  3.75727  0  0  -0.096167  0  4.006667  0  0  -0.100177  0  4.032356  0  0  -0.114549  -0.093334  0  3.989084  0
C  C69  1  0.03430431  0.04165122  0.98904377  1  0  -0.084136  0  3.757268  0  0  -0.096156  0  4.006652  0  0  -0.10017  0  4.032338  0  0  -0.114556  -0.093327  0  3.989069  0
C  C70  1  0.83548535  0.94499717  0.99839395  1  0  -0.137018  0  3.697669  0  0  -0.171012  0  3.945206  0  0  -0.169981  0  3.956343  0  0  -0.149471  -0.17173  0  3.937724  0
C  C71  1  0.16451553  0.05500299  0.00160666  1  0  -0.13712  0  3.697599  0  0  -0.171042  0  3.945083  0  0  -0.170002  0  3.956206  0  0  -0.149493  -0.171748  0  3.937584  0
C  C72  1  0.81654463  0.99621095  0.78818415  1  0  0.029537  0  3.762131  0  0  0.055077  0  4.005081  0  0  0.055082  0  4.028301  0  0  -0.014315  0.054786  0  3.989611  0
C  C73  1  0.18345631  0.00379009  0.21181509  1  0  0.029551  0  3.762105  0  0  0.055052  0  4.00512  0  0  0.055052  0  4.028346  0  0  -0.014374  0.054763  0  3.989642  0
C  C74  1  0.85052043  0.08384454  0.73973293  1  0  -0.123296  0  3.763639  0  0  -0.139468  0  4.006189  0  0  -0.142201  0  4.026928  0  0  -0.101615  -0.137639  0  3.992529  0
C  C75  1  0.14947963  0.91615650  0.26026629  1  0  -0.123367  0  3.763655  0  0  -0.139519  0  4.0062  0  0  -0.14225  0  4.02694  0  0  -0.101605  -0.137686  0  3.992539  0
C  C76  1  0.87430619  0.05116785  0.62045172  1  0  -0.074304  0  3.783804  0  0  -0.083868  0  4.028199  0  0  -0.086261  0  4.049898  0  0  -0.097402  -0.082225  0  4.01354  0
C  C77  1  0.12569207  0.94883228  0.37954717  1  0  -0.074309  0  3.783831  0  0  -0.083863  0  4.028228  0  0  -0.086252  0  4.049925  0  0  -0.097404  -0.082218  0  4.013564  0
C  C78  1  0.86717249  0.93125398  0.54998920  1  0  -0.0786  0  3.762078  0  0  -0.091976  0  4.005704  0  0  -0.093379  0  4.026934  0  0  -0.096594  -0.091016  0  3.991304  0
C  C79  1  0.13282757  0.06874706  0.45001085  1  0  -0.078555  0  3.762061  0  0  -0.09192  0  4.005679  0  0  -0.093323  0  4.026909  0  0  -0.096579  -0.090955  0  3.991283  0
C  C80  1  0.83695997  0.84358950  0.59936615  1  0  -0.056795  0  3.74763  0  0  -0.066167  0  3.990483  0  0  -0.067787  0  4.011505  0  0  -0.089533  -0.064951  0  3.97624  0
C  C81  1  0.16304003  0.15641065  0.40063360  1  0  -0.056829  0  3.747649  0  0  -0.066207  0  3.990509  0  0  -0.067827  0  4.011527  0  0  -0.089545  -0.064988  0  3.976259  0
C  C82  1  0.81108444  0.87571139  0.71795508  1  0  -0.113735  0  3.756534  0  0  -0.132319  0  3.998725  0  0  -0.134168  0  4.018766  0  0  -0.0935  -0.131054  0  3.985347  0
C  C83  1  0.18891655  0.12429055  0.28204528  1  0  -0.113764  0  3.75644  0  0  -0.132317  0  3.998617  0  0  -0.134167  0  4.018669  0  0  -0.093484  -0.131035  0  3.985249  0
C  C84  1  0.53932620  0.01256673  0.66145951  1  0  -0.145056  0  3.689325  0  0  -0.179024  0  3.935594  0  0  -0.177811  0  3.94613  0  0  -0.147797  -0.179909  0  3.928594  0
C  C85  1  0.46067293  0.98743342  0.33854106  1  0  -0.145083  0  3.689373  0  0  -0.179013  0  3.935564  0  0  -0.177798  0  3.946095  0  0  -0.147796  -0.179889  0  3.928571  0
C  C86  1  0.53170241  0.97370354  0.53042891  1  0  -0.073115  0  3.738527  0  0  -0.087296  0  3.99307  0  0  -0.090217  0  4.016148  0  0  -0.102598  -0.085256  0  3.977344  0
C  C87  1  0.46829678  0.02629750  0.46957112  1  0  -0.073137  0  3.738481  0  0  -0.087312  0  3.993026  0  0  -0.090233  0  4.016104  0  0  -0.102561  -0.085271  0  3.977296  0
C  C88  1  0.36556741  0.86173982  0.71886646  1  0  0.036256  0  3.778465  0  0  0.058052  0  4.030342  0  0  0.059321  0  4.052478  0  0  -0.014876  0.05689  0  4.015656  0
C  C89  1  0.63443178  0.13826123  0.28113440  1  0  0.036293  0  3.778491  0  0  0.05808  0  4.030371  0  0  0.059351  0  4.052506  0  0  -0.014865  0.056918  0  4.015687  0
C  C90  1  0.32808604  0.78344569  0.77776861  1  0  -0.131285  0  3.753902  0  0  -0.148839  0  3.998741  0  0  -0.151324  0  4.017489  0  0  -0.103171  -0.147278  0  3.98645  0
C  C91  1  0.67191309  0.21655446  0.22223113  1  0  -0.131219  0  3.753927  0  0  -0.148765  0  3.998746  0  0  -0.151253  0  4.017494  0  0  -0.10313  -0.147205  0  3.986452  0
C  C92  1  0.20876505  0.75845224  0.78503989  1  0  -0.067036  0  3.793426  0  0  -0.07932  0  4.045143  0  0  -0.080418  0  4.064978  0  0  -0.096304  -0.07858  0  4.031911  0
C  C93  1  0.79123403  0.24154702  0.21495956  1  0  -0.06713  0  3.793617  0  0  -0.0794  0  4.045334  0  0  -0.0805  0  4.065169  0  0  -0.096344  -0.07866  0  4.0321  0
C  C94  1  0.12599165  0.80949025  0.73293215  1  0  -0.080365  0  3.773998  0  0  -0.09715  0  4.026229  0  0  -0.098321  0  4.046041  0  0  -0.10006  -0.096442  0  4.012933  0
C  C95  1  0.87400836  0.19050989  0.26706595  1  0  -0.080326  0  3.774045  0  0  -0.097127  0  4.026246  0  0  -0.098299  0  4.04606  0  0  -0.100079  -0.096419  0  4.012951  0
C  C96  1  0.16360521  0.88515209  0.67249981  1  0  -0.061626  0  3.76667  0  0  -0.071138  0  4.00917  0  0  -0.072182  0  4.029687  0  0  -0.092823  -0.070354  0  3.995203  0
C  C97  1  0.83639562  0.11484717  0.32749885  1  0  -0.061618  0  3.766617  0  0  -0.071124  0  4.009121  0  0  -0.072168  0  4.029637  0  0  -0.092814  -0.070337  0  3.995158  0
C  C98  1  0.28303793  0.91167155  0.66487554  1  0  -0.128707  0  3.757625  0  0  -0.146998  0  3.998897  0  0  -0.150079  0  4.020857  0  0  -0.101797  -0.144897  0  3.984121  0
C  C99  1  0.71696120  0.08832860  0.33512337  1  0  -0.128719  0  3.757626  0  0  -0.146997  0  3.998888  0  0  -0.15008  0  4.020847  0  0  -0.10178  -0.144897  0  3.984113  0
C  C100  1  0.96639289  0.46921054  0.52597347  1  0  -0.074838  0  3.740463  0  0  -0.089354  0  3.997395  0  0  -0.092398  0  4.020832  0  0  -0.103453  -0.08727  0  3.981393  0
C  C101  1  0.03360700  0.53078784  0.47402737  1  0  -0.074751  0  3.74045  0  0  -0.089299  0  3.997386  0  0  -0.092346  0  4.020823  0  0  -0.103412  -0.087212  0  3.98138  0
C  C102  1  0.96110244  0.49961126  0.65610182  1  0  -0.1423  0  3.685109  0  0  -0.173824  0  3.925044  0  0  -0.17272  0  3.936173  0  0  -0.146326  -0.174511  0  3.917467  0
C  C103  1  0.03889658  0.50038712  0.34389816  1  0  -0.14221  0  3.685255  0  0  -0.173726  0  3.925071  0  0  -0.172614  0  3.936197  0  0  -0.14627  -0.174404  0  3.917494  0
C  C104  1  0.13108503  0.35409283  0.70790152  1  0  0.038493  0  3.772317  0  0  0.061735  0  4.022181  0  0  0.062873  0  4.04423  0  0  -0.013024  0.060631  0  4.007573  0
C  C105  1  0.86891497  0.64590730  0.29209574  1  0  0.038438  0  3.772383  0  0  0.0617  0  4.022225  0  0  0.062834  0  4.044282  0  0  -0.013022  0.060592  0  4.007615  0
C  C106  1  0.21699629  0.42569241  0.67764972  1  0  -0.133333  0  3.762702  0  0  -0.152907  0  4.005792  0  0  -0.155787  0  4.02729  0  0  -0.101452  -0.150935  0  3.99136  0
C  C107  1  0.78300196  0.57430773  0.32234917  1  0  -0.133205  0  3.762576  0  0  -0.152803  0  4.005626  0  0  -0.15568  0  4.027125  0  0  -0.101406  -0.150829  0  3.991193  0
C  C108  1  0.33494670  0.40330433  0.68589293  1  0  -0.06317  0  3.775689  0  0  -0.07347  0  4.021173  0  0  -0.074755  0  4.042199  0  0  -0.092464  -0.072535  0  4.006838  0
C  C109  1  0.66505330  0.59669582  0.31410599  1  0  -0.063143  0  3.775765  0  0  -0.073454  0  4.021252  0  0  -0.074739  0  4.042284  0  0  -0.092438  -0.072515  0  4.006912  0
C  C110  1  0.36776374  0.31022706  0.72294151  1  0  -0.081558  0  3.774284  0  0  -0.097516  0  4.026829  0  0  -0.098747  0  4.046981  0  0  -0.100246  -0.096686  0  4.013318  0
C  C111  1  0.63223265  0.68977128  0.27705593  1  0  -0.081703  0  3.774349  0  0  -0.097652  0  4.026909  0  0  -0.098892  0  4.047059  0  0  -0.10031  -0.096824  0  4.013397  0
C  C112  1  0.28168571  0.23918409  0.75295410  1  0  -0.066286  0  3.779864  0  0  -0.079784  0  4.02953  0  0  -0.08073  0  4.048494  0  0  -0.096742  -0.079136  0  4.016868  0
C  C113  1  0.71831505  0.76081427  0.24704260  1  0  -0.06627  0  3.779894  0  0  -0.079755  0  4.029541  0  0  -0.080701  0  4.048505  0  0  -0.096727  -0.079103  0  4.016868  0
C  C114  1  0.16394314  0.26039887  0.74544972  1  0  -0.121512  0  3.764718  0  0  -0.137741  0  4.006541  0  0  -0.139833  0  4.025605  0  0  -0.100435  -0.136457  0  3.994019  0
C  C115  1  0.83605576  0.73959770  0.25454636  1  0  -0.121516  0  3.764851  0  0  -0.137764  0  4.006684  0  0  -0.139855  0  4.02575  0  0  -0.100454  -0.136478  0  3.994163  0
C  C116  1  0.66401190  0.47047636  0.01333176  1  0  -0.129978  0  3.669713  0  0  -0.165087  0  3.918299  0  0  -0.163742  0  3.929302  0  0  -0.142458  -0.165993  0  3.910869  0
C  C117  1  0.33598904  0.52952469  0.98666997  1  0  -0.129859  0  3.669614  0  0  -0.165042  0  3.918301  0  0  -0.163696  0  3.929305  0  0  -0.14248  -0.165951  0  3.910876  0
C  C118  1  0.53410698  0.45591600  0.99868368  1  0  -0.077766  0  3.744063  0  0  -0.092785  0  3.999989  0  0  -0.097156  0  4.025273  0  0  -0.108635  -0.089712  0  3.982729  0
C  C119  1  0.46589390  0.54408415  0.00131527  1  0  -0.077735  0  3.744003  0  0  -0.092743  0  3.99995  0  0  -0.097122  0  4.025225  0  0  -0.108613  -0.089672  0  3.982691  0
C  C120  1  0.68675759  0.43624078  0.77151861  1  0  0.029605  0  3.78014  0  0  0.053051  0  4.02865  0  0  0.05362  0  4.050854  0  0  -0.016295  0.052365  0  4.013855  0
C  C121  1  0.31324334  0.56376025  0.22848063  1  0  0.029537  0  3.780084  0  0  0.052925  0  4.028679  0  0  0.053494  0  4.050883  0  0  -0.016293  0.052242  0  4.013881  0
C  C122  1  0.67800341  0.35844382  0.65421085  1  0  -0.125757  0  3.75435  0  0  -0.142554  0  3.997255  0  0  -0.145165  0  4.017806  0  0  -0.099118  -0.140746  0  3.983445  0
C  C123  1  0.32199364  0.64155100  0.34579042  1  0  -0.12568  0  3.754431  0  0  -0.142473  0  3.997329  0  0  -0.145083  0  4.017875  0  0  -0.09915  -0.140667  0  3.983518  0
C  C124  1  0.65090539  0.40174685  0.56315389  1  0  -0.061858  0  3.765689  0  0  -0.070553  0  4.009555  0  0  -0.07203  0  4.030562  0  0  -0.092964  -0.069533  0  3.995292  0
C  C125  1  0.34909107  0.59825241  0.43684716  1  0  -0.061831  0  3.765544  0  0  -0.070496  0  4.009433  0  0  -0.071965  0  4.030433  0  0  -0.092958  -0.069479  0  3.995174  0
C  C126  1  0.63011716  0.52184400  0.58871928  1  0  -0.085137  0  3.773819  0  0  -0.09829  0  4.016766  0  0  -0.099612  0  4.036948  0  0  -0.098631  -0.09732  0  4.003065  0
C  C127  1  0.36988263  0.47815261  0.41128180  1  0  -0.085288  0  3.773909  0  0  -0.098441  0  4.016862  0  0  -0.099766  0  4.037045  0  0  -0.098693  -0.097483  0  4.003156  0
C  C128  1  0.63617492  0.59817317  0.70570933  1  0  -0.069836  0  3.777599  0  0  -0.078168  0  4.021904  0  0  -0.079942  0  4.042116  0  0  -0.096455  -0.076952  0  4.008324  0
C  C129  1  0.36382688  0.40182787  0.29428993  1  0  -0.069706  0  3.777679  0  0  -0.078033  0  4.021981  0  0  -0.07981  0  4.042199  0  0  -0.096429  -0.076818  0  4.008405  0
C  C130  1  0.66551380  0.55656893  0.79721485  1  0  -0.109591  0  3.747718  0  0  -0.130736  0  3.993017  0  0  -0.132306  0  4.01293  0  0  -0.095932  -0.129767  0  3.979912  0
C  C131  1  0.33448872  0.44342946  0.20278688  1  0  -0.109592  0  3.747717  0  0  -0.130706  0  3.993027  0  0  -0.132275  0  4.012941  0  0  -0.095895  -0.129732  0  3.97991  0
S  S132  1  0.76917966  0.04598517  0.93526903  1  0  0.056654  0  2.831952  0  0  0.06501  0  3.250299  0  0  0.066071  0  3.239917  0  0  -0.009335  0.064001  0  3.257297  0
S  S133  1  0.23082128  0.95401588  0.06473187  1  0  0.056712  0  2.83193  0  0  0.065081  0  3.250281  0  0  0.066133  0  3.239903  0  0  -0.009271  0.064065  0  3.257276  0
S  S134  1  0.51912153  0.89156902  0.72092715  1  0  0.041402  0  2.813965  0  0  0.056752  0  3.2202  0  0  0.055813  0  3.210757  0  0  -0.002463  0.057364  0  3.226402  0
S  S135  1  0.48087771  0.10843291  0.27907400  1  0  0.041361  0  2.814003  0  0  0.056708  0  3.220219  0  0  0.055764  0  3.210787  0  0  -0.00249  0.057321  0  3.226419  0
S  S136  1  0.97903750  0.37299022  0.70600575  1  0  0.034361  0  2.821682  0  0  0.048974  0  3.232763  0  0  0.048584  0  3.222834  0  0  -0.006326  0.04916  0  3.239222  0
S  S137  1  0.02096240  0.62700818  0.29399841  1  0  0.034305  0  2.821737  0  0  0.048871  0  3.232826  0  0  0.048465  0  3.222911  0  0  -0.006367  0.049055  0  3.239279  0
S  S138  1  0.73211129  0.37736526  0.88100361  1  0  0.029316  0  2.77894  0  0  0.042022  0  3.190237  0  0  0.042592  0  3.177956  0  0  -0.012427  0.041374  0  3.19852  0
S  S139  1  0.26789221  0.62263489  0.11899540  1  0  0.029324  0  2.778952  0  0  0.042066  0  3.190292  0  0  0.042628  0  3.178029  0  0  -0.012407  0.041418  0  3.198576  0
Br  Br140  1  0.54712355  0.84366101  0.02289094  1  0  -0.46004  0  1.358466  0  0  -0.399142  0  1.729564  0  0  -0.41511  0  1.698987  0  0  -0.246132  -0.387624  0  1.74958  0
Br  Br141  1  0.45287651  0.15634004  0.97711078  1  0  -0.460034  0  1.358521  0  0  -0.399142  0  1.72964  0  0  -0.415097  0  1.699045  0  0  -0.246134  -0.387623  0  1.749657  0
Br  Br142  1  0.03639254  0.34753237  0.02513345  1  0  -0.46002  0  1.323189  0  0  -0.393027  0  1.691387  0  0  -0.410604  0  1.661481  0  0  -0.259789  -0.380267  0  1.71072  0
Br  Br143  1  0.96360676  0.65247044  0.97486550  1  0  -0.46002  0  1.323205  0  0  -0.393043  0  1.69144  0  0  -0.410623  0  1.661532  0  0  -0.259775  -0.380286  0  1.710777  0
