# generated using pymatgen
data_Cd2H35C39NO15
_symmetry_space_group_name_H-M   'P 1'
_cell_length_a   12.91685852
_cell_length_b   15.48367967
_cell_length_c   26.95653594
_cell_angle_alpha   100.91597116
_cell_angle_beta   89.99986005
_cell_angle_gamma   89.99936308
_symmetry_Int_Tables_number   1
_chemical_formula_structural   Cd2H35C39NO15
_chemical_formula_sum   'Cd8 H140 C156 N4 O60'
_cell_volume   5293.76990708
_cell_formula_units_Z   4
loop_
 _symmetry_equiv_pos_site_id
 _symmetry_equiv_pos_as_xyz
  1  'x, y, z'
loop_
 _atom_site_type_symbol
 _atom_site_label
 _atom_site_symmetry_multiplicity
 _atom_site_fract_x
 _atom_site_fract_y
 _atom_site_fract_z
 _atom_site_occupancy
 _atom_site_pbe_bader_charge
 _atom_site_pbe_bader_spin_density
 _atom_site_pbe_cm5_charge
 _atom_site_pbe_ddec_charge
 _atom_site_pbe_ddec_spin_density
 _atom_site_pbe_ddec_sum_bond_order
 _atom_site_pbe_magmom
Cd  Cd0  1  0.18627672  0.74574462  0.76293679  1  1.305466  0  0.769831  1.008432  0  2.090897  0
Cd  Cd1  1  0.68628398  0.25424696  0.73706564  1  1.305349  0  0.769813  1.008428  0  2.090881  0
Cd  Cd2  1  0.81372496  0.25425713  0.23706183  1  1.305341  0  0.769853  1.008442  0  2.090816  0
Cd  Cd3  1  0.31372079  0.74575277  0.26293129  1  1.305207  0  0.769793  1.008396  0  2.090802  0
Cd  Cd4  1  0.34571814  0.76183618  0.65747374  1  1.342903  0  0.783419  1.053928  0  2.139471  0
Cd  Cd5  1  0.84572196  0.23816171  0.84252949  1  1.342804  0  0.783392  1.053879  0  2.1396  0
Cd  Cd6  1  0.65427735  0.23816227  0.34252418  1  1.342828  0  0.783366  1.053899  0  2.139534  0
Cd  Cd7  1  0.15426888  0.76184345  0.15747317  1  1.342692  0  0.783356  1.053779  0  2.139584  0
H  H8  1  0.04696455  0.64107662  0.89885823  1  0.097455  0  0.106478  0.113981  0  1.02465  0
H  H9  1  0.54696107  0.35889978  0.60113843  1  0.097469  0  0.106404  0.113799  0  1.024616  0
H  H10  1  0.95304332  0.35891400  0.10114078  1  0.097609  0  0.106441  0.113889  0  1.024638  0
H  H11  1  0.45303751  0.64109340  0.39885860  1  0.097559  0  0.106389  0.113833  0  1.024647  0
H  H12  1  0.40358385  0.87447324  0.86907574  1  0.114715  0  0.107583  0.118059  0  1.000719  0
H  H13  1  0.90359260  0.12553522  0.63092736  1  0.114696  0  0.107603  0.118079  0  1.000726  0
H  H14  1  0.59641551  0.12552658  0.13092380  1  0.114692  0  0.107579  0.118082  0  1.000709  0
H  H15  1  0.09641063  0.87446726  0.36907356  1  0.1147  0  0.107621  0.118098  0  1.000661  0
H  H16  1  0.84024640  0.41974292  0.88639854  1  0.110218  0  0.097967  0.096092  0  1.074141  0
H  H17  1  0.34025683  0.58024620  0.61359531  1  0.110557  0  0.097987  0.096021  0  1.07431  0
H  H18  1  0.15975218  0.58025485  0.11359858  1  0.110425  0  0.097956  0.096078  0  1.074161  0
H  H19  1  0.65974562  0.41974893  0.38640117  1  0.110508  0  0.097914  0.095966  0  1.074388  0
H  H20  1  0.89956222  0.53942119  0.75744248  1  0.11616  0  0.108842  0.116355  0  1.019378  0
H  H21  1  0.39956970  0.46057666  0.74255586  1  0.116251  0  0.108837  0.116379  0  1.019418  0
H  H22  1  0.10043404  0.46058258  0.24255782  1  0.116174  0  0.108826  0.116299  0  1.019492  0
H  H23  1  0.60043663  0.53942049  0.25744230  1  0.116267  0  0.108801  0.116312  0  1.019447  0
H  H24  1  0.52691295  0.98572420  0.74684575  1  0.094315  0  0.106691  0.117281  0  1.004575  0
H  H25  1  0.02690075  0.01426370  0.75315578  1  0.094228  0  0.106633  0.117215  0  1.004602  0
H  H26  1  0.47308950  0.01427499  0.25315484  1  0.094325  0  0.106703  0.117277  0  1.0045  0
H  H27  1  0.97310790  0.98575135  0.24684861  1  0.094359  0  0.10657  0.117133  0  1.004701  0
H  H28  1  0.61364116  0.85542499  0.89832758  1  0.032448  0  0.098275  0.109305  0  1.062161  0
H  H29  1  0.11364428  0.14457187  0.60167361  1  0.032382  0  0.09825  0.109299  0  1.06211  0
H  H30  1  0.38635587  0.14457353  0.10167257  1  0.032399  0  0.098254  0.109325  0  1.062121  0
H  H31  1  0.88635198  0.85542935  0.39832904  1  0.032498  0  0.098264  0.109345  0  1.062005  0
H  H32  1  0.60514720  0.10001384  0.90010730  1  0.088996  0  0.102988  0.107982  0  1.019611  0
H  H33  1  0.10513256  0.89997394  0.59989412  1  0.089339  0  0.103023  0.107987  0  1.019495  0
H  H34  1  0.39485215  0.89998604  0.09989411  1  0.089047  0  0.103008  0.10801  0  1.019597  0
H  H35  1  0.89485906  0.10002278  0.40011105  1  0.089009  0  0.102987  0.107975  0  1.019657  0
H  H36  1  0.38113672  0.11436948  0.91438780  1  0.061466  0  0.099383  0.11111  0  1.057156  0
H  H37  1  0.88113949  0.88563258  0.58561320  1  0.061411  0  0.099347  0.111033  0  1.057217  0
H  H38  1  0.61885335  0.88562835  0.08561117  1  0.061491  0  0.099378  0.1111  0  1.057201  0
H  H39  1  0.11885677  0.11436667  0.41438925  1  0.06152  0  0.099394  0.111172  0  1.05712  0
H  H40  1  0.22776662  0.45129938  0.05967934  1  0.078494  0  0.103348  0.116014  0  1.053474  0
H  H41  1  0.72776736  0.54869582  0.44031949  1  0.078223  0  0.103335  0.116007  0  1.053468  0
H  H42  1  0.77223893  0.54869974  0.94031903  1  0.08514  0  0.103336  0.115985  0  1.053532  0
H  H43  1  0.27223820  0.45129806  0.55967873  1  0.085193  0  0.103354  0.115958  0  1.053583  0
H  H44  1  0.14142346  0.50130092  0.88783858  1  0.072839  0  0.099344  0.111565  0  1.069597  0
H  H45  1  0.64142116  0.49869492  0.61215988  1  0.072651  0  0.099341  0.111604  0  1.069549  0
H  H46  1  0.85857900  0.49870217  0.11216091  1  0.072429  0  0.099362  0.111603  0  1.069565  0
H  H47  1  0.35857974  0.50130553  0.38783898  1  0.072606  0  0.099311  0.11154  0  1.069589  0
H  H48  1  0.28818263  0.54561112  0.85192826  1  0.08306  0  0.104123  0.116792  0  0.989145  0
H  H49  1  0.78817918  0.45439251  0.64807227  1  0.083133  0  0.104121  0.116789  0  0.989132  0
H  H50  1  0.71181750  0.45438331  0.14806667  1  0.082961  0  0.104126  0.116785  0  0.989176  0
H  H51  1  0.21182017  0.54561334  0.35193158  1  0.083015  0  0.104134  0.116808  0  0.98919  0
H  H52  1  0.26749652  0.42891207  0.83651488  1  0.047697  0  0.101309  0.102612  0  0.980529  0
H  H53  1  0.76749067  0.57109103  0.66348341  1  0.04745  0  0.101342  0.102711  0  0.98052  0
H  H54  1  0.73250128  0.57108313  0.16348384  1  0.047815  0  0.101333  0.102652  0  0.980535  0
H  H55  1  0.23250946  0.42891387  0.33651107  1  0.047656  0  0.101339  0.102666  0  0.980421  0
H  H56  1  0.39564040  0.47234541  0.83461411  1  0.096022  0  0.113771  0.128958  0  0.97024  0
H  H57  1  0.89563434  0.52765778  0.66538588  1  0.09605  0  0.113784  0.128981  0  0.970245  0
H  H58  1  0.60435818  0.52764708  0.16538211  1  0.095847  0  0.113767  0.128936  0  0.970268  0
H  H59  1  0.10436424  0.47234992  0.33461407  1  0.095666  0  0.113772  0.128931  0  0.970232  0
H  H60  1  0.40554581  0.93164266  0.65229581  1  0.623626  0  0.321889  0.408485  0  0.875041  0
H  H61  1  0.90555419  0.06836310  0.84770553  1  0.623725  0  0.321854  0.408467  0  0.875197  0
H  H62  1  0.59445199  0.06835647  0.34770255  1  0.623689  0  0.321912  0.408603  0  0.875023  0
H  H63  1  0.09444749  0.93163809  0.15229600  1  0.623727  0  0.321834  0.408456  0  0.875152  0
H  H64  1  0.29655280  0.90921801  0.62923734  1  0.635103  0  0.302505  0.385025  0  0.933128  0
H  H65  1  0.79655998  0.09078363  0.87076522  1  0.635343  0  0.302431  0.384995  0  0.933213  0
H  H66  1  0.70344346  0.09078182  0.37076258  1  0.635248  0  0.302441  0.385013  0  0.933186  0
H  H67  1  0.20344092  0.90921690  0.12923625  1  0.635314  0  0.302467  0.385078  0  0.933097  0
H  H68  1  0.45418865  0.69626924  0.58187130  1  0.659082  0  0.302287  0.391705  0  0.93137  0
H  H69  1  0.95419662  0.30373206  0.91812880  1  0.659054  0  0.302315  0.391742  0  0.931313  0
H  H70  1  0.54581690  0.30372993  0.41812855  1  0.658051  0  0.302289  0.391701  0  0.93136  0
H  H71  1  0.04580971  0.69627230  0.08186934  1  0.657999  0  0.3023  0.391677  0  0.931411  0
H  H72  1  0.51816651  0.64759309  0.61728271  1  0.608407  0  0.311574  0.391422  0  0.911112  0
H  H73  1  0.01817158  0.35240263  0.88271441  1  0.609676  0  0.311577  0.391405  0  0.911184  0
H  H74  1  0.48182279  0.35239891  0.38271829  1  0.60849  0  0.311546  0.391388  0  0.911163  0
H  H75  1  0.98182545  0.64759833  0.11727968  1  0.608559  0  0.311549  0.391397  0  0.911089  0
H  H76  1  0.38282869  0.50582249  0.07564842  1  0.060696  0  0.100502  0.104221  0  0.98806  0
H  H77  1  0.88282946  0.49416988  0.42435104  1  0.060615  0  0.100488  0.104222  0  0.988111  0
H  H78  1  0.61717609  0.49417340  0.92435147  1  0.060587  0  0.100495  0.104187  0  0.988134  0
H  H79  1  0.11717068  0.50582005  0.57564678  1  0.060771  0  0.100501  0.104223  0  0.988017  0
H  H80  1  0.49975459  0.45356482  0.05073007  1  0.091133  0  0.101142  0.101855  0  1.062263  0
H  H81  1  0.99975531  0.54642900  0.44926939  1  0.091087  0  0.101147  0.101917  0  1.062229  0
H  H82  1  0.50024786  0.54643102  0.94926834  1  0.09118  0  0.101123  0.101879  0  1.062203  0
H  H83  1  0.00024792  0.45356158  0.55072850  1  0.090804  0  0.101129  0.101857  0  1.062251  0
H  H84  1  0.38621347  0.38795109  0.05778510  1  0.065872  0  0.098267  0.103038  0  1.020104  0
H  H85  1  0.88621258  0.61204448  0.44221319  1  0.065974  0  0.098246  0.103022  0  1.020053  0
H  H86  1  0.61378821  0.61204668  0.94221202  1  0.065927  0  0.098251  0.102996  0  1.020127  0
H  H87  1  0.11379065  0.38794741  0.55778445  1  0.065793  0  0.098238  0.10302  0  1.020094  0
H  H88  1  0.77026977  0.82534545  0.10410113  1  0.01936  0  0.102274  0.104711  0  0.97439  0
H  H89  1  0.27026475  0.17465394  0.39589842  1  0.019404  0  0.102261  0.104679  0  0.974348  0
H  H90  1  0.22972417  0.17465183  0.89590113  1  0.019105  0  0.102294  0.104722  0  0.974373  0
H  H91  1  0.72972841  0.82534922  0.60410330  1  0.019222  0  0.102284  0.104725  0  0.974403  0
H  H92  1  0.79558710  0.70951177  0.09231612  1  0.075739  0  0.10121  0.111029  0  1.013439  0
H  H93  1  0.29557816  0.29048932  0.40768283  1  0.075852  0  0.101216  0.11104  0  1.013402  0
H  H94  1  0.20440684  0.29048606  0.90768286  1  0.075694  0  0.101224  0.111056  0  1.01339  0
H  H95  1  0.70441346  0.70951783  0.59232041  1  0.075813  0  0.10122  0.11105  0  1.013462  0
H  H96  1  0.66488630  0.74879117  0.10299815  1  0.061143  0  0.099768  0.100512  0  0.982378  0
H  H97  1  0.16487716  0.25120796  0.39700151  1  0.061011  0  0.099771  0.100452  0  0.982434  0
H  H98  1  0.33510996  0.25120672  0.89700269  1  0.061264  0  0.099736  0.100452  0  0.982163  0
H  H99  1  0.83511291  0.74879592  0.60300252  1  0.061271  0  0.099733  0.100449  0  0.982431  0
H  H100  1  0.76521802  0.78683806  0.87050136  1  0.045518  0  0.103524  0.106523  0  0.974396  0
H  H101  1  0.26521312  0.21316382  0.62949903  1  0.045564  0  0.103543  0.106539  0  0.974492  0
H  H102  1  0.23478598  0.21316705  0.12949981  1  0.045628  0  0.103568  0.106604  0  0.974452  0
H  H103  1  0.73478159  0.78683740  0.37050325  1  0.045528  0  0.103515  0.106524  0  0.974383  0
H  H104  1  0.65564079  0.71403376  0.86462119  1  0.040364  0  0.099687  0.09835  0  0.98172  0
H  H105  1  0.15563179  0.28596650  0.63537621  1  0.040238  0  0.099723  0.098425  0  0.981758  0
H  H106  1  0.34436553  0.28596935  0.13537868  1  0.04026  0  0.099719  0.09842  0  0.981703  0
H  H107  1  0.84436137  0.71403273  0.36462550  1  0.040348  0  0.099692  0.098321  0  0.981753  0
H  H108  1  0.78447889  0.67133103  0.86805803  1  0.091758  0  0.104356  0.114346  0  1.012418  0
H  H109  1  0.28447012  0.32866998  0.63194151  1  0.092137  0  0.104357  0.114356  0  1.01244  0
H  H110  1  0.21552666  0.32867411  0.13194389  1  0.092065  0  0.104344  0.11434  0  1.012441  0
H  H111  1  0.71552382  0.67133125  0.36806114  1  0.092162  0  0.104321  0.114297  0  1.01242  0
H  H112  1  0.11247845  0.65789313  0.44990624  1  0.047506  0  0.103785  0.080231  0  0.992396  0
H  H113  1  0.61247160  0.34210518  0.05009229  1  0.047541  0  0.103722  0.080177  0  0.992478  0
H  H114  1  0.88751858  0.34210871  0.55009499  1  0.047563  0  0.103776  0.080252  0  0.992508  0
H  H115  1  0.38752776  0.65789069  0.94990686  1  0.047464  0  0.103725  0.080151  0  0.99238  0
H  H116  1  0.07125944  0.76867703  0.47105877  1  0.067485  0  0.105009  0.08691  0  1.000532  0
H  H117  1  0.57126268  0.23132107  0.02894090  1  0.067502  0  0.104999  0.086894  0  1.000523  0
H  H118  1  0.92872986  0.23132352  0.52894344  1  0.067685  0  0.105015  0.086941  0  1.000585  0
H  H119  1  0.42874210  0.76867484  0.97105937  1  0.067461  0  0.105017  0.086874  0  1.000526  0
H  H120  1  0.35687372  0.66342414  0.46354370  1  0.077176  0  0.100208  0.114712  0  1.028425  0
H  H121  1  0.85687010  0.33658352  0.03645434  1  0.077094  0  0.100215  0.114662  0  1.028419  0
H  H122  1  0.64312177  0.33659062  0.53645175  1  0.09272  0  0.100227  0.114722  0  1.028377  0
H  H123  1  0.14312848  0.66342285  0.96354511  1  0.077347  0  0.100236  0.114732  0  1.028388  0
H  H124  1  0.38716278  0.77492030  0.48846382  1  0.054978  0  0.113237  0.136762  0  0.949499  0
H  H125  1  0.88716388  0.22508770  0.01153385  1  0.055096  0  0.113278  0.136745  0  0.949442  0
H  H126  1  0.61282806  0.22509316  0.51153188  1  0.054922  0  0.113235  0.136718  0  0.949401  0
H  H127  1  0.11284090  0.77492001  0.98846647  1  0.054646  0  0.113277  0.136726  0  0.949426  0
H  H128  1  0.23440170  0.82733275  0.45197045  1  0.04132  0  0.099958  0.098702  0  0.969548  0
H  H129  1  0.73441104  0.17267426  0.04803065  1  0.041501  0  0.100024  0.098777  0  0.969563  0
H  H130  1  0.76558062  0.17267761  0.54803088  1  0.041803  0  0.100007  0.098742  0  0.969497  0
H  H131  1  0.26559915  0.82732954  0.95197040  1  0.04143  0  0.099982  0.098729  0  0.969563  0
H  H132  1  0.24548413  0.72756777  0.40753701  1  0.090622  0  0.1023  0.115108  0  0.980453  0
H  H133  1  0.74548494  0.27243904  0.09246145  1  0.090645  0  0.102313  0.115125  0  0.980488  0
H  H134  1  0.75449975  0.27244579  0.59246203  1  0.090621  0  0.102308  0.115179  0  0.980506  0
H  H135  1  0.25451829  0.72756208  0.90753785  1  0.090624  0  0.102324  0.115124  0  0.980453  0
H  H136  1  0.12978776  0.69525864  0.59384820  1  0.105948  0  0.112073  0.137159  0  0.999551  0
H  H137  1  0.62978340  0.30473536  0.90615047  1  0.105945  0  0.11208  0.137188  0  0.99951  0
H  H138  1  0.87022011  0.30473460  0.40615070  1  0.106027  0  0.112037  0.137091  0  0.999564  0
H  H139  1  0.37021596  0.69526053  0.09384943  1  0.105952  0  0.112067  0.137153  0  0.999571  0
H  H140  1  0.04983618  0.63720618  0.54375671  1  0.081035  0  0.108758  0.127478  0  1.005113  0
H  H141  1  0.54982691  0.36278857  0.95624065  1  0.081119  0  0.108767  0.127482  0  1.005116  0
H  H142  1  0.95017247  0.36278967  0.45624170  1  0.081019  0  0.108765  0.127522  0  1.005211  0
H  H143  1  0.45017168  0.63720733  0.04375962  1  0.081078  0  0.108811  0.127553  0  1.005234  0
H  H144  1  0.03360927  0.75254486  0.56488051  1  0.052597  0  0.101966  0.113777  0  1.016444  0
H  H145  1  0.53360939  0.24744815  0.93511892  1  0.052626  0  0.101907  0.113699  0  1.016477  0
H  H146  1  0.96639163  0.24744921  0.43512403  1  0.052473  0  0.101967  0.113807  0  1.016386  0
H  H147  1  0.46639074  0.75254577  0.06488078  1  0.052579  0  0.101953  0.113774  0  1.016479  0
C  C148  1  0.79565774  0.40496654  0.78705570  1  1.527656  0  0.200409  0.58038  0  4.18498  0
C  C149  1  0.29565817  0.59502758  0.71293683  1  1.528527  0  0.20037  0.580431  0  4.184831  0
C  C150  1  0.20433929  0.59503458  0.21294360  1  1.52786  0  0.200275  0.580315  0  4.184957  0
C  C151  1  0.70435358  0.40496936  0.28705463  1  1.527945  0  0.200331  0.580288  0  4.185362  0
C  C152  1  0.03876995  0.66132679  0.80296075  1  1.548422  0  0.185012  0.558111  0  4.237379  0
C  C153  1  0.53876856  0.33866626  0.69704127  1  1.548294  0  0.184908  0.558201  0  4.237225  0
C  C154  1  0.96124179  0.33866842  0.19703834  1  1.548847  0  0.184863  0.558106  0  4.237383  0
C  C155  1  0.46123777  0.66133217  0.30295590  1  1.548428  0  0.185202  0.558621  0  4.236742  0
C  C156  1  0.50415393  0.98731796  0.89138936  1  -0.007586  0  -0.007123  0.086094  0  4.027319  0
C  C157  1  0.00415180  0.01268066  0.60861214  1  -0.006975  0  -0.007148  0.086003  0  4.027289  0
C  C158  1  0.49584310  0.01268058  0.10861116  1  -0.00756  0  -0.007151  0.086124  0  4.027219  0
C  C159  1  0.99584446  0.98732123  0.39139095  1  -0.007034  0  -0.00713  0.086012  0  4.027415  0
C  C160  1  0.99427576  0.59336654  0.87730594  1  -0.005816  0  -0.075255  -0.128348  0  3.900281  0
C  C161  1  0.49427606  0.40661649  0.62268859  1  -0.005699  0  -0.075099  -0.127898  0  3.900103  0
C  C162  1  0.00573057  0.40662601  0.12269177  1  -0.005647  0  -0.075145  -0.128033  0  3.90006  0
C  C163  1  0.50572484  0.59338059  0.37730734  1  -0.006122  0  -0.075102  -0.12788  0  3.900081  0
C  C164  1  0.45202257  0.92382519  0.85649939  1  -0.033114  0  -0.075687  -0.129246  0  3.902575  0
C  C165  1  0.95202572  0.07617751  0.64350308  1  -0.033027  0  -0.075743  -0.129204  0  3.902428  0
C  C166  1  0.54797911  0.07617662  0.14350109  1  -0.033079  0  -0.07565  -0.129284  0  3.90244  0
C  C167  1  0.04797750  0.92382762  0.35649884  1  -0.032941  0  -0.075684  -0.129193  0  3.90253  0
C  C168  1  0.86174294  0.47302822  0.81880730  1  -0.016983  0  -0.024724  -0.038053  0  4.016654  0
C  C169  1  0.36174366  0.52696533  0.68118807  1  -0.017115  0  -0.024816  -0.038279  0  4.016803  0
C  C170  1  0.13825565  0.52697222  0.18119119  1  -0.017079  0  -0.024764  -0.038142  0  4.016505  0
C  C171  1  0.63826035  0.47303116  0.31881003  1  -0.017034  0  -0.024712  -0.03811  0  4.016381  0
C  C172  1  0.63560829  0.12047798  0.80506166  1  1.558219  0  0.209923  0.594201  0  4.20729  0
C  C173  1  0.13558644  0.87951025  0.69494311  1  1.558412  0  0.210022  0.594329  0  4.207106  0
C  C174  1  0.36439649  0.87952261  0.19494167  1  1.558392  0  0.20996  0.594122  0  4.207291  0
C  C175  1  0.86440594  0.12048970  0.30506052  1  1.557989  0  0.209956  0.594285  0  4.207231  0
C  C176  1  0.97719353  0.59773703  0.82658063  1  -0.048309  0  -0.015006  -0.015381  0  3.968882  0
C  C177  1  0.47719595  0.40224885  0.67341607  1  -0.048453  0  -0.015019  -0.01557  0  3.968703  0
C  C178  1  0.02281124  0.40225685  0.17341796  1  -0.048365  0  -0.01512  -0.01567  0  3.969109  0
C  C179  1  0.52280728  0.59774631  0.32658153  1  -0.048225  0  -0.015033  -0.01576  0  3.969051  0
C  C180  1  0.87962024  0.46937087  0.86959082  1  -0.096121  0  -0.092813  -0.174753  0  3.984909  0
C  C181  1  0.37962350  0.53061589  0.63040274  1  -0.096312  0  -0.092688  -0.174439  0  3.984534  0
C  C182  1  0.12037912  0.53062426  0.13040566  1  -0.096498  0  -0.092725  -0.174746  0  3.98476  0
C  C183  1  0.62037818  0.46938057  0.36959424  1  -0.096411  0  -0.092716  -0.174489  0  3.984892  0
C  C184  1  0.94770908  0.52806618  0.89927855  1  -0.038753  0  -0.010769  0.077361  0  4.022594  0
C  C185  1  0.44771328  0.47191470  0.60071657  1  -0.039014  0  -0.010894  0.077136  0  4.022718  0
C  C186  1  0.05229260  0.47192767  0.10071892  1  -0.038878  0  -0.010778  0.077354  0  4.022615  0
C  C187  1  0.55228995  0.52807783  0.39928076  1  -0.038347  0  -0.010809  0.077128  0  4.022668  0
C  C188  1  0.57218230  0.05021895  0.82174488  1  -0.075144  0  -0.024824  -0.040339  0  4.010332  0
C  C189  1  0.07216658  0.94976846  0.67825544  1  -0.074772  0  -0.024836  -0.040429  0  4.010393  0
C  C190  1  0.42782093  0.94978093  0.17825690  1  -0.075267  0  -0.024792  -0.040256  0  4.010276  0
C  C191  1  0.92783201  0.05023542  0.32174822  1  -0.074801  0  -0.024864  -0.040448  0  4.010196  0
C  C192  1  0.91086984  0.53743154  0.79720690  1  -0.039069  0  -0.071783  -0.101318  0  3.917779  0
C  C193  1  0.41087362  0.46256095  0.70279127  1  -0.039211  0  -0.07181  -0.101345  0  3.917544  0
C  C194  1  0.08912952  0.46256960  0.20279314  1  -0.0393  0  -0.071735  -0.101171  0  3.917667  0
C  C195  1  0.58913038  0.53743354  0.29720552  1  -0.039538  0  -0.071828  -0.101303  0  3.917453  0
C  C196  1  0.49895899  0.99161311  0.94675476  1  -0.027085  0  -0.01721  -0.043938  0  3.958728  0
C  C197  1  0.99895888  0.00838714  0.55324703  1  -0.027142  0  -0.017243  -0.043994  0  3.958726  0
C  C198  1  0.50103649  0.00838739  0.05324596  1  -0.030871  0  -0.017238  -0.043923  0  3.958723  0
C  C199  1  0.00103816  0.99161211  0.44675542  1  -0.030873  0  -0.017232  -0.043942  0  3.95876  0
C  C200  1  0.97441211  0.51583209  0.95104365  1  0.005834  0  -0.019687  -0.054332  0  3.9575  0
C  C201  1  0.47441255  0.48415648  0.54895405  1  0.005896  0  -0.01964  -0.054245  0  3.957494  0
C  C202  1  0.02558957  0.48416246  0.04895537  1  0.005787  0  -0.019685  -0.054349  0  3.957617  0
C  C203  1  0.52558758  0.51584004  0.45104479  1  0.005822  0  -0.019656  -0.054259  0  3.957546  0
C  C204  1  0.55526096  0.93062339  0.96891193  1  -0.008482  0  -0.019088  0.037705  0  4.0513  0
C  C205  1  0.05526235  0.06937405  0.53108902  1  -0.00835  0  -0.019014  0.037792  0  4.051123  0
C  C206  1  0.44473453  0.06937453  0.03108965  1  -0.008328  0  -0.01902  0.037733  0  4.05129  0
C  C207  1  0.94473391  0.93062649  0.46891282  1  -0.008466  0  -0.019055  0.037715  0  4.051206  0
C  C208  1  0.52049178  0.98612428  0.78713230  1  0.03516  0  -0.076226  -0.099205  0  3.926607  0
C  C209  1  0.02048057  0.01386630  0.71286913  1  0.034571  0  -0.076232  -0.099103  0  3.926472  0
C  C210  1  0.47951068  0.01387290  0.21286698  1  0.035153  0  -0.076253  -0.099164  0  3.926483  0
C  C211  1  0.97952498  0.98614477  0.28713412  1  0.034863  0  -0.076159  -0.098888  0  3.9262  0
C  C212  1  0.44350889  0.06080923  0.97695930  1  -0.007211  0  -0.018825  0.03846  0  4.046769  0
C  C213  1  0.94350895  0.93919355  0.52304281  1  -0.007072  0  -0.018806  0.038534  0  4.046655  0
C  C214  1  0.55648660  0.93919261  0.02304192  1  -0.003355  0  -0.018855  0.03844  0  4.046767  0
C  C215  1  0.05648653  0.06080636  0.47695971  1  -0.003546  0  -0.018845  0.038482  0  4.046697  0
C  C216  1  0.61394914  0.86130205  0.93916144  1  0.039194  0  -0.126403  -0.291032  0  4.045964  0
C  C217  1  0.11395178  0.13869677  0.56083958  1  0.039296  0  -0.126399  -0.29103  0  4.045759  0
C  C218  1  0.38604635  0.13869913  0.06083972  1  0.038921  0  -0.126399  -0.291128  0  4.045867  0
C  C219  1  0.88604371  0.86130380  0.43916300  1  0.039251  0  -0.126396  -0.291084  0  4.045689  0
C  C220  1  0.56436137  0.04983162  0.87341982  1  -0.032716  0  -0.082234  -0.142203  0  3.935451  0
C  C221  1  0.06434979  0.95015788  0.62658182  1  -0.03361  0  -0.082203  -0.142144  0  3.935383  0
C  C222  1  0.43563953  0.95016822  0.12658046  1  -0.032757  0  -0.082275  -0.142333  0  3.935482  0
C  C223  1  0.93564647  0.04984141  0.37342175  1  -0.033338  0  -0.082152  -0.142111  0  3.935511  0
C  C224  1  0.26131254  0.47804372  0.93795120  1  0.496703  0  0.07754  0.164412  0  4.085056  0
C  C225  1  0.76130942  0.52195092  0.56204699  1  0.497029  0  0.077632  0.164544  0  4.085138  0
C  C226  1  0.73869146  0.52195475  0.06204746  1  0.497095  0  0.077546  0.164417  0  4.085065  0
C  C227  1  0.23869148  0.47804096  0.43795028  1  0.496498  0  0.077505  0.16439  0  4.085191  0
C  C228  1  0.28669791  0.46646171  0.98828437  1  0.401267  0  0.075502  0.160111  0  4.068159  0
C  C229  1  0.78669723  0.53353270  0.51171451  1  0.401148  0  0.075494  0.160136  0  4.068378  0
C  C230  1  0.71330764  0.53353743  0.01171436  1  0.400865  0  0.075594  0.160261  0  4.068168  0
C  C231  1  0.21330755  0.46645986  0.48828357  1  0.40105  0  0.075606  0.160245  0  4.068008  0
C  C232  1  0.46078414  0.92265318  0.80452126  1  -0.05369  0  -0.021466  -0.035437  0  3.98226  0
C  C233  1  0.96078313  0.07734485  0.69548111  1  -0.053545  0  -0.021408  -0.035508  0  3.98229  0
C  C234  1  0.53921909  0.07734533  0.19547852  1  -0.053714  0  -0.021431  -0.035408  0  3.982168  0
C  C235  1  0.03922242  0.92266360  0.30452188  1  -0.053822  0  -0.021413  -0.035549  0  3.98232  0
C  C236  1  0.67098501  0.80335709  0.96094632  1  0.424042  0  0.07422  0.158312  0  4.077369  0
C  C237  1  0.17098545  0.19664110  0.53905271  1  0.42402  0  0.074196  0.158293  0  4.077353  0
C  C238  1  0.32901048  0.19664538  0.03905423  1  0.424423  0  0.074265  0.158446  0  4.077232  0
C  C239  1  0.82901004  0.80335946  0.46094950  1  0.424032  0  0.074223  0.158351  0  4.077301  0
C  C240  1  0.07831816  0.49779563  0.96241287  1  -0.085273  0  -0.019787  0.030016  0  4.049762  0
C  C241  1  0.57831930  0.50219754  0.53758466  1  -0.085285  0  -0.019787  0.029938  0  4.049921  0
C  C242  1  0.92168662  0.50220219  0.03758573  1  -0.084922  0  -0.019746  0.030086  0  4.049744  0
C  C243  1  0.42168237  0.49779961  0.46241350  1  -0.08531  0  -0.019781  0.030023  0  4.049852  0
C  C244  1  0.38361936  0.12197910  0.95532007  1  -0.019234  0  -0.12624  -0.295321  0  4.05102  0
C  C245  1  0.88362013  0.87802364  0.54468248  1  -0.019312  0  -0.126158  -0.295232  0  4.050943  0
C  C246  1  0.61637303  0.87802011  0.04468089  1  -0.019298  0  -0.126178  -0.295291  0  4.051078  0
C  C247  1  0.11637459  0.12197561  0.45531997  1  -0.0194  0  -0.126233  -0.295513  0  4.051031  0
C  C248  1  0.20901206  0.46587579  0.02292207  1  0.078533  0  -0.1148  -0.254044  0  4.006748  0
C  C249  1  0.70901125  0.53411828  0.47707667  1  0.078734  0  -0.114811  -0.254041  0  4.006863  0
C  C250  1  0.79099194  0.53412335  0.97707704  1  0.071986  0  -0.114786  -0.25404  0  4.006927  0
C  C251  1  0.29099276  0.46587492  0.52292111  1  0.071804  0  -0.114777  -0.25397  0  4.006888  0
C  C252  1  0.15979863  0.49196359  0.92583537  1  -0.013266  0  -0.13051  -0.313198  0  4.063939  0
C  C253  1  0.65979564  0.50802812  0.57416266  1  -0.013083  0  -0.130481  -0.313275  0  4.064173  0
C  C254  1  0.84020460  0.50803690  0.07416461  1  -0.01285  0  -0.130511  -0.31329  0  4.063913  0
C  C255  1  0.34020449  0.49196708  0.42583605  1  -0.012864  0  -0.130447  -0.313234  0  4.063981  0
C  C256  1  0.89615149  0.51739175  0.98787923  1  0.008103  0  -0.015325  0.048648  0  4.021233  0
C  C257  1  0.39614982  0.48260549  0.51211943  1  0.008577  0  -0.015346  0.048631  0  4.021391  0
C  C258  1  0.10385251  0.48260609  0.01212012  1  0.008456  0  -0.015371  0.048621  0  4.0212  0
C  C259  1  0.60385263  0.51739167  0.48787911  1  0.008452  0  -0.015329  0.048683  0  4.021382  0
C  C260  1  0.32114075  0.48098392  0.85426992  1  0.35654  0  -0.132124  -0.176238  0  3.879885  0
C  C261  1  0.82113724  0.51901935  0.64572979  1  0.356656  0  -0.132163  -0.176369  0  3.879882  0
C  C262  1  0.67885860  0.51901058  0.14572724  1  0.356739  0  -0.132117  -0.176262  0  3.879875  0
C  C263  1  0.17886367  0.48098441  0.35427014  1  0.356939  0  -0.132166  -0.176324  0  3.879854  0
C  C264  1  0.67252342  0.81197211  0.01517804  1  0.513095  0  0.076762  0.163467  0  4.0797  0
C  C265  1  0.17251930  0.18802564  0.48482184  1  0.513155  0  0.076754  0.163566  0  4.079635  0
C  C266  1  0.32747207  0.18802842  0.98482343  1  0.512996  0  0.076804  0.163488  0  4.079721  0
C  C267  1  0.82747541  0.81197361  0.51518061  1  0.512986  0  0.076738  0.163528  0  4.07961  0
C  C268  1  0.40398915  0.85367354  0.76797289  1  1.550489  0  0.209441  0.60223  0  4.204847  0
C  C269  1  0.90399555  0.14632842  0.73203253  1  1.550089  0  0.20932  0.602066  0  4.205105  0
C  C270  1  0.59601176  0.14632758  0.23202641  1  1.550659  0  0.209369  0.602203  0  4.205012  0
C  C271  1  0.09601001  0.85368259  0.26796886  1  1.550206  0  0.209264  0.60205  0  4.205213  0
C  C272  1  0.41536800  0.44990658  0.04877076  1  0.350339  0  -0.142002  -0.183802  0  3.881172  0
C  C273  1  0.91536866  0.55008676  0.45122839  1  0.35036  0  -0.141989  -0.183885  0  3.881243  0
C  C274  1  0.58463445  0.55009055  0.95122703  1  0.350295  0  -0.141987  -0.183764  0  3.881178  0
C  C275  1  0.08463379  0.44990384  0.54876988  1  0.350744  0  -0.141946  -0.183755  0  3.88112  0
C  C276  1  0.74043947  0.76016204  0.08634619  1  0.432205  0  -0.134887  -0.164479  0  3.889709  0
C  C277  1  0.24043117  0.23983767  0.41365418  1  0.432217  0  -0.134846  -0.164295  0  3.889638  0
C  C278  1  0.25955447  0.23983652  0.91365509  1  0.432464  0  -0.134893  -0.164488  0  3.889414  0
C  C279  1  0.75956122  0.76016683  0.58634843  1  0.432257  0  -0.134858  -0.164411  0  3.889916  0
C  C280  1  0.73321912  0.72718793  0.88140747  1  0.416332  0  -0.134118  -0.170022  0  3.899414  0
C  C281  1  0.23321193  0.27281358  0.61859181  1  0.416082  0  -0.134206  -0.170172  0  3.899711  0
C  C282  1  0.26678411  0.27281519  0.11859277  1  0.416041  0  -0.134247  -0.170241  0  3.899658  0
C  C283  1  0.76677968  0.72718763  0.38141046  1  0.416141  0  -0.13405  -0.169855  0  3.899374  0
C  C284  1  0.13699708  0.72332569  0.47023622  1  0.282844  0  -0.054515  -0.059036  0  3.858018  0
C  C285  1  0.63699662  0.27667438  0.02976356  1  0.282889  0  -0.054447  -0.058886  0  3.858134  0
C  C286  1  0.86299376  0.27667878  0.52976526  1  0.282517  0  -0.054524  -0.059187  0  3.858647  0
C  C287  1  0.36300583  0.72332285  0.97023721  1  0.283358  0  -0.054443  -0.058926  0  3.857897  0
C  C288  1  0.27003784  0.71569606  0.52847152  1  1.34303  0  0.248696  0.485795  0  4.050253  0
C  C289  1  0.77003108  0.28430842  0.97152949  1  1.342406  0  0.248827  0.486021  0  4.050124  0
C  C290  1  0.72996693  0.28431102  0.47152948  1  1.342507  0  0.248931  0.486121  0  4.049944  0
C  C291  1  0.22996982  0.71569404  0.02847068  1  1.342605  0  0.248816  0.485998  0  4.050029  0
C  C292  1  0.32326523  0.72767994  0.48034850  1  -0.027758  0  -0.152298  -0.281309  0  3.914764  0
C  C293  1  0.82326178  0.27232678  0.01965060  1  -0.027238  0  -0.152256  -0.281059  0  3.914658  0
C  C294  1  0.67673026  0.27233292  0.51964862  1  -0.043004  0  -0.15224  -0.281128  0  3.914632  0
C  C295  1  0.17673990  0.72767832  0.98035021  1  -0.027488  0  -0.152329  -0.281254  0  3.914798  0
C  C296  1  0.23624088  0.75539665  0.44780996  1  -0.034135  0  -0.152304  -0.153058  0  3.900454  0
C  C297  1  0.73624304  0.24461026  0.05218852  1  -0.034472  0  -0.152429  -0.153327  0  3.900753  0
C  C298  1  0.76374687  0.24461497  0.55218964  1  -0.034342  0  -0.152432  -0.153302  0  3.900825  0
C  C299  1  0.26375941  0.75539153  0.94781121  1  -0.034356  0  -0.152367  -0.153182  0  3.900624  0
C  C300  1  0.09088518  0.69906712  0.55825161  1  0.272307  0  -0.129898  -0.26166  0  3.881714  0
C  C301  1  0.59088146  0.30092855  0.94174616  1  0.271757  0  -0.129875  -0.261591  0  3.881579  0
C  C302  1  0.90911959  0.30093011  0.44174916  1  0.271986  0  -0.129874  -0.261686  0  3.881664  0
C  C303  1  0.40911868  0.69906733  0.05825337  1  0.27218  0  -0.12998  -0.261857  0  3.881897  0
N  N304  1  0.16707939  0.71659180  0.52190794  1  -1.184426  0  -0.269608  -0.047366  0  3.63262  0
N  N305  1  0.66707957  0.28340842  0.97809203  1  -1.184107  0  -0.269544  -0.047419  0  3.632822  0
N  N306  1  0.83291842  0.28341394  0.47809255  1  -1.184086  0  -0.269532  -0.047197  0  3.632711  0
N  N307  1  0.33292366  0.71658881  0.02190874  1  -1.184498  0  -0.269522  -0.047134  0  3.632504  0
O  O308  1  0.02864455  0.66073380  0.75607131  1  -1.141636  0  -0.342635  -0.562148  0  2.109226  0
O  O309  1  0.52864213  0.33926203  0.74393286  1  -1.141408  0  -0.342579  -0.562187  0  2.109021  0
O  O310  1  0.97135403  0.33927332  0.24393118  1  -1.141634  0  -0.342527  -0.562085  0  2.10914  0
O  O311  1  0.47136729  0.66074038  0.25606582  1  -1.141657  0  -0.342724  -0.562346  0  2.10897  0
O  O312  1  0.10434200  0.71049671  0.83117924  1  -1.149312  0  -0.345757  -0.571313  0  2.15289  0
O  O313  1  0.60434760  0.28949240  0.66882268  1  -1.149198  0  -0.345771  -0.571413  0  2.152775  0
O  O314  1  0.89567981  0.28948340  0.16881909  1  -1.14928  0  -0.345729  -0.571337  0  2.152786  0
O  O315  1  0.39565486  0.71050666  0.33117382  1  -1.149037  0  -0.34593  -0.571589  0  2.152471  0
O  O316  1  0.69236008  0.16610248  0.83929044  1  -1.20196  0  -0.340098  -0.615642  0  2.350466  0
O  O317  1  0.19234754  0.83388588  0.66071575  1  -1.201818  0  -0.339983  -0.615608  0  2.350146  0
O  O318  1  0.30764005  0.83389689  0.16071573  1  -1.202034  0  -0.340107  -0.615555  0  2.350302  0
O  O319  1  0.80764175  0.16611218  0.33929066  1  -1.201896  0  -0.339987  -0.615621  0  2.350136  0
O  O320  1  0.77376861  0.40896000  0.74250412  1  -1.140098  0  -0.30617  -0.512841  0  2.112361  0
O  O321  1  0.27377505  0.59103908  0.75749339  1  -1.140612  0  -0.306182  -0.512898  0  2.112133  0
O  O322  1  0.22622765  0.59104894  0.25749373  1  -1.140103  0  -0.305992  -0.512675  0  2.112621  0
O  O323  1  0.72623515  0.40896085  0.24250987  1  -1.140253  0  -0.306075  -0.512655  0  2.112964  0
O  O324  1  0.76231332  0.34032174  0.80827494  1  -1.160633  0  -0.354826  -0.626107  0  2.389074  0
O  O325  1  0.26231068  0.65966881  0.69171840  1  -1.160779  0  -0.354754  -0.626074  0  2.389125  0
O  O326  1  0.23768449  0.65968125  0.19172120  1  -1.160804  0  -0.354861  -0.626153  0  2.388798  0
O  O327  1  0.73769410  0.34032774  0.30828157  1  -1.16072  0  -0.354842  -0.626188  0  2.388983  0
O  O328  1  0.34291377  0.47338938  0.90558950  1  -1.081074  0  -0.183179  -0.154216  0  2.599958  0
O  O329  1  0.84291197  0.52660905  0.59440934  1  -1.081267  0  -0.183289  -0.154322  0  2.600015  0
O  O330  1  0.65708637  0.52660906  0.09440805  1  -1.081389  0  -0.183305  -0.154297  0  2.599962  0
O  O331  1  0.15709049  0.47338220  0.40558898  1  -1.080924  0  -0.183217  -0.154191  0  2.600136  0
O  O332  1  0.38904250  0.45605947  0.99777204  1  -1.062555  0  -0.179779  -0.146376  0  2.603901  0
O  O333  1  0.88904328  0.54393593  0.50222830  1  -1.06236  0  -0.179768  -0.146387  0  2.604019  0
O  O334  1  0.61096073  0.54394230  0.00222695  1  -1.062144  0  -0.179788  -0.146433  0  2.603996  0
O  O335  1  0.11096072  0.45605665  0.49777053  1  -1.062444  0  -0.179889  -0.146524  0  2.60403  0
O  O336  1  0.62779917  0.13024737  0.75955048  1  -1.140055  0  -0.322685  -0.542257  0  2.238182  0
O  O337  1  0.12776638  0.86973828  0.74045293  1  -1.140333  0  -0.322898  -0.542349  0  2.238142  0
O  O338  1  0.37221800  0.86975588  0.24045385  1  -1.139907  0  -0.322705  -0.542243  0  2.238113  0
O  O339  1  0.87222214  0.13026173  0.25955257  1  -1.140023  0  -0.322837  -0.542378  0  2.238378  0
O  O340  1  0.72947033  0.73621270  0.93520534  1  -1.096905  0  -0.182068  -0.14488  0  2.6007  0
O  O341  1  0.22947051  0.26378687  0.56479375  1  -1.096901  0  -0.182031  -0.144855  0  2.600681  0
O  O342  1  0.27052980  0.26379240  0.06479547  1  -1.096999  0  -0.182078  -0.144925  0  2.600837  0
O  O343  1  0.77052652  0.73621368  0.43520846  1  -1.097047  0  -0.182163  -0.145102  0  2.600771  0
O  O344  1  0.73273113  0.75232189  0.03271209  1  -1.081003  0  -0.180768  -0.137469  0  2.591395  0
O  O345  1  0.23272322  0.24767789  0.46728792  1  -1.08094  0  -0.180789  -0.137602  0  2.591402  0
O  O346  1  0.26726281  0.24767996  0.96728951  1  -1.08113  0  -0.180758  -0.137427  0  2.591354  0
O  O347  1  0.76726917  0.75232202  0.53271460  1  -1.081162  0  -0.180741  -0.137512  0  2.591417  0
O  O348  1  0.34471032  0.80247681  0.78622441  1  -1.173342  0  -0.333005  -0.57285  0  2.280666  0
O  O349  1  0.84473317  0.19754222  0.71378351  1  -1.173214  0  -0.332893  -0.572688  0  2.280731  0
O  O350  1  0.65528749  0.19752512  0.21377980  1  -1.173551  0  -0.332961  -0.572794  0  2.281001  0
O  O351  1  0.15527703  0.80247071  0.28621621  1  -1.173216  0  -0.332861  -0.572645  0  2.280603  0
O  O352  1  0.42130231  0.85214517  0.72096729  1  -1.154528  0  -0.340792  -0.598429  0  2.290386  0
O  O353  1  0.92129683  0.14784413  0.77903686  1  -1.154339  0  -0.340784  -0.598379  0  2.290554  0
O  O354  1  0.57869240  0.14785142  0.27903379  1  -1.154515  0  -0.340806  -0.598498  0  2.290195  0
O  O355  1  0.07870098  0.85216690  0.22096490  1  -1.154172  0  -0.340749  -0.598389  0  2.290626  0
O  O356  1  0.37062741  0.89813648  0.62265929  1  -1.215006  0  -0.576776  -0.725279  0  1.941644  0
O  O357  1  0.87063518  0.10185988  0.87734488  1  -1.215343  0  -0.576687  -0.725239  0  1.941815  0
O  O358  1  0.62936885  0.10185876  0.37734054  1  -1.215212  0  -0.576762  -0.725406  0  1.941681  0
O  O359  1  0.12936573  0.89813935  0.12265684  1  -1.215311  0  -0.576686  -0.725287  0  1.941652  0
O  O360  1  0.31580050  0.70304820  0.56782166  1  -1.207983  0  -0.316983  -0.562272  0  2.322757  0
O  O361  1  0.81579688  0.29695637  0.93217596  1  -1.20762  0  -0.317163  -0.562575  0  2.322443  0
O  O362  1  0.68420273  0.29696132  0.43217364  1  -1.207834  0  -0.317259  -0.562652  0  2.322349  0
O  O363  1  0.18420403  0.70304478  0.06782408  1  -1.207784  0  -0.317137  -0.562523  0  2.322394  0
O  O364  1  0.49699767  0.70629281  0.61303283  1  -1.219283  0  -0.564033  -0.72052  0  2.025639  0
O  O365  1  0.99700284  0.29370477  0.88696685  1  -1.220499  0  -0.564082  -0.720528  0  2.025736  0
O  O366  1  0.50300324  0.29369988  0.38696935  1  -1.21826  0  -0.564031  -0.720454  0  2.025851  0
O  O367  1  0.00299806  0.70629887  0.11302936  1  -1.218298  0  -0.56404  -0.720442  0  2.025709  0
