# generated using pymatgen
data_CuNiH15C12(NO3)3
_symmetry_space_group_name_H-M   'P 1'
_cell_length_a   9.24241486
_cell_length_b   9.00403157
_cell_length_c   10.96013213
_cell_angle_alpha   66.93232584
_cell_angle_beta   79.16695307
_cell_angle_gamma   84.02724639
_symmetry_Int_Tables_number   1
_chemical_formula_structural   CuNiH15C12(NO3)3
_chemical_formula_sum   'Cu2 Ni2 H30 C24 N6 O18'
_cell_volume   823.74116068
_cell_formula_units_Z   2
loop_
 _symmetry_equiv_pos_site_id
 _symmetry_equiv_pos_as_xyz
  1  'x, y, z'
loop_
 _atom_site_type_symbol
 _atom_site_label
 _atom_site_symmetry_multiplicity
 _atom_site_fract_x
 _atom_site_fract_y
 _atom_site_fract_z
 _atom_site_occupancy
 _atom_site_hle17_ddec_charge
 _atom_site_hle17_ddec_spin_density
 _atom_site_hle17_ddec_sum_bond_order
 _atom_site_hle17_magmom
 _atom_site_hse06_10hf_ddec_charge
 _atom_site_hse06_10hf_ddec_spin_density
 _atom_site_hse06_10hf_ddec_sum_bond_order
 _atom_site_hse06_10hf_magmom
 _atom_site_hse06_ddec_charge
 _atom_site_hse06_ddec_spin_density
 _atom_site_hse06_ddec_sum_bond_order
 _atom_site_hse06_magmom
 _atom_site_pbe_cm5_charge
 _atom_site_pbe_ddec_charge
 _atom_site_pbe_ddec_spin_density
 _atom_site_pbe_ddec_sum_bond_order
 _atom_site_pbe_magmom
Cu  Cu0  1  0.92395458  0.49629785  0.35548028  1  0.798264  -0.727383  1.942164  -0.472  0.756505  -0.828164  2.363261  -0.585  0.835775  -0.912908  2.300813  -0.663  0.756468  0.708513  -0.752104  2.405533  -0.522
Cu  Cu1  1  0.07565054  0.50379914  0.64525633  1  0.795414  0.559947  1.938363  0.445  0.754733  0.694366  2.360386  0.58  0.835984  0.778123  2.29643  0.663  0.75129  0.701921  0.582483  2.404643  0.485
Ni  Ni2  1  0.50074467  0.37363030  0.23548423  1  0.99154  1.931495  1.793864  1.525  1.008656  2.010119  2.17129  1.662  1.090638  2.069395  2.1087  1.745  0.607653  0.932822  1.913958  2.234472  1.572
Ni  Ni3  1  0.49899735  0.62712583  0.76345021  1  0.940211  0.074998  1.821084  0.088  0.966618  -0.003228  2.202813  0.032  1.0619  -0.028103  2.127644  0.013  0.58448  0.886999  0.111406  2.269945  0.118
H  H4  1  0.73542646  0.66286438  0.21184981  1  0.308594  0.00061  0.901693  0.002  0.302  -0.00028  0.951187  0.001  0.308905  -5.6e-05  0.946806  0.001  0.296852  0.296892  -0.000374  0.954962  0.0
H  H5  1  0.26162937  0.33579018  0.79120399  1  0.309685  -0.000948  0.899321  -0.002  0.302036  7.7e-05  0.949918  -0.001  0.308952  -0.000145  0.945482  -0.001  0.297172  0.29685  0.000197  0.953787  0.0
H  H6  1  0.75859380  0.76062594  0.30479601  1  0.30158  0.000257  0.877783  0.002  0.300149  -0.000798  0.922879  0.0  0.305836  -0.000492  0.920336  0.0  0.306078  0.29609  -0.000999  0.925154  0.0
H  H7  1  0.23875788  0.23812815  0.69807791  1  0.301064  -0.000594  0.877695  -0.001  0.299728  0.000647  0.922524  0.0  0.305402  0.000361  0.919986  0.0  0.305712  0.295575  0.000818  0.924968  0.0
H  H8  1  0.60460331  0.47128610  0.40093088  1  0.424333  8.5e-05  0.872973  0.0  0.39876  0.00041  0.930305  0.001  0.410397  0.000308  0.913394  0.0  0.29928  0.390139  0.000563  0.942711  0.001
H  H9  1  0.39552072  0.52620461  0.60007537  1  0.419817  0.000198  0.877747  0.0  0.395717  0.000719  0.933949  0.001  0.407547  0.000446  0.916899  0.001  0.298492  0.387078  0.00095  0.946348  0.001
H  H10  1  0.47754470  0.60604421  0.33310465  1  0.424139  0.000119  0.884016  0.0  0.392932  0.00047  0.948614  0.0  0.406585  0.000309  0.928971  0.0  0.28701  0.382775  0.000651  0.963162  0.001
H  H11  1  0.52320540  0.39294502  0.66860301  1  0.42253  0.000277  0.885859  0.0  0.392492  0.000633  0.948747  0.001  0.406406  0.000434  0.928755  0.0  0.287221  0.38223  0.000795  0.963456  0.001
H  H12  1  0.54163835  0.16860608  0.11370141  1  0.423728  -0.000276  0.813092  -0.001  0.411967  0.000292  0.861735  0.0  0.421414  0.000115  0.851447  0.0  0.328198  0.404561  0.000491  0.869732  0.0
H  H13  1  0.45878695  0.83192887  0.88575211  1  0.422061  -0.000214  0.815032  -0.001  0.411387  0.000442  0.862044  0.0  0.42104  0.000199  0.851776  0.0  0.328496  0.404086  0.000684  0.8699  0.0
H  H14  1  0.42407744  0.30301896  0.04355629  1  0.435489  -0.000159  0.858181  -0.001  0.408987  0.000177  0.914322  0.0  0.421099  8.7e-05  0.896618  0.0  0.298326  0.399835  0.000288  0.927678  0.0
H  H15  1  0.57463367  0.69663573  0.95672127  1  0.432869  -2.6e-05  0.8608  -0.001  0.407926  0.000506  0.914698  0.0  0.420186  0.000265  0.896838  0.0  0.299154  0.398791  0.000725  0.92803  0.0
H  H16  1  0.66031481  0.47675785  0.98890975  1  0.404268  -0.000353  0.906758  -0.001  0.375996  0.000115  0.972645  0.0  0.38744  2e-05  0.956425  0.0  0.292928  0.367434  0.000204  0.984665  0.0
H  H17  1  0.33712928  0.52214109  0.01200246  1  0.40443  2.9e-05  0.909931  0.001  0.376061  -0.000218  0.973916  0.0  0.387514  -0.000134  0.957656  0.0  0.292094  0.367635  -0.000242  0.985787  0.0
H  H18  1  0.73939488  0.47332387  0.11106902  1  0.410364  -0.000582  0.91175  -0.001  0.379912  -0.000109  0.975607  0.0  0.392333  -0.000209  0.958094  0.0  0.283993  0.371227  -1.6e-05  0.987748  0.0
H  H19  1  0.26146518  0.52403132  0.88903172  1  0.410543  0.000191  0.911216  0.001  0.379928  -0.000153  0.975523  0.0  0.392113  -2.8e-05  0.95831  0.0  0.284789  0.371433  -0.000247  0.987431  0.0
H  H20  1  0.03573644  0.66705408  0.02702818  1  0.077245  -0.00048  0.92059  -0.001  0.094007  -0.000175  0.978969  0.0  0.093855  -0.000194  0.979061  0.0  0.106459  0.093911  -0.000147  0.979953  0.0
H  H21  1  0.96078123  0.33435059  0.97398878  1  0.079511  0.000228  0.921977  0.001  0.095607  8.4e-05  0.98076  0.0  0.095507  0.000124  0.980736  0.0  0.107178  0.09548  2.2e-05  0.9818  0.0
H  H22  1  0.15112078  0.79780437  0.04883341  1  0.068668  -0.003666  0.909272  -0.004  0.08403  -0.002501  0.969384  -0.003  0.084202  -0.001967  0.968617  -0.002  0.10521  0.083841  -0.002705  0.970163  -0.003
H  H23  1  0.84468017  0.20491060  0.95133289  1  0.068825  0.002724  0.907997  0.004  0.084679  0.002074  0.967773  0.003  0.084821  0.001655  0.966988  0.002  0.105479  0.08445  0.002061  0.968636  0.002
H  H24  1  0.95377461  0.89836241  0.17415459  1  0.051173  3.8e-05  0.989586  0.0  0.064519  5.1e-05  1.061403  0.0  0.062999  4.4e-05  1.06563  0.0  0.09885  0.065579  4.9e-05  1.058158  0.0
H  H25  1  0.04164016  0.10283953  0.82696226  1  0.05145  -3.7e-05  0.989326  0.0  0.064746  -7.4e-05  1.061209  0.0  0.063204  -6e-05  1.065505  0.0  0.09902  0.065822  -8.5e-05  1.057949  0.0
H  H26  1  0.86924094  0.88383519  0.04638624  1  0.054017  -0.002232  0.926913  -0.003  0.074353  -0.001589  0.983002  -0.002  0.073957  -0.001202  0.983602  -0.002  0.100898  0.074335  -0.001873  0.983169  -0.002
H  H27  1  0.12553857  0.11593726  0.95571227  1  0.054784  0.001734  0.927006  0.003  0.074205  0.00133  0.984126  0.002  0.073764  0.001021  0.984834  0.002  0.10077  0.074119  0.001457  0.984344  0.002
H  H28  1  0.72750258  0.98977180  0.76705994  1  0.111532  -0.000142  0.970509  0.0  0.115417  -1e-05  1.037537  0.0  0.119876  -9e-06  1.033245  0.0  0.101567  0.112044  4e-05  1.040782  0.0
H  H29  1  0.27559652  0.00860337  0.23282136  1  0.112171  0.000245  0.968806  0.0  0.115998  0.000256  1.036057  0.0  0.120453  0.000144  1.031821  0.0  0.101504  0.112599  0.0004  1.039362  0.0
H  H30  1  0.91143674  0.76108692  0.83178873  1  0.102942  0.000198  0.947116  0.0  0.112118  0.00016  1.008104  0.0  0.115781  0.000102  1.006035  0.0  0.10181  0.108708  0.000195  1.011632  0.0
H  H31  1  0.09268124  0.23793995  0.16629864  1  0.102325  -0.00023  0.946765  0.0  0.111628  -0.000177  1.007991  0.0  0.115186  -0.000111  1.006029  0.0  0.101279  0.108327  -0.000174  1.011339  0.0
H  H32  1  0.24684814  0.06565915  0.54331154  1  0.139774  0.000561  0.967333  0.001  0.146892  0.000188  1.025884  0.0  0.152228  0.000127  1.021458  0.0  0.112467  0.142954  0.000265  1.029249  0.0
H  H33  1  0.75583453  0.93587022  0.45489582  1  0.139101  -0.000232  0.969325  -0.001  0.146418  6e-06  1.027761  0.0  0.151794  -1.2e-05  1.023301  0.0  0.112297  0.142494  9.3e-05  1.03104  0.0
C  C34  1  0.20445941  0.35621716  0.36907390  1  0.434475  0.00077  3.843225  0.0  0.404816  1e-06  4.134572  0.0  0.433671  0.000323  4.138999  0.0  0.224141  0.384151  -0.000512  4.131356  -0.001
C  C35  1  0.79589481  0.64562078  0.62887072  1  0.433225  -0.004154  3.853413  -0.002  0.404838  -0.001594  4.144156  -0.001  0.434008  -0.001683  4.148926  -0.002  0.224611  0.383382  -0.001441  4.141527  -0.001
C  C36  1  0.21086026  0.50618573  0.23950276  1  0.412828  0.00857  3.899229  0.01  0.374456  0.002346  4.18703  0.004  0.402162  0.00281  4.191371  0.004  0.219245  0.354331  0.002  4.184095  0.003
C  C37  1  0.78789237  0.49676528  0.75907067  1  0.410241  -0.012835  3.898959  -0.013  0.37147  -0.003881  4.188292  -0.005  0.399769  -0.004309  4.193511  -0.005  0.219043  0.349981  -0.003248  4.186129  -0.004
C  C38  1  0.05682838  0.71828255  0.09822939  1  0.032305  -0.003225  3.65245  0.0  -0.018811  -0.003886  3.920195  -0.001  -0.012328  -0.002736  3.932611  0.0  -0.063473  -0.023489  -0.004524  3.913122  -0.002
C  C39  1  0.93966708  0.28349108  0.90257802  1  0.031097  0.002061  3.648763  0.0  -0.020235  0.003002  3.916607  0.001  -0.01358  0.002046  3.928802  0.0  -0.063956  -0.025069  0.003369  3.909719  0.002
C  C40  1  0.92044314  0.81377159  0.13583855  1  0.05713  0.000407  3.621333  0.003  -1.2e-05  -0.002139  3.890878  0.0  0.005139  -0.001501  3.903308  0.001  -0.073448  -0.003236  -0.0025  3.882576  0.0
C  C41  1  0.07550130  0.18674735  0.86570965  1  0.055512  -0.00113  3.623113  -0.003  -0.000958  0.001601  3.891474  0.0  0.004109  0.00107  3.904073  0.0  -0.073532  -0.004252  0.001791  3.883514  0.0
C  C42  1  0.75164296  0.27634116  0.59411091  1  0.661214  0.001531  3.841663  0.004  0.613229  -0.000544  4.139229  0.001  0.648917  -0.000414  4.132902  0.001  0.215777  0.589075  -0.000672  4.14262  0.001
C  C43  1  0.25020698  0.72267623  0.40689967  1  0.661935  -0.002605  3.841989  -0.004  0.614318  0.000102  4.139612  -0.001  0.650144  3.5e-05  4.133136  -0.001  0.216633  0.589903  0.000175  4.143357  -0.001
C  C44  1  0.87992523  0.15674745  0.61783473  1  -0.156678  -0.004476  3.665014  -0.005  -0.143209  -0.001507  3.908443  -0.002  -0.154816  -0.001305  3.93233  -0.002  -0.019726  -0.136543  -0.002162  3.893168  -0.002
C  C45  1  0.12243204  0.84273651  0.38208024  1  -0.156429  0.001973  3.66549  0.003  -0.144234  0.001027  3.909852  0.002  -0.156003  0.000804  3.933808  0.002  -0.020841  -0.137053  0.001239  3.894116  0.002
C  C46  1  0.84216634  0.00570800  0.71918806  1  -0.052954  0.003505  3.747701  0.004  -0.076789  0.000628  4.003283  0.001  -0.075306  0.000718  4.022458  0.001  -0.086492  -0.076943  0.000351  3.989977  0.001
C  C47  1  0.16080271  0.99330812  0.28027970  1  -0.052945  -0.001259  3.745053  -0.001  -0.076528  -3.3e-05  4.001061  0.0  -0.074999  -0.000279  4.020268  0.0  -0.085869  -0.076601  0.000242  3.987351  0.0
C  C48  1  0.94399433  0.87858631  0.75587306  1  -0.092923  -0.005984  3.758312  -0.005  -0.121687  -0.001449  4.020801  -0.001  -0.124492  -0.001229  4.041877  -0.001  -0.098231  -0.120644  -0.001807  4.008571  -0.002
C  C49  1  0.05951979  0.12085283  0.24267548  1  -0.092106  0.002976  3.758524  0.003  -0.121266  0.00092  4.020992  0.001  -0.124078  0.000736  4.042201  0.001  -0.097982  -0.119911  0.001021  4.008226  0.001
C  C50  1  0.09116147  0.90205173  0.69293001  1  -0.043915  0.002518  3.786528  0.003  -0.022866  -0.001396  4.023504  -0.001  -0.02832  -0.000824  4.04527  -0.001  -0.019056  -0.01884  -0.001639  4.009263  -0.002
C  C51  1  0.91227091  0.09825650  0.30539014  1  -0.045763  0.004029  3.787022  0.005  -0.024326  0.003075  4.024191  0.004  -0.029625  0.002093  4.046203  0.003  -0.019985  -0.02062  0.003782  4.01002  0.005
C  C52  1  0.13270762  0.05048563  0.59227003  1  -0.169559  -0.010735  3.650005  -0.01  -0.198523  -0.004817  3.895947  -0.005  -0.202095  -0.004  3.912838  -0.004  -0.093082  -0.196291  -0.004883  3.885113  -0.005
C  C53  1  0.87016917  0.95030629  0.40645869  1  -0.16873  0.006655  3.651452  0.008  -0.198382  0.003903  3.89689  0.005  -0.202182  0.003164  3.913833  0.004  -0.09312  -0.196021  0.003475  3.886247  0.004
C  C54  1  0.02884369  0.17994396  0.54911600  1  0.247024  0.001085  3.758195  0.004  0.242603  -0.002109  4.018422  0.0  0.254335  -0.001195  4.041107  0.001  0.09874  0.234876  -0.002543  4.003736  0.0
C  C55  1  0.97329397  0.82028548  0.45009025  1  0.245245  -0.001173  3.762221  -0.003  0.242384  0.001518  4.021223  0.0  0.254385  0.000813  4.043733  -0.001  0.098419  0.234163  0.001743  4.006746  0.0
C  C56  1  0.20122910  0.76455941  0.73528064  1  0.63234  -0.001911  3.879142  -0.002  0.587504  -0.001604  4.184399  -0.001  0.624754  -0.001171  4.177068  -0.001  0.209143  0.561707  -0.001942  4.188041  -0.001
C  C57  1  0.80164243  0.23508769  0.26284135  1  0.634429  -0.004362  3.882982  -0.006  0.588816  -0.00025  4.188107  -0.001  0.625096  -0.000289  4.180192  -0.001  0.20803  0.56363  -0.000582  4.191948  -0.002
N  N58  1  0.08718651  0.58766744  0.22010658  1  -0.431606  -0.113237  3.343607  -0.129  -0.392918  -0.076402  3.668977  -0.091  -0.431283  -0.066922  3.687502  -0.083  -0.418507  -0.367483  -0.078325  3.657701  -0.091
N  N59  1  0.91064581  0.41451952  0.78034625  1  -0.426185  0.085682  3.340837  0.12  -0.388782  0.063872  3.667001  0.091  -0.427747  0.056724  3.685355  0.083  -0.41444  -0.361547  0.059293  3.655461  0.083
N  N60  1  0.06868156  0.32412791  0.44123721  1  -0.522122  -0.096974  3.302021  -0.111  -0.504288  -0.072375  3.643777  -0.087  -0.546514  -0.062192  3.66096  -0.078  -0.388361  -0.476558  -0.074702  3.634508  -0.087
N  N61  1  0.93224250  0.67648838  0.55790418  1  -0.520312  0.075548  3.307857  0.106  -0.505108  0.061331  3.650569  0.087  -0.548059  0.053003  3.667554  0.078  -0.387673  -0.475433  0.057979  3.640669  0.081
N  N62  1  0.81441295  0.70387397  0.24449375  1  -0.586071  -0.087211  3.096414  -0.098  -0.558434  -0.064451  3.360742  -0.074  -0.585735  -0.05539  3.359753  -0.067  -0.632695  -0.541993  -0.066855  3.363097  -0.074
N  N63  1  0.18284502  0.29556383  0.75779163  1  -0.58789  0.06609  3.099608  0.09  -0.558437  0.05351  3.363542  0.073  -0.585631  0.046513  3.36218  0.066  -0.633049  -0.542129  0.050785  3.36642  0.067
O  O64  1  0.32436551  0.27592071  0.39089355  1  -0.491886  0.043578  2.03728  0.066  -0.465649  0.02699  2.279942  0.042  -0.499081  0.021706  2.273027  0.034  -0.2685  -0.436951  0.031039  2.28313  0.047
O  O65  1  0.67648707  0.72595875  0.60554866  1  -0.482235  -0.033416  2.028395  -0.039  -0.460145  -0.017079  2.269923  -0.021  -0.495603  -0.015998  2.26299  -0.02  -0.264833  -0.429358  -0.01261  2.273237  -0.014
O  O66  1  0.33442354  0.53538923  0.15885627  1  -0.571289  0.041641  2.138783  0.062  -0.53318  0.028448  2.391676  0.043  -0.569315  0.023534  2.384905  0.037  -0.306291  -0.503023  0.031046  2.395185  0.046
O  O67  1  0.66324114  0.46921975  0.83861106  1  -0.555839  -0.003206  2.145286  -0.003  -0.521337  -0.016549  2.402731  -0.02  -0.562108  -0.014938  2.397411  -0.019  -0.301065  -0.487606  -0.016118  2.405673  -0.019
O  O68  1  0.75681075  0.40926156  0.48773185  1  -0.635227  -0.060534  2.182356  -0.074  -0.587108  -0.043933  2.47209  -0.057  -0.625113  -0.036901  2.458204  -0.05  -0.344202  -0.561535  -0.047222  2.48149  -0.06
O  O69  1  0.24353888  0.58919133  0.51280980  1  -0.633305  0.048466  2.179219  0.073  -0.586684  0.03799  2.468905  0.059  -0.625094  0.031937  2.455031  0.051  -0.343845  -0.560825  0.037554  2.478674  0.057
O  O70  1  0.63623865  0.24434148  0.67987409  1  -0.566676  -0.008831  1.931914  -0.01  -0.518894  -0.005243  2.137072  -0.007  -0.542038  -0.003361  2.125912  -0.004  -0.303785  -0.502371  -0.006838  2.144424  -0.008
O  O71  1  0.36666714  0.75477361  0.32242483  1  -0.567327  0.009229  1.93557  0.013  -0.518806  0.0057  2.14063  0.009  -0.542014  0.003481  2.129498  0.005  -0.304114  -0.502559  0.007014  2.148268  0.01
O  O72  1  0.14919841  0.62461203  0.80525981  1  -0.637626  -0.00036  2.036611  0.001  -0.592868  -0.000583  2.280582  0.0  -0.619633  -0.000562  2.268311  0.0  -0.322059  -0.575198  -0.000741  2.289002  0.0
O  O73  1  0.85309877  0.37546112  0.19199564  1  -0.640395  -0.00097  2.028705  -0.001  -0.595221  -0.000395  2.272405  -0.001  -0.621421  -0.000397  2.259966  -0.001  -0.324529  -0.577959  -0.000477  2.280916  -0.001
O  O74  1  0.33830091  0.79564067  0.70146559  1  -0.577703  -0.001415  2.020018  -0.001  -0.557326  -0.015759  2.282012  -0.019  -0.596075  -0.012538  2.27008  -0.015  -0.306516  -0.527151  -0.017355  2.289846  -0.02
O  O75  1  0.66503678  0.20317663  0.29731191  1  -0.593131  0.053221  2.013887  0.081  -0.568376  0.03229  2.270708  0.05  -0.602341  0.024451  2.258063  0.039  -0.310404  -0.540335  0.037997  2.278597  0.058
O  O76  1  0.55466849  0.52125557  0.32114335  1  -0.829187  0.045231  1.993082  0.067  -0.798351  0.032419  2.202898  0.048  -0.829135  0.025403  2.166149  0.038  -0.574065  -0.772708  0.037723  2.229823  0.054
O  O77  1  0.44495042  0.47670997  0.68022851  1  -0.819996  0.05114  1.997645  0.072  -0.78676  0.039191  2.204216  0.056  -0.82001  0.031593  2.166857  0.046  -0.57009  -0.76078  0.044125  2.231601  0.062
O  O78  1  0.45214890  0.22880447  0.13162569  1  -0.788347  0.03308  1.897275  0.048  -0.755928  0.026551  2.080139  0.038  -0.781113  0.021073  2.048696  0.031  -0.554097  -0.735028  0.030964  2.104069  0.043
O  O79  1  0.54815709  0.77124949  0.86836879  1  -0.782759  0.037336  1.901592  0.05  -0.748599  0.031634  2.079336  0.042  -0.775521  0.025908  2.047194  0.036  -0.551669  -0.727652  0.035292  2.10344  0.046
O  O80  1  0.64765440  0.51648291  0.06365567  1  -0.832898  0.041869  1.971698  0.061  -0.791232  0.031389  2.165949  0.045  -0.822453  0.024595  2.131666  0.037  -0.570114  -0.766248  0.036028  2.190886  0.051
O  O81  1  0.35096846  0.48015084  0.93848657  1  -0.831433  -0.044573  1.964687  -0.05  -0.789284  -0.027107  2.155087  -0.031  -0.820722  -0.022052  2.120204  -0.026  -0.570555  -0.764803  -0.02616  2.180254  -0.029
