# generated using pymatgen
data_CuH8C8(ClO2)4
_symmetry_space_group_name_H-M   'P 1'
_cell_length_a   7.10422876
_cell_length_b   8.44818917
_cell_length_c   8.39885444
_cell_angle_alpha   61.20371496
_cell_angle_beta   92.97879779
_cell_angle_gamma   80.47768548
_symmetry_Int_Tables_number   1
_chemical_formula_structural   CuH8C8(ClO2)4
_chemical_formula_sum   'Cu1 H8 C8 Cl4 O8'
_cell_volume   430.57452232
_cell_formula_units_Z   1
loop_
 _symmetry_equiv_pos_site_id
 _symmetry_equiv_pos_as_xyz
  1  'x, y, z'
loop_
 _atom_site_type_symbol
 _atom_site_label
 _atom_site_symmetry_multiplicity
 _atom_site_fract_x
 _atom_site_fract_y
 _atom_site_fract_z
 _atom_site_occupancy
 _atom_site_hle17_ddec_charge
 _atom_site_hle17_ddec_spin_density
 _atom_site_hle17_ddec_sum_bond_order
 _atom_site_hle17_magmom
 _atom_site_hse06_10hf_ddec_charge
 _atom_site_hse06_10hf_ddec_spin_density
 _atom_site_hse06_10hf_ddec_sum_bond_order
 _atom_site_hse06_10hf_magmom
 _atom_site_hse06_ddec_charge
 _atom_site_hse06_ddec_spin_density
 _atom_site_hse06_ddec_sum_bond_order
 _atom_site_hse06_magmom
 _atom_site_pbe_cm5_charge
 _atom_site_pbe_ddec_charge
 _atom_site_pbe_ddec_spin_density
 _atom_site_pbe_ddec_sum_bond_order
 _atom_site_pbe_magmom
Cu  Cu0  1  0.00000192  0.99999085  0.00000730  1  1.074194  0.724649  1.604066  0.563  1.084966  0.820339  1.978136  0.691  1.163798  0.876473  1.92363  0.772  0.703518  1.03215  0.776286  2.018292  0.632
H  H1  1  0.31084723  0.79422277  0.14277682  1  0.415669  -0.000733  0.897133  -0.002  0.37953  1.3e-05  0.971152  0.0  0.392026  -0.000181  0.953572  0.0  0.28452  0.370699  0.000204  0.983583  0.0
H  H2  1  0.68916219  0.20578404  0.85722610  1  0.415771  -0.000734  0.896991  -0.002  0.379631  1.3e-05  0.971008  0.0  0.392128  -0.000181  0.953427  0.0  0.28453  0.3708  0.000204  0.983442  0.0
H  H3  1  0.21505863  0.81902513  0.30140604  1  0.425677  -0.001037  0.816002  -0.001  0.408055  -3.6e-05  0.875675  0.0  0.417001  -0.000186  0.866534  0.0  0.317356  0.401583  0.000125  0.882448  0.0
H  H4  1  0.78494361  0.18100706  0.69857704  1  0.425633  -0.001036  0.81586  -0.001  0.408037  -3.5e-05  0.875517  0.0  0.416981  -0.000186  0.86638  0.0  0.317342  0.401579  0.000125  0.882269  0.0
H  H5  1  0.31949782  0.19869206  0.02374781  1  0.415844  -3.3e-05  0.891709  0.0  0.384378  -7.8e-05  0.958219  0.0  0.395839  -5.3e-05  0.941551  0.0  0.273004  0.376416  -8.8e-05  0.969792  0.0
H  H6  1  0.68050880  0.80129750  0.97625218  1  0.415754  -3.3e-05  0.891821  0.0  0.384389  -7.8e-05  0.958184  0.0  0.395845  -5.3e-05  0.941524  0.0  0.273019  0.376428  -8.8e-05  0.969754  0.0
H  H7  1  0.13919720  0.25836045  0.09959632  1  0.410076  -2.4e-05  0.843653  0.0  0.400931  -9.8e-05  0.889196  0.0  0.40952  -5.6e-05  0.876686  0.0  0.305632  0.394896  -0.000129  0.898062  0.0
H  H8  1  0.86078169  0.74170220  0.90032766  1  0.410277  -2.5e-05  0.843425  0.0  0.40104  -9.7e-05  0.889069  0.0  0.409632  -5.6e-05  0.876553  0.0  0.305677  0.395005  -0.000129  0.897937  0.0
C  C9  1  0.31559448  0.92650796  0.82369694  1  0.679917  -0.006945  3.883886  -0.006  0.631411  -0.001198  4.189729  -0.002  0.669038  -0.001353  4.181165  -0.001  0.21465  0.605509  -0.000875  4.195013  -0.002
C  C10  1  0.68440496  0.07347628  0.17632936  1  0.680178  -0.006978  3.884321  -0.006  0.631745  -0.001195  4.190131  -0.002  0.669348  -0.00135  4.181601  -0.001  0.214808  0.605859  -0.000873  4.195417  -0.002
C  C11  1  0.40267149  0.96675765  0.65107375  1  -0.124435  0.010955  3.728648  0.012  -0.127173  0.004933  3.986921  0.006  -0.131081  0.002926  4.003282  0.004  -0.022703  -0.124533  0.007035  3.976022  0.008
C  C12  1  0.59731128  0.03324146  0.34893154  1  -0.124549  0.01103  3.72922  0.012  -0.127438  0.004929  3.98762  0.006  -0.131338  0.002924  4.003983  0.004  -0.022683  -0.124805  0.007031  3.976723  0.008
C  C13  1  0.42866382  0.14540644  0.53258877  1  0.055309  0.001491  3.801257  0.001  0.049255  0.001059  4.082293  0.001  0.052571  0.0006  4.10152  0.001  0.004362  0.046829  0.001619  4.069528  0.001
C  C14  1  0.57131858  0.85459627  0.46739936  1  0.055392  0.001403  3.801453  0.001  0.049394  0.001061  4.082526  0.001  0.05271  0.0006  4.101749  0.001  0.004351  0.046969  0.001619  4.069765  0.001
C  C15  1  0.52820719  0.17767126  0.38298173  1  0.052551  0.001118  3.807826  0.001  0.047176  0.000962  4.089196  0.001  0.04993  0.000517  4.109058  0.0  0.002159  0.045122  0.001517  4.076003  0.001
C  C16  1  0.47178492  0.82232570  0.61701018  1  0.05243  0.001195  3.807594  0.001  0.046968  0.00096  4.089011  0.001  0.049726  0.000517  4.108868  0.0  0.002166  0.044913  0.001517  4.075819  0.001
Cl  Cl17  1  0.33953608  0.32320837  0.57146188  1  -0.012754  0.001367  1.443992  0.002  -0.001443  0.001211  1.67935  0.001  -0.003302  0.00071  1.671607  0.001  0.032435  0.000209  0.001799  1.684853  0.002
Cl  Cl18  1  0.66044735  0.67678790  0.42854588  1  -0.012742  0.001364  1.444185  0.002  -0.001425  0.001212  1.679539  0.001  -0.003285  0.000711  1.671798  0.001  0.032452  0.000227  0.0018  1.685042  0.002
Cl  Cl19  1  0.56932607  0.39388853  0.24191663  1  -0.0288  0.000662  1.452052  0.001  -0.021323  0.00053  1.689813  0.001  -0.022869  0.000287  1.68198  0.0  0.021532  -0.020132  0.000863  1.695561  0.001
Cl  Cl20  1  0.43066641  0.60610030  0.75810165  1  -0.028823  0.000669  1.451908  0.001  -0.021331  0.000529  1.689691  0.001  -0.022879  0.000287  1.681854  0.0  0.021501  -0.02014  0.000863  1.695441  0.001
O  O21  1  0.13386145  0.98221586  0.80405638  1  -0.587562  0.076359  2.032453  0.109  -0.566994  0.044335  2.300061  0.069  -0.608166  0.03136  2.291134  0.053  -0.317507  -0.538599  0.053739  2.305817  0.079
O  O22  1  0.86613922  0.01777419  0.19596131  1  -0.587671  0.076369  2.032295  0.109  -0.567114  0.044331  2.299883  0.069  -0.608277  0.031356  2.290965  0.053  -0.317568  -0.538723  0.053732  2.305642  0.079
O  O23  1  0.43215079  0.84263336  0.97280689  1  -0.601864  -0.001449  2.040483  0.0  -0.543341  -0.000722  2.257808  0.0  -0.572591  -0.001171  2.250338  0.0  -0.291164  -0.522898  -0.000171  2.262558  0.001
O  O24  1  0.56787916  0.15737137  0.02720287  1  -0.602158  -0.001431  2.040933  0.0  -0.54365  -0.000722  2.258291  0.0  -0.572897  -0.001171  2.250833  0.0  -0.291337  -0.523204  -0.000171  2.26304  0.001
O  O25  1  0.19177001  0.78865611  0.20502613  1  -0.78801  0.058653  1.961519  0.082  -0.763113  0.041648  2.174605  0.062  -0.793595  0.03119  2.144531  0.051  -0.571107  -0.742715  0.048671  2.196017  0.068
O  O26  1  0.80824611  0.21133944  0.79498426  1  -0.788042  0.05865  1.961342  0.082  -0.763156  0.041646  2.174428  0.062  -0.793634  0.031189  2.144352  0.051  -0.571068  -0.742775  0.048666  2.195801  0.068
O  O27  1  0.17656744  0.21832552  0.01285716  1  -0.84855  -0.002738  1.817994  -0.001  -0.819627  -0.002726  1.982124  -0.001  -0.836011  -0.002823  1.948153  -0.001  -0.604897  -0.808259  -0.002444  2.00613  -0.001
O  O28  1  0.82345014  0.78163656  0.98715048  1  -0.848712  -0.002737  1.817845  -0.001  -0.81978  -0.002725  1.981873  -0.001  -0.836167  -0.002824  1.947907  -0.001  -0.604982  -0.808411  -0.002445  2.005878  -0.001
