# generated using pymatgen
data_FeH6(C3N2)2
_symmetry_space_group_name_H-M   'P 1'
_cell_length_a   7.25370659
_cell_length_b   7.25992578
_cell_length_c   8.87837619
_cell_angle_alpha   114.14486573
_cell_angle_beta   114.11550759
_cell_angle_gamma   89.99981308
_symmetry_Int_Tables_number   1
_chemical_formula_structural   FeH6(C3N2)2
_chemical_formula_sum   'Fe2 H12 C12 N8'
_cell_volume   381.48767183
_cell_formula_units_Z   2
loop_
 _symmetry_equiv_pos_site_id
 _symmetry_equiv_pos_as_xyz
  1  'x, y, z'
loop_
 _atom_site_type_symbol
 _atom_site_label
 _atom_site_symmetry_multiplicity
 _atom_site_fract_x
 _atom_site_fract_y
 _atom_site_fract_z
 _atom_site_occupancy
 _atom_site_pbe_cm5_charge
 _atom_site_pbe_ddec_charge
 _atom_site_pbe_ddec_spin_density
 _atom_site_pbe_ddec_sum_bond_order
 _atom_site_pbe_magmom
Fe  Fe0  1  0.75002322  0.50001893  0.99997130  1  0.729355  0.554188  3.773425  2.845186  3.393
Fe  Fe1  1  0.24997573  0.49997009  0.00005232  1  0.729364  0.554187  3.773377  2.845522  3.393
H  H2  1  0.24338268  0.21030823  0.48676676  1  0.103533  0.125869  0.000195  1.041777  0.0
H  H3  1  0.25626730  0.72311420  0.51318200  1  0.103333  0.12566  0.000195  1.040402  0.0
H  H4  1  0.74380183  0.27687814  0.48682566  1  0.103367  0.125667  0.000195  1.040482  0.0
H  H5  1  0.75658267  0.78971564  0.51320008  1  0.103527  0.125984  0.000195  1.04173  0.0
H  H6  1  0.85843441  0.96344817  0.31293852  1  0.114262  0.097122  0.000948  1.032134  0.001
H  H7  1  0.45498497  0.96306338  0.31386068  1  0.114335  0.096814  0.000948  1.03202  0.001
H  H8  1  0.04493241  0.64904037  0.68635802  1  0.114356  0.096931  0.000943  1.031901  0.001
H  H9  1  0.35901624  0.35059679  0.31368834  1  0.114038  0.096743  0.000945  1.032074  0.001
H  H10  1  0.14125163  0.03686966  0.68647897  1  0.114092  0.096848  0.000949  1.03222  0.001
H  H11  1  0.54523724  0.03666024  0.68666277  1  0.114408  0.096976  0.000949  1.032077  0.001
H  H12  1  0.95482816  0.35011699  0.31306875  1  0.114482  0.097099  0.000944  1.031208  0.001
H  H13  1  0.64131065  0.65020387  0.68692480  1  0.113924  0.09696  0.000946  1.031973  0.001
C  C14  1  0.18865853  0.05338526  0.37724642  1  -0.128123  -0.239303  0.00851  4.041737  0.01
C  C15  1  0.31111089  0.67586168  0.62277686  1  -0.127411  -0.237816  0.008503  4.039199  0.01
C  C16  1  0.68891941  0.32411812  0.37724169  1  -0.127619  -0.238128  0.008502  4.038816  0.01
C  C17  1  0.81131891  0.94663865  0.62271772  1  -0.128418  -0.239873  0.008516  4.042079  0.01
C  C18  1  0.99327030  0.92904776  0.29061497  1  0.009183  0.006892  0.018392  4.004546  0.025
C  C19  1  0.29759793  0.92883022  0.29103838  1  0.008148  0.007045  0.018396  4.006062  0.025
C  C20  1  0.20230837  0.63763348  0.70912365  1  0.00821  0.006071  0.018412  4.006429  0.025
C  C21  1  0.49364211  0.36217870  0.29096662  1  0.008728  0.006888  0.018403  4.006202  0.025
C  C22  1  0.00657698  0.07112168  0.70912448  1  0.009792  0.007867  0.018384  4.003755  0.024
C  C23  1  0.70249255  0.07104587  0.70920478  1  0.008001  0.006436  0.018398  4.007001  0.025
C  C24  1  0.79760295  0.36197945  0.29064198  1  0.008171  0.005859  0.018421  4.006243  0.025
C  C25  1  0.50651805  0.63816946  0.70930899  1  0.008894  0.006323  0.018406  4.007361  0.025
N  N26  1  0.98654119  0.74230918  0.16257755  1  -0.293184  -0.185982  0.032966  3.597399  0.037
N  N27  1  0.17617540  0.74215469  0.16279217  1  -0.292743  -0.185491  0.032958  3.597477  0.037
N  N28  1  0.32383897  0.57931337  0.83736004  1  -0.292796  -0.185701  0.032956  3.599717  0.037
N  N29  1  0.48666722  0.42054447  0.16268686  1  -0.292936  -0.185504  0.03291  3.600312  0.037
N  N30  1  0.01336099  0.25780419  0.83729964  1  -0.293377  -0.186116  0.03297  3.597063  0.037
N  N31  1  0.82383676  0.25775897  0.83730587  1  -0.292729  -0.185132  0.03296  3.597846  0.037
N  N32  1  0.67612152  0.42045117  0.16253689  1  -0.292939  -0.185791  0.032959  3.600065  0.037
N  N33  1  0.51341411  0.57964748  0.83745387  1  -0.293228  -0.185593  0.032922  3.601396  0.037
