# generated using pymatgen
data_Cu3H10C13(BrN)3
_symmetry_space_group_name_H-M   'P 1'
_cell_length_a   7.15662709
_cell_length_b   12.17537967
_cell_length_c   17.51910000
_cell_angle_alpha   90.00000000
_cell_angle_beta   90.00000000
_cell_angle_gamma   103.96387234
_symmetry_Int_Tables_number   1
_chemical_formula_structural   Cu3H10C13(BrN)3
_chemical_formula_sum   'Cu12 H40 C52 Br12 N12'
_cell_volume   1481.40905950
_cell_formula_units_Z   4
loop_
 _symmetry_equiv_pos_site_id
 _symmetry_equiv_pos_as_xyz
  1  'x, y, z'
loop_
 _atom_site_type_symbol
 _atom_site_label
 _atom_site_symmetry_multiplicity
 _atom_site_fract_x
 _atom_site_fract_y
 _atom_site_fract_z
 _atom_site_occupancy
 _atom_site_hle17_bader_spin_density
 _atom_site_hle17_ddec_charge
 _atom_site_hle17_ddec_spin_density
 _atom_site_hle17_ddec_sum_bond_order
 _atom_site_hle17_magmom
 _atom_site_hse06_10hf_bader_spin_density
 _atom_site_hse06_10hf_ddec_charge
 _atom_site_hse06_10hf_ddec_spin_density
 _atom_site_hse06_10hf_ddec_sum_bond_order
 _atom_site_hse06_10hf_magmom
 _atom_site_hse06_bader_spin_density
 _atom_site_hse06_ddec_charge
 _atom_site_hse06_ddec_spin_density
 _atom_site_hse06_ddec_sum_bond_order
 _atom_site_hse06_magmom
 _atom_site_pbe_bader_charge
 _atom_site_pbe_bader_spin_density
 _atom_site_pbe_cm5_charge
 _atom_site_pbe_ddec_charge
 _atom_site_pbe_ddec_spin_density
 _atom_site_pbe_ddec_sum_bond_order
 _atom_site_pbe_magmom
Cu  Cu0  1  0.09608067  0.74951417  0.11721264  1  0  0.375958  0  1.923384  0  0  0.279587  0  2.409682  0  0  0.290497  0  2.35608  0  0.531726  0  0.305853  0.274991  0  2.444401  0
Cu  Cu1  1  0.40393702  0.25049228  0.61721321  1  0  0.376  0  1.923439  0  0  0.279647  0  2.409753  0  0  0.290548  0  2.356147  0  0.531799  0  0.305905  0.275057  0  2.444467  0
Cu  Cu2  1  0.90394037  0.25049143  0.88278622  1  0  0.375981  0  1.923403  0  0  0.279628  0  2.409711  0  0  0.290517  0  2.356107  0  0.531746  0  0.305904  0.275039  0  2.444433  0
Cu  Cu3  1  0.59605052  0.74949978  0.38278850  1  0  0.375937  0  1.923369  0  0  0.279614  0  2.409671  0  0  0.290481  0  2.35606  0  0.531903  0  0.305902  0.275036  0  2.444362  0
Cu  Cu4  1  0.83852414  0.72705398  0.27676422  1  0  0.329524  0  2.041099  0  0  0.256279  0  2.530313  0  0  0.275005  0  2.466118  0  0.452089  0  0.190999  0.244022  0  2.575103  0
Cu  Cu5  1  0.66146078  0.27294993  0.77675794  1  0  0.329509  0  2.041043  0  0  0.256251  0  2.530263  0  0  0.27498  0  2.466048  0  0.4521  0  0.191014  0.244007  0  2.57502  0
Cu  Cu6  1  0.16145219  0.27295162  0.72323864  1  0  0.32953  0  2.041154  0  0  0.256296  0  2.530368  0  0  0.275022  0  2.46615  0  0.452182  0  0.191005  0.244044  0  2.57515  0
Cu  Cu7  1  0.33853618  0.72704806  0.22323635  1  0  0.329515  0  2.041348  0  0  0.256307  0  2.530542  0  0  0.275035  0  2.466343  0  0.452237  0  0.191025  0.244043  0  2.57535  0
Cu  Cu8  1  0.71859846  0.94222001  0.10948165  1  0  0.436583  0  1.937784  0  0  0.360141  0  2.397539  0  0  0.358183  0  2.359802  0  0.579498  0  0.38647  0.363258  0  2.421857  0
Cu  Cu9  1  0.78138124  0.05777460  0.60948051  1  0  0.436637  0  1.937579  0  0  0.360241  0  2.397308  0  0  0.358279  0  2.359592  0  0.579687  0  0.386482  0.363368  0  2.421631  0
Cu  Cu10  1  0.28140023  0.05778221  0.89051835  1  0  0.436642  0  1.93763  0  0  0.36023  0  2.397348  0  0  0.358269  0  2.359637  0  0.579585  0  0.386468  0.363344  0  2.421668  0
Cu  Cu11  1  0.21859442  0.94221916  0.39051721  1  0  0.436661  0  1.937611  0  0  0.36025  0  2.397317  0  0  0.358293  0  2.359611  0  0.579493  0  0.386482  0.363381  0  2.421643  0
H  H12  1  0.79557668  0.55130459  0.10692045  1  0  0.078927  0  0.968987  0  0  0.084888  0  1.038583  0  0  0.088182  0  1.035132  0  0.126813  0  0.100421  0.082218  0  1.041514  0
H  H13  1  0.70444143  0.44870187  0.60691417  1  0  0.078953  0  0.969041  0  0  0.084944  0  1.038613  0  0  0.088237  0  1.035168  0  0.126865  0  0.100483  0.082276  0  1.041542  0
H  H14  1  0.20445765  0.44869594  0.89308298  1  0  0.07895  0  0.969065  0  0  0.084936  0  1.038633  0  0  0.088227  0  1.035191  0  0.126808  0  0.100455  0.082268  0  1.041561  0
H  H15  1  0.29553492  0.55129697  0.39308697  1  0  0.079  0  0.969014  0  0  0.085001  0  1.038564  0  0  0.088288  0  1.035132  0  0.126951  0  0.1005  0.082333  0  1.041492  0
H  H16  1  0.61852629  0.41937532  0.00602428  1  0  0.101909  0  0.974697  0  0  0.110812  0  1.037189  0  0  0.113179  0  1.03821  0  0.105312  0  0.095763  0.109106  0  1.03667  0
H  H17  1  0.88148728  0.58062690  0.50601629  1  0  0.1019  0  0.974825  0  0  0.110786  0  1.037305  0  0  0.11315  0  1.038331  0  0.105235  0  0.095739  0.10908  0  1.036785  0
H  H18  1  0.38148848  0.58062521  0.99397800  1  0  0.101871  0  0.974785  0  0  0.11078  0  1.037263  0  0  0.113144  0  1.038288  0  0.105334  0  0.095739  0.109073  0  1.036744  0
H  H19  1  0.11850095  0.41936685  0.49398314  1  0  0.101804  0  0.974723  0  0  0.110737  0  1.037166  0  0  0.113103  0  1.038188  0  0.105034  0  0.095701  0.109031  0  1.036646  0
H  H20  1  0.66157042  0.47877912  0.86875639  1  0  0.098815  0  0.976033  0  0  0.10414  0  1.045599  0  0  0.107902  0  1.041907  0  0.124311  0  0.08883  0.101048  0  1.048756  0
H  H21  1  0.83843477  0.52122310  0.36874954  1  0  0.098634  0  0.976203  0  0  0.104046  0  1.045683  0  0  0.107815  0  1.041993  0  0.124487  0  0.088805  0.100952  0  1.048854  0
H  H22  1  0.33841742  0.52123410  0.13124647  1  0  0.098698  0  0.976155  0  0  0.104054  0  1.045696  0  0  0.107814  0  1.042002  0  0.12405  0  0.088823  0.100968  0  1.048845  0
H  H23  1  0.16157584  0.47876388  0.63125275  1  0  0.098641  0  0.97613  0  0  0.104033  0  1.045651  0  0  0.107799  0  1.041962  0  0.124459  0  0.088803  0.10094  0  1.048819  0
H  H24  1  0.88899252  0.66565367  0.83831647  1  0  0.116651  0  0.947363  0  0  0.127114  0  1.008233  0  0  0.130029  0  1.007773  0  0.094906  0  0.107591  0.124978  0  1.008841  0
H  H25  1  0.61101337  0.33435025  0.33831532  1  0  0.116756  0  0.94744  0  0  0.127202  0  1.008326  0  0  0.130118  0  1.007865  0  0.094842  0  0.107633  0.125066  0  1.008933  0
H  H26  1  0.11100825  0.33436040  0.16168468  1  0  0.116761  0  0.947444  0  0  0.127184  0  1.008343  0  0  0.1301  0  1.00788  0  0.095167  0  0.107567  0.125048  0  1.008951  0
H  H27  1  0.38899444  0.66564012  0.66168867  1  0  0.116602  0  0.947498  0  0  0.127105  0  1.008304  0  0  0.130023  0  1.007842  0  0.095108  0  0.107557  0.124971  0  1.008911  0
H  H28  1  0.21232614  0.62805075  0.88108407  1  0  0.108663  0  0.996214  0  0  0.117361  0  1.061129  0  0  0.120312  0  1.061095  0  0.08334  0  0.102415  0.115208  0  1.061476  0
H  H29  1  0.28769261  0.37195147  0.38108978  1  0  0.108737  0  0.996141  0  0  0.117397  0  1.061099  0  0  0.120347  0  1.061064  0  0.083206  0  0.102437  0.115243  0  1.061446  0
H  H30  1  0.78768933  0.37194808  0.11890679  1  0  0.108694  0  0.996076  0  0  0.117387  0  1.060998  0  0  0.120338  0  1.060962  0  0.083255  0  0.102447  0.115233  0  1.061346  0
H  H31  1  0.71231482  0.62804821  0.61891764  1  0  0.108717  0  0.99623  0  0  0.117368  0  1.06118  0  0  0.120318  0  1.061145  0  0.083235  0  0.102426  0.115215  0  1.061527  0
H  H32  1  0.49634813  0.64054189  0.79876135  1  0  0.097685  0  0.950214  0  0  0.106627  0  1.013678  0  0  0.109806  0  1.010818  0  0.104344  0  0.097816  0.104149  0  1.015901  0
H  H33  1  0.00367479  0.35947048  0.29876592  1  0  0.097687  0  0.950149  0  0  0.106632  0  1.013614  0  0  0.109811  0  1.010755  0  0.104226  0  0.097786  0.104155  0  1.015836  0
H  H34  1  0.50366417  0.35946625  0.20122552  1  0  0.0977  0  0.950098  0  0  0.106632  0  1.013575  0  0  0.109809  0  1.010719  0  0.1046  0  0.097784  0.104152  0  1.015795  0
H  H35  1  0.99634904  0.64054189  0.70123123  1  0  0.097658  0  0.950099  0  0  0.106559  0  1.013619  0  0  0.109738  0  1.010761  0  0.104529  0  0.097761  0.104081  0  1.015839  0
H  H36  1  0.70901068  0.83552777  0.76759537  1  0  0.103841  0  0.982092  0  0  0.111854  0  1.047226  0  0  0.11382  0  1.049434  0  0.088993  0  0.098246  0.110375  0  1.046001  0
H  H37  1  0.79100182  0.16448545  0.26759822  1  0  0.103671  0  0.982152  0  0  0.111725  0  1.047264  0  0  0.113658  0  1.04951  0  0.088945  0  0.098231  0.110266  0  1.046019  0
H  H38  1  0.29099394  0.16448207  0.23239322  1  0  0.103677  0  0.9823  0  0  0.111723  0  1.047406  0  0  0.113663  0  1.049655  0  0.088969  0  0.098207  0.110286  0  1.04614  0
H  H39  1  0.20900244  0.83553031  0.73239950  1  0  0.103775  0  0.982176  0  0  0.111796  0  1.047295  0  0  0.113736  0  1.049537  0  0.08909  0  0.098232  0.110337  0  1.046051  0
H  H40  1  0.60864708  0.00440436  0.81657334  1  0  0.076455  0  0.981646  0  0  0.082867  0  1.051826  0  0  0.085951  0  1.048443  0  0.130948  0  0.094318  0.0802  0  1.054822  0
H  H41  1  0.89136018  0.99560633  0.31657220  1  0  0.076451  0  0.981653  0  0  0.082827  0  1.051895  0  0  0.085912  0  1.048515  0  0.131139  0  0.094338  0.08018  0  1.054872  0
H  H42  1  0.39136488  0.99560294  0.18343008  1  0  0.076462  0  0.981586  0  0  0.082842  0  1.051847  0  0  0.085929  0  1.048462  0  0.131058  0  0.094318  0.080193  0  1.054822  0
H  H43  1  0.10861579  0.00440182  0.68343008  1  0  0.076567  0  0.981555  0  0  0.08292  0  1.05182  0  0  0.086005  0  1.048439  0  0.131  0  0.094373  0.080274  0  1.054798  0
H  H44  1  0.75365274  0.84662583  0.93810983  1  0  0.10766  0  0.96024  0  0  0.118417  0  1.019826  0  0  0.12074  0  1.020026  0  0.088539  0  0.100631  0.116732  0  1.020041  0
H  H45  1  0.74634095  0.15336200  0.43810184  1  0  0.107618  0  0.960272  0  0  0.118383  0  1.01985  0  0  0.120703  0  1.020048  0  0.088704  0  0.100605  0.116696  0  1.020064  0
H  H46  1  0.24634702  0.15336877  0.06189759  1  0  0.107695  0  0.960204  0  0  0.118468  0  1.019788  0  0  0.120804  0  1.019968  0  0.088864  0  0.100624  0.116782  0  1.020002  0
H  H47  1  0.25364204  0.84663260  0.56189759  1  0  0.10764  0  0.960325  0  0  0.118463  0  1.019841  0  0  0.120789  0  1.02003  0  0.088537  0  0.100585  0.116777  0  1.020055  0
H  H48  1  0.33393659  0.97796097  0.01935944  1  0  0.120353  0  0.956493  0  0  0.124343  0  1.026624  0  0  0.128163  0  1.022664  0  0.087247  0  0.098757  0.121537  0  1.029704  0
H  H49  1  0.16606469  0.02204294  0.51936001  1  0  0.120372  0  0.956477  0  0  0.124356  0  1.02663  0  0  0.128176  0  1.022671  0  0.087191  0  0.098749  0.121552  0  1.029708  0
H  H50  1  0.66606212  0.02203448  0.98064341  1  0  0.120408  0  0.956457  0  0  0.124375  0  1.026615  0  0  0.128198  0  1.022655  0  0.087289  0  0.098756  0.12157  0  1.029692  0
H  H51  1  0.83392633  0.97795420  0.48063885  1  0  0.120317  0  0.956457  0  0  0.124335  0  1.026551  0  0  0.12816  0  1.022595  0  0.087344  0  0.098722  0.121529  0  1.02963  0
C  C52  1  0.81417283  0.57128584  0.04627521  1  0  0.133365  0  3.670523  0  0  0.103469  0  3.919734  0  0  0.11079  0  3.935028  0  0.416275  0  0.036186  0.098562  0  3.910141  0
C  C53  1  0.68584597  0.42871892  0.54627121  1  0  0.133295  0  3.670466  0  0  0.103333  0  3.919721  0  0  0.110655  0  3.93499  0  0.416252  0  0.036116  0.098429  0  3.91013  0
C  C54  1  0.18585311  0.42871469  0.95372822  1  0  0.133294  0  3.670649  0  0  0.103373  0  3.919898  0  0  0.110685  0  3.935171  0  0.416117  0  0.03617  0.098469  0  3.910308  0
C  C55  1  0.31413877  0.57127653  0.45372936  1  0  0.13321  0  3.670418  0  0  0.103276  0  3.919668  0  0  0.110562  0  3.934921  0  0.415988  0  0.03611  0.098374  0  3.910078  0
C  C56  1  0.71537862  0.49958386  0.99035339  1  0  -0.121449  0  3.743418  0  0  -0.132936  0  3.990027  0  0  -0.1399  0  4.010818  0  -0.026276  0  -0.091259  -0.128745  0  3.976703  0
C  C57  1  0.78464368  0.50041920  0.49034654  1  0  -0.121493  0  3.743157  0  0  -0.132911  0  3.989746  0  0  -0.139873  0  4.010537  0  -0.026194  0  -0.091229  -0.12872  0  3.976423  0
C  C58  1  0.28464488  0.50041751  0.00964833  1  0  -0.121435  0  3.743371  0  0  -0.132912  0  3.989997  0  0  -0.139875  0  4.010786  0  -0.026299  0  -0.091263  -0.128722  0  3.976676  0
C  C59  1  0.21534420  0.49957709  0.50965289  1  0  -0.121295  0  3.743019  0  0  -0.132726  0  3.98959  0  0  -0.139689  0  4.010387  0  -0.026048  0  -0.091164  -0.128537  0  3.976266  0
C  C60  1  0.74018164  0.53216544  0.91396248  1  0  0.012622  0  3.711707  0  0  -0.007027  0  3.961844  0  0  -0.000511  0  3.975934  0  -0.013484  0  -0.073667  -0.011648  0  3.953169  0
C  C61  1  0.75983192  0.46784017  0.41395791  1  0  0.012836  0  3.711354  0  0  -0.006877  0  3.961431  0  0  -0.000375  0  3.975538  0  -0.013567  0  -0.073658  -0.011502  0  3.952748  0
C  C62  1  0.25982646  0.46784609  0.08604095  1  0  0.012728  0  3.711333  0  0  -0.006954  0  3.961502  0  0  -0.000433  0  3.975586  0  -0.012966  0  -0.073673  -0.011579  0  3.952822  0
C  C63  1  0.24017623  0.53215444  0.58604323  1  0  0.012616  0  3.711543  0  0  -0.007132  0  3.961728  0  0  -0.00063  0  3.975834  0  -0.013066  0  -0.073781  -0.011755  0  3.953041  0
C  C64  1  0.86618557  0.63526581  0.89686000  1  0  -0.18903  0  3.719938  0  0  -0.206056  0  3.968876  0  0  -0.214329  0  3.988481  0  -0.004048  0  -0.086184  -0.200886  0  3.956241  0
C  C65  1  0.63381891  0.36473811  0.39685429  1  0  -0.189269  0  3.719714  0  0  -0.206279  0  3.96876  0  0  -0.214553  0  3.98837  0  -0.004015  0  -0.086279  -0.201108  0  3.956123  0
C  C66  1  0.13381451  0.36473980  0.10314514  1  0  -0.189247  0  3.7197  0  0  -0.206225  0  3.968718  0  0  -0.214495  0  3.988321  0  -0.004365  0  -0.08621  -0.201054  0  3.956083  0
C  C67  1  0.36617423  0.63525057  0.60314742  1  0  -0.188985  0  3.71981  0  0  -0.205959  0  3.968804  0  0  -0.214233  0  3.988422  0  -0.005255  0  -0.086073  -0.200788  0  3.956166  0
C  C68  1  0.96709644  0.70046619  0.95596520  1  0  0.336782  0  3.754504  0  0  0.3165  0  4.004014  0  0  0.329795  0  4.021864  0  0.832908  0  0.212275  0.307474  0  3.992147  0
C  C69  1  0.53291923  0.29953433  0.45596406  1  0  0.336911  0  3.754063  0  0  0.316536  0  4.003734  0  0  0.329825  0  4.021579  0  0.833362  0  0.212333  0.307514  0  3.991864  0
C  C70  1  0.03292042  0.29953602  0.04403537  1  0  0.336959  0  3.753934  0  0  0.316594  0  4.003589  0  0  0.329871  0  4.021437  0  0.832936  0  0.212348  0.307572  0  3.991721  0
C  C71  1  0.46707215  0.70045688  0.54403651  1  0  0.336944  0  3.753754  0  0  0.316491  0  4.003584  0  0  0.329746  0  4.02142  0  0.833924  0  0.212283  0.307468  0  3.99172  0
C  C72  1  0.25636259  0.80989042  0.89224218  1  0  0.376212  0  3.748905  0  0  0.347414  0  4.006645  0  0  0.365695  0  4.020693  0  0.854071  0  0.223167  0.335139  0  3.997217  0
C  C73  1  0.24364010  0.19011011  0.39224446  1  0  0.376094  0  3.749082  0  0  0.3473  0  4.006807  0  0  0.365576  0  4.020855  0  0.854215  0  0.223073  0.335033  0  3.997377  0
C  C74  1  0.74364345  0.19010926  0.10775725  1  0  0.376283  0  3.749002  0  0  0.347387  0  4.006832  0  0  0.365662  0  4.020886  0  0.85421  0  0.22309  0.335115  0  3.997403  0
C  C75  1  0.75634673  0.80988703  0.60775782  1  0  0.375869  0  3.749244  0  0  0.34713  0  4.006956  0  0  0.365405  0  4.021018  0  0.854236  0  0.22301  0.334857  0  3.997522  0
C  C76  1  0.30258095  0.71021435  0.86587382  1  0  -0.218148  0  3.720232  0  0  -0.23573  0  3.973661  0  0  -0.246047  0  3.992904  0  -0.00035  0  -0.10157  -0.229422  0  3.961335  0
C  C77  1  0.19742801  0.28979126  0.36587895  1  0  -0.218211  0  3.720284  0  0  -0.23578  0  3.973714  0  0  -0.246095  0  3.99296  0  -0.000499  0  -0.101538  -0.229472  0  3.961384  0
C  C78  1  0.69742019  0.28978703  0.13411990  1  0  -0.218318  0  3.720213  0  0  -0.235874  0  3.973653  0  0  -0.246186  0  3.99289  0  -0.000656  0  -0.101621  -0.229566  0  3.961325  0
C  C79  1  0.80257348  0.71021096  0.63412333  1  0  -0.218243  0  3.720266  0  0  -0.235795  0  3.97366  0  0  -0.24611  0  3.992903  0  -0.000352  0  -0.101577  -0.22949  0  3.961331  0
C  C80  1  0.46234491  0.71803284  0.81958263  1  0  -0.000458  0  3.755653  0  0  -0.017532  0  4.007298  0  0  -0.009807  0  4.021595  0  -0.079014  0  -0.078364  -0.022547  0  3.997905  0
C  C81  1  0.03766720  0.28197361  0.31958605  1  0  -0.000624  0  3.755809  0  0  -0.01768  0  4.007461  0  0  -0.009957  0  4.021749  0  -0.078666  0  -0.078453  -0.022694  0  3.998072  0
C  C82  1  0.53765448  0.28197107  0.18040881  1  0  -0.00049  0  3.755647  0  0  -0.01753  0  4.007282  0  0  -0.009804  0  4.021571  0  -0.078761  0  -0.078384  -0.022541  0  3.997896  0
C  C83  1  0.96234336  0.71803369  0.68041395  1  0  -0.000359  0  3.755509  0  0  -0.017378  0  4.007111  0  0  -0.009654  0  4.021402  0  -0.079034  0  -0.078317  -0.022391  0  3.99772  0
C  C84  1  0.57809942  0.82483933  0.80118956  1  0  -0.1593  0  3.756563  0  0  -0.174644  0  4.01194  0  0  -0.183405  0  4.032423  0  -0.023346  0  -0.108288  -0.169193  0  3.998744  0
C  C85  1  0.92191692  0.17517304  0.30119127  1  0  -0.158963  0  3.75637  0  0  -0.174346  0  4.011754  0  0  -0.183079  0  4.032258  0  -0.024007  0  -0.108191  -0.168915  0  3.998549  0
C  C86  1  0.42190346  0.17516627  0.19880245  1  0  -0.159059  0  3.756645  0  0  -0.174434  0  4.012026  0  0  -0.183177  0  4.032535  0  -0.023967  0  -0.108207  -0.169023  0  3.998807  0
C  C87  1  0.07808665  0.82483764  0.69880645  1  0  -0.159261  0  3.756781  0  0  -0.174591  0  4.012136  0  0  -0.183333  0  4.032642  0  -0.024382  0  -0.10829  -0.16916  0  3.998932  0
C  C88  1  0.52315505  0.91923340  0.82841641  1  0  0.146507  0  3.706479  0  0  0.11894  0  3.954547  0  0  0.128835  0  3.968391  0  0.438817  0  0.034102  0.112133  0  3.946099  0
C  C89  1  0.97685152  0.08077221  0.32841756  1  0  0.146455  0  3.706149  0  0  0.11887  0  3.95429  0  0  0.128758  0  3.968125  0  0.439432  0  0.034099  0.112055  0  3.945849  0
C  C90  1  0.47685203  0.08076882  0.17158187  1  0  0.146515  0  3.706111  0  0  0.118892  0  3.954256  0  0  0.128784  0  3.968088  0  0.439327  0  0.034104  0.112079  0  3.945812  0
C  C91  1  0.02313284  0.91923255  0.67158473  1  0  0.146404  0  3.706076  0  0  0.118826  0  3.954262  0  0  0.128719  0  3.9681  0  0.439953  0  0.034104  0.112004  0  3.945815  0
C  C92  1  0.05188190  0.90385369  0.97077533  1  0  0.185248  0  3.771105  0  0  0.174138  0  4.032592  0  0  0.184642  0  4.042678  0  0.28531  0  0.067977  0.166456  0  4.026513  0
C  C93  1  0.44811555  0.09614429  0.47077590  1  0  0.185316  0  3.770896  0  0  0.174222  0  4.03236  0  0  0.184719  0  4.042484  0  0.285264  0  0.068025  0.166537  0  4.026284  0
C  C94  1  0.94812728  0.09614345  0.02922410  1  0  0.185417  0  3.770996  0  0  0.174349  0  4.032418  0  0  0.184856  0  4.042506  0  0.285468  0  0.068079  0.166662  0  4.026349  0
C  C95  1  0.55186395  0.90384862  0.52922011  1  0  0.185389  0  3.770952  0  0  0.17429  0  4.032456  0  0  0.184815  0  4.042529  0  0.285924  0  0.068046  0.166604  0  4.026384  0
C  C96  1  0.86086340  0.91243728  0.96658276  1  0  -0.118286  0  3.706456  0  0  -0.143437  0  3.966087  0  0  -0.142306  0  3.976464  0  0.046132  0  -0.104275  -0.144742  0  3.960126  0
C  C97  1  0.63912819  0.08755224  0.46657705  1  0  -0.118212  0  3.70635  0  0  -0.143335  0  3.965939  0  0  -0.142196  0  3.976319  0  0.04576  0  -0.104198  -0.144645  0  3.959991  0
C  C98  1  0.13914264  0.08755901  0.03341952  1  0  -0.118479  0  3.706755  0  0  -0.143624  0  3.9663  0  0  -0.142503  0  3.976669  0  0.045673  0  -0.104313  -0.144931  0  3.960347  0
C  C99  1  0.36084853  0.91243728  0.53341724  1  0  -0.118459  0  3.706753  0  0  -0.143636  0  3.966345  0  0  -0.142516  0  3.976722  0  0.045978  0  -0.104266  -0.144946  0  3.960396  0
C  C100  1  0.19372429  0.99213464  0.00456359  1  0  -0.181205  0  3.827285  0  0  -0.195678  0  4.100167  0  0  -0.191232  0  4.104237  0  -0.119232  0  -0.14606  -0.199237  0  4.09839  0
C  C101  1  0.30626967  0.00786504  0.50456302  1  0  -0.181202  0  3.827123  0  0  -0.195745  0  4.100147  0  0  -0.19129  0  4.104183  0  -0.119287  0  -0.146093  -0.199309  0  4.098377  0
C  C102  1  0.80627757  0.00786166  0.99543812  1  0  -0.181271  0  3.827363  0  0  -0.195791  0  4.100309  0  0  -0.191316  0  4.104296  0  -0.11924  0  -0.146049  -0.199349  0  4.098531  0
C  C103  1  0.69370809  0.99212702  0.49543127  1  0  -0.181316  0  3.827214  0  0  -0.19586  0  4.10026  0  0  -0.191359  0  4.104152  0  -0.119062  0  -0.146089  -0.199418  0  4.098488  0
Br  Br104  1  0.03091355  0.59034459  0.23048673  1  0  -0.47053  0  1.515588  0  0  -0.395306  0  1.915774  0  0  -0.416902  0  1.876397  0  -0.549218  0  -0.242213  -0.379222  0  1.943501  0
Br  Br105  1  0.46906642  0.40966187  0.73048216  1  0  -0.47055  0  1.51564  0  0  -0.395336  0  1.915856  0  0  -0.416911  0  1.876441  0  -0.549322  0  -0.24224  -0.379258  0  1.943579  0
Br  Br106  1  0.96907535  0.40966440  0.76951613  1  0  -0.470546  0  1.515647  0  0  -0.395323  0  1.915849  0  0  -0.416891  0  1.876424  0  -0.5492  0  -0.242244  -0.379247  0  1.943575  0
Br  Br107  1  0.53091273  0.59033358  0.26951613  1  0  -0.470546  0  1.515542  0  0  -0.395346  0  1.915738  0  0  -0.416893  0  1.876291  0  -0.549204  0  -0.242247  -0.379263  0  1.943459  0
Br  Br108  1  0.96168353  0.88644447  0.18695823  1  0  -0.435992  0  1.734207  0  0  -0.367991  0  2.21973  0  0  -0.384096  0  2.169423  0  -0.497737  0  -0.209427  -0.356393  0  2.253875  0
Br  Br109  1  0.53830910  0.11355098  0.68695652  1  0  -0.43601  0  1.734305  0  0  -0.368005  0  2.219836  0  0  -0.384113  0  2.169528  0  -0.497799  0  -0.20942  -0.35641  0  2.253972  0
Br  Br110  1  0.03831866  0.11355606  0.81304234  1  0  -0.436013  0  1.73432  0  0  -0.368022  0  2.219875  0  0  -0.384124  0  2.169561  0  -0.497722  0  -0.209432  -0.356435  0  2.25403  0
Br  Br111  1  0.46166413  0.88643685  0.31304291  1  0  -0.436009  0  1.734292  0  0  -0.368034  0  2.219846  0  0  -0.384147  0  2.169549  0  -0.497809  0  -0.209437  -0.356447  0  2.254004  0
Br  Br112  1  0.44813520  0.77897698  0.09016445  1  0  -0.434441  0  1.581897  0  0  -0.367941  0  2.024334  0  0  -0.383808  0  1.982452  0  -0.510702  0  -0.221647  -0.356331  0  2.052105  0
Br  Br113  1  0.05190597  0.22100154  0.59015075  1  0  -0.434551  0  1.581723  0  0  -0.368067  0  2.02415  0  0  -0.383936  0  1.982273  0  -0.510668  0  -0.221655  -0.356464  0  2.051922  0
Br  Br114  1  0.55190650  0.22101085  0.90984868  1  0  -0.434538  0  1.581752  0  0  -0.368015  0  2.024121  0  0  -0.383878  0  1.982241  0  -0.510559  0  -0.221658  -0.35641  0  2.051889  0
Br  Br115  1  0.94808821  0.77898968  0.40984925  1  0  -0.434525  0  1.581777  0  0  -0.368045  0  2.024208  0  0  -0.38391  0  1.982337  0  -0.510764  0  -0.221663  -0.356441  0  2.05198  0
N  N116  1  0.94289551  0.66968479  0.03021046  1  0  -0.33499  0  3.317186  0  0  -0.265944  0  3.609681  0  0  -0.279109  0  3.616372  0  -1.21568  0  -0.357318  -0.258214  0  3.605483  0
N  N117  1  0.55712645  0.33031743  0.53020760  1  0  -0.334956  0  3.317065  0  0  -0.2659  0  3.609655  0  0  -0.27904  0  3.61632  0  -1.21632  0  -0.357364  -0.258178  0  3.605466  0
N  N118  1  0.05713184  0.33031574  0.96979011  1  0  -0.334968  0  3.317042  0  0  -0.265939  0  3.60963  0  0  -0.279055  0  3.616273  0  -1.215742  0  -0.35735  -0.258219  0  3.605445  0
N  N119  1  0.44285375  0.66967717  0.46979126  1  0  -0.334976  0  3.316864  0  0  -0.265995  0  3.609602  0  0  -0.279032  0  3.616161  0  -1.216224  0  -0.357374  -0.258274  0  3.605415  0
N  N120  1  0.09971868  0.80544798  0.94041418  1  0  -0.290907  0  3.447475  0  0  -0.215909  0  3.676546  0  0  -0.236331  0  3.692506  0  -1.218749  0  -0.251906  -0.201761  0  3.665324  0
N  N121  1  0.40029204  0.19455509  0.44041246  1  0  -0.290853  0  3.447328  0  0  -0.215787  0  3.676316  0  0  -0.236219  0  3.69229  0  -1.218759  0  -0.25184  -0.201642  0  3.665098  0
N  N122  1  0.90029539  0.19455424  0.05958697  1  0  -0.290902  0  3.447118  0  0  -0.215819  0  3.676094  0  0  -0.236252  0  3.692079  0  -1.218869  0  -0.251858  -0.201676  0  3.66488  0
N  N123  1  0.59969654  0.80543951  0.55958582  1  0  -0.290596  0  3.447007  0  0  -0.215537  0  3.676065  0  0  -0.235981  0  3.692061  0  -1.219036  0  -0.251755  -0.201396  0  3.664849  0
N  N124  1  0.36355639  0.91312112  0.87120514  1  0  -0.388936  0  3.311762  0  0  -0.318701  0  3.600251  0  0  -0.333724  0  3.60639  0  -1.213996  0  -0.369647  -0.309183  0  3.59618  0
N  N125  1  0.13645257  0.08688448  0.37120628  1  0  -0.388882  0  3.311736  0  0  -0.318581  0  3.600151  0  0  -0.333588  0  3.606276  0  -1.213966  0  -0.369627  -0.309083  0  3.596102  0
N  N126  1  0.63645907  0.08688110  0.12879600  1  0  -0.389006  0  3.311647  0  0  -0.318652  0  3.600102  0  0  -0.333662  0  3.606226  0  -1.213989  0  -0.369618  -0.309134  0  3.596022  0
N  N127  1  0.86353075  0.91311774  0.62879486  1  0  -0.38883  0  3.311502  0  0  -0.318614  0  3.599993  0  0  -0.333632  0  3.60613  0  -1.214393  0  -0.369656  -0.309087  0  3.595912  0
