# generated using pymatgen
data_ZnH15C20NO4
_symmetry_space_group_name_H-M   'P 1'
_cell_length_a   9.30396742
_cell_length_b   10.11516520
_cell_length_c   11.13344660
_cell_angle_alpha   83.08178843
_cell_angle_beta   75.66966995
_cell_angle_gamma   66.15171147
_symmetry_Int_Tables_number   1
_chemical_formula_structural   ZnH15C20NO4
_chemical_formula_sum   'Zn2 H30 C40 N2 O8'
_cell_volume   928.25738167
_cell_formula_units_Z   2
loop_
 _symmetry_equiv_pos_site_id
 _symmetry_equiv_pos_as_xyz
  1  'x, y, z'
loop_
 _atom_site_type_symbol
 _atom_site_label
 _atom_site_symmetry_multiplicity
 _atom_site_fract_x
 _atom_site_fract_y
 _atom_site_fract_z
 _atom_site_occupancy
 _atom_site_hle17_bader_spin_density
 _atom_site_hle17_ddec_charge
 _atom_site_hle17_ddec_spin_density
 _atom_site_hle17_ddec_sum_bond_order
 _atom_site_hle17_magmom
 _atom_site_hse06_10hf_bader_spin_density
 _atom_site_hse06_10hf_ddec_charge
 _atom_site_hse06_10hf_ddec_spin_density
 _atom_site_hse06_10hf_ddec_sum_bond_order
 _atom_site_hse06_10hf_magmom
 _atom_site_hse06_bader_spin_density
 _atom_site_hse06_ddec_charge
 _atom_site_hse06_ddec_spin_density
 _atom_site_hse06_ddec_sum_bond_order
 _atom_site_hse06_magmom
 _atom_site_pbe_bader_spin_density
 _atom_site_pbe_cm5_charge
 _atom_site_pbe_ddec_charge
 _atom_site_pbe_ddec_spin_density
 _atom_site_pbe_ddec_sum_bond_order
 _atom_site_pbe_magmom
Zn  Zn0  1  0.55272432  0.61716023  0.50229228  1  0  1.041596  0  1.870685  0  0  0.868724  0  2.343086  0  0  0.921448  0  2.277258  0  0  0.671341  0.832732  0  2.386958  0
Zn  Zn1  1  0.44726992  0.38284049  0.49770726  1  0  1.041654  0  1.870531  0  0  0.868804  0  2.342969  0  0  0.921532  0  2.277126  0  0  0.671411  0.832817  0  2.386844  0
H  H2  1  0.87925283  0.07397247  0.25726525  1  0  0.091152  0  0.952437  0  0  0.101543  0  1.012821  0  0  0.10476  0  1.01094  0  0  0.10117  0.09928  0  1.014067  0
H  H3  1  0.12075476  0.92603399  0.74274437  1  0  0.091077  0  0.952432  0  0  0.101506  0  1.012761  0  0  0.104706  0  1.010903  0  0  0.10111  0.09924  0  1.014006  0
H  H4  1  0.12991978  0.95580085  0.09752769  1  0  0.089769  0  0.971545  0  0  0.09961  0  1.031335  0  0  0.101572  0  1.032643  0  0  0.096755  0.09792  0  1.031062  0
H  H5  1  0.87007135  0.04420736  0.90247367  1  0  0.089739  0  0.971608  0  0  0.099578  0  1.031408  0  0  0.101535  0  1.032725  0  0  0.096708  0.097887  0  1.031134  0
H  H6  1  0.31442520  0.08264314  0.01368620  1  0  0.076138  0  0.967877  0  0  0.087612  0  1.030536  0  0  0.089861  0  1.029484  0  0  0.095395  0.085976  0  1.031238  0
H  H7  1  0.68555358  0.91736958  0.98628869  1  0  0.076081  0  0.96784  0  0  0.087537  0  1.030509  0  0  0.089795  0  1.029463  0  0  0.095326  0.085897  0  1.031214  0
H  H8  1  0.24882676  0.32738486  0.08789094  1  0  0.084133  0  0.983325  0  0  0.093866  0  1.047667  0  0  0.095882  0  1.048159  0  0  0.096292  0.092696  0  1.046915  0
H  H9  1  0.75115151  0.67262846  0.91206874  1  0  0.084139  0  0.983196  0  0  0.093908  0  1.047517  0  0  0.09593  0  1.047995  0  0  0.096343  0.092739  0  1.046766  0
H  H10  1  0.99720312  0.44429370  0.24677633  1  0  0.093627  0  0.956175  0  0  0.103099  0  1.018827  0  0  0.106593  0  1.015898  0  0  0.101  0.100752  0  1.020834  0
H  H11  1  0.00278350  0.55572900  0.75318521  1  0  0.093642  0  0.956128  0  0  0.103099  0  1.018814  0  0  0.106598  0  1.015883  0  0  0.100978  0.100755  0  1.020818  0
H  H12  1  0.51518890  0.79841273  0.12902034  1  0  0.091827  0  0.949498  0  0  0.10246  0  1.01052  0  0  0.106136  0  1.00771  0  0  0.100193  0.099689  0  1.012816  0
H  H13  1  0.48479534  0.20159155  0.87100353  1  0  0.091851  0  0.949483  0  0  0.102492  0  1.010508  0  0  0.106171  0  1.007694  0  0  0.100197  0.099725  0  1.012801  0
H  H14  1  0.48734435  0.84859833  0.90755059  1  0  0.077628  0  0.963536  0  0  0.089517  0  1.023122  0  0  0.092034  0  1.022604  0  0  0.096225  0.087867  0  1.023186  0
H  H15  1  0.51262553  0.15142971  0.09247613  1  0  0.077544  0  0.963377  0  0  0.089437  0  1.02298  0  0  0.091956  0  1.022459  0  0  0.096158  0.087784  0  1.023046  0
H  H16  1  0.34055143  0.73771989  0.82351065  1  0  0.092248  0  0.98186  0  0  0.09967  0  1.048497  0  0  0.102655  0  1.046841  0  0  0.097916  0.097397  0  1.049673  0
H  H17  1  0.65944732  0.26229965  0.17649796  1  0  0.092139  0  0.981884  0  0  0.099599  0  1.048493  0  0  0.102581  0  1.04684  0  0  0.097889  0.097316  0  1.049676  0
H  H18  1  0.21039474  0.58516471  0.96011603  1  0  0.088387  0  0.950583  0  0  0.099387  0  1.008006  0  0  0.101701  0  1.008589  0  0  0.098725  0.097671  0  1.007941  0
H  H19  1  0.78966777  0.41480815  0.03987289  1  0  0.088354  0  0.950407  0  0  0.09933  0  1.007881  0  0  0.101644  0  1.008464  0  0  0.098758  0.097613  0  1.007814  0
H  H20  1  0.24591806  0.53072606  0.17933813  1  0  0.09455  0  0.956562  0  0  0.105319  0  1.017912  0  0  0.1087  0  1.01541  0  0  0.100649  0.10293  0  1.019614  0
H  H21  1  0.75414669  0.46922009  0.82064813  1  0  0.09472  0  0.956387  0  0  0.105423  0  1.01779  0  0  0.108865  0  1.015205  0  0  0.100653  0.103036  0  1.019487  0
H  H22  1  0.87526582  0.61152305  0.39791958  1  0  0.089857  0  0.957722  0  0  0.097676  0  1.020988  0  0  0.100806  0  1.017685  0  0  0.11919  0.095265  0  1.023354  0
H  H23  1  0.12473987  0.38846170  0.60209863  1  0  0.089975  0  0.957624  0  0  0.09775  0  1.020959  0  0  0.100888  0  1.017641  0  0  0.119217  0.095329  0  1.023321  0
H  H24  1  0.03780953  0.75378587  0.40170185  1  0  0.11438  0  0.94349  0  0  0.126643  0  0.998162  0  0  0.129457  0  0.998088  0  0  0.112105  0.124673  0  0.998989  0
H  H25  1  0.96219101  0.24620804  0.59830410  1  0  0.114461  0  0.943379  0  0  0.126741  0  0.998026  0  0  0.129556  0  0.99795  0  0  0.112126  0.124769  0  0.998857  0
H  H26  1  0.62034823  0.05056270  0.64539571  1  0  0.12361  0  0.953519  0  0  0.131708  0  1.01601  0  0  0.135531  0  1.014517  0  0  0.11061  0.129112  0  1.015705  0
H  H27  1  0.37965734  0.94942459  0.35461242  1  0  0.123633  0  0.953372  0  0  0.131724  0  1.015902  0  0  0.135553  0  1.0144  0  0  0.110612  0.129125  0  1.015595  0
H  H28  1  0.47738871  0.88919288  0.63454165  1  0  0.086097  0  0.925766  0  0  0.098836  0  0.98091  0  0  0.101192  0  0.979209  0  0  0.121843  0.096727  0  0.983014  0
H  H29  1  0.52260290  0.11080888  0.36546017  1  0  0.086077  0  0.92583  0  0  0.098753  0  0.981043  0  0  0.101106  0  0.979342  0  0  0.121818  0.096643  0  0.983149  0
H  H30  1  0.85088869  0.10531789  0.58715666  1  0  0.099824  0  0.947464  0  0  0.111076  0  1.008039  0  0  0.113494  0  1.0075  0  0  0.107392  0.109074  0  1.008811  0
H  H31  1  0.14911366  0.89467409  0.41284277  1  0  0.099815  0  0.947378  0  0  0.111076  0  1.00792  0  0  0.113501  0  1.00738  0  0  0.107379  0.109074  0  1.008692  0
C  C32  1  0.77041782  0.33953948  0.35437342  1  0  0.661549  0  3.878745  0  0  0.609597  0  4.168996  0  0  0.645092  0  4.161831  0  0  0.215104  0.585681  0  4.173269  0
C  C33  1  0.22958245  0.66045769  0.64563141  1  0  0.661328  0  3.878798  0  0  0.609451  0  4.168942  0  0  0.644938  0  4.161787  0  0  0.215119  0.585544  0  4.173215  0
C  C34  1  0.92332300  0.26605141  0.26168561  1  0  -0.079316  0  3.765805  0  0  -0.053294  0  3.99544  0  0  -0.062608  0  4.019946  0  0  -0.022134  -0.047543  0  3.978892  0
C  C35  1  0.07666408  0.73396888  0.73831019  1  0  -0.079175  0  3.765763  0  0  -0.053149  0  3.995324  0  0  -0.062451  0  4.019826  0  0  -0.022135  -0.04742  0  3.978801  0
C  C36  1  0.96121695  0.12836230  0.21940824  1  0  -0.066565  0  3.754867  0  0  -0.089635  0  4.000074  0  0  -0.089009  0  4.020639  0  0  -0.083764  -0.089758  0  3.985963  0
C  C37  1  0.03878204  0.87164868  0.78060016  1  0  -0.066534  0  3.75515  0  0  -0.089638  0  4.000358  0  0  -0.089001  0  4.020927  0  0  -0.083726  -0.08975  0  3.986251  0
C  C38  1  0.10122041  0.06264901  0.13037063  1  0  -0.079698  0  3.769664  0  0  -0.088883  0  4.014103  0  0  -0.092744  0  4.036925  0  0  -0.094001  -0.086582  0  3.999314  0
C  C39  1  0.89877872  0.93735540  0.86961404  1  0  -0.079765  0  3.770104  0  0  -0.088956  0  4.014546  0  0  -0.092811  0  4.03737  0  0  -0.093973  -0.086651  0  3.999747  0
C  C40  1  0.20469945  0.13441576  0.08318099  1  0  -0.0619  0  3.773442  0  0  -0.077151  0  4.020058  0  0  -0.077512  0  4.041911  0  0  -0.09055  -0.076804  0  4.004938  0
C  C41  1  0.79528386  0.86559149  0.91679430  1  0  -0.061891  0  3.773348  0  0  -0.077125  0  4.019944  0  0  -0.077503  0  4.041811  0  0  -0.09056  -0.076775  0  4.004821  0
C  C42  1  0.16789181  0.27174012  0.12475066  1  0  -0.090223  0  3.793526  0  0  -0.101812  0  4.042265  0  0  -0.105915  0  4.065593  0  0  -0.098342  -0.098904  0  4.026062  0
C  C43  1  0.83208811  0.72828028  0.87521882  1  0  -0.090036  0  3.79335  0  0  -0.101638  0  4.042041  0  0  -0.105739  0  4.065375  0  0  -0.098283  -0.098733  0  4.025839  0
C  C44  1  0.02793973  0.33707617  0.21378815  1  0  -0.067849  0  3.742413  0  0  -0.092313  0  3.988878  0  0  -0.091459  0  4.008983  0  0  -0.086824  -0.092848  0  3.975305  0
C  C45  1  0.97204873  0.66294807  0.78618814  1  0  -0.067923  0  3.742548  0  0  -0.092399  0  3.989017  0  0  -0.091557  0  4.009132  0  0  -0.08677  -0.092926  0  3.97545  0
C  C46  1  0.41187542  0.61989642  0.29434790  1  0  0.658705  0  3.890994  0  0  0.608398  0  4.181039  0  0  0.643765  0  4.173493  0  0  0.210729  0.584461  0  4.185457  0
C  C47  1  0.58810727  0.38007932  0.70566710  1  0  0.658502  0  3.890925  0  0  0.608127  0  4.181004  0  0  0.643496  0  4.173459  0  0  0.210673  0.58419  0  4.18542  0
C  C48  1  0.38183952  0.66202811  0.16641929  1  0  -0.081266  0  3.777056  0  0  -0.056863  0  4.009824  0  0  -0.06601  0  4.034242  0  0  -0.025051  -0.051016  0  3.993644  0
C  C49  1  0.61817317  0.33794498  0.83359212  1  0  -0.080763  0  3.776893  0  0  -0.056186  0  4.009407  0  0  -0.065337  0  4.033845  0  0  -0.024864  -0.05034  0  3.993231  0
C  C50  1  0.44856625  0.75292758  0.09057240  1  0  -0.072764  0  3.75457  0  0  -0.097907  0  4.004175  0  0  -0.097348  0  4.024671  0  0  -0.085899  -0.098303  0  3.990456  0
C  C51  1  0.55143461  0.24706594  0.90944340  1  0  -0.073148  0  3.754646  0  0  -0.098381  0  4.004253  0  0  -0.097823  0  4.024744  0  0  -0.086015  -0.098777  0  3.990538  0
C  C52  1  0.43250761  0.78040720  0.96776935  1  0  -0.092308  0  3.798632  0  0  -0.101732  0  4.049535  0  0  -0.105665  0  4.07126  0  0  -0.09636  -0.098988  0  4.033814  0
C  C53  1  0.56749650  0.21960000  0.03225085  1  0  -0.092106  0  3.798245  0  0  -0.101512  0  4.049129  0  0  -0.105445  0  4.070853  0  0  -0.096261  -0.098764  0  4.033401  0
C  C54  1  0.34853734  0.71910831  0.92040983  1  0  -0.049285  0  3.737851  0  0  -0.066799  0  3.98762  0  0  -0.066377  0  4.007803  0  0  -0.086424  -0.066148  0  3.973161  0
C  C55  1  0.65145727  0.28092103  0.07959703  1  0  -0.049219  0  3.737593  0  0  -0.066751  0  3.987333  0  0  -0.066329  0  4.007517  0  0  -0.086409  -0.066092  0  3.972863  0
C  C56  1  0.27738240  0.63183066  0.99689923  1  0  -0.072228  0  3.764516  0  0  -0.082061  0  4.013102  0  0  -0.086088  0  4.036193  0  0  -0.090879  -0.079832  0  3.997825  0
C  C57  1  0.72264761  0.36816656  0.00308745  1  0  -0.072064  0  3.764362  0  0  -0.081861  0  4.012925  0  0  -0.085893  0  4.036042  0  0  -0.090893  -0.07963  0  3.997638  0
C  C58  1  0.29528291  0.60243830  0.11900071  1  0  -0.072236  0  3.746237  0  0  -0.096231  0  3.991615  0  0  -0.095481  0  4.012126  0  0  -0.085814  -0.096324  0  3.977855  0
C  C59  1  0.70474900  0.39753076  0.88099340  1  0  -0.072719  0  3.746635  0  0  -0.096731  0  3.991996  0  0  -0.096027  0  4.012495  0  0  -0.085945  -0.096824  0  3.978238  0
C  C60  1  0.82474765  0.70976201  0.45120219  1  0  0.124444  0  3.703108  0  0  0.095068  0  3.946782  0  0  0.101689  0  3.965769  0  0  0.047754  0.091828  0  3.935729  0
C  C61  1  0.17525273  0.29023023  0.54881922  1  0  0.124275  0  3.702863  0  0  0.094953  0  3.946509  0  0  0.101569  0  3.965502  0  0  0.047667  0.091736  0  3.935439  0
C  C62  1  0.91340102  0.79062628  0.45392373  1  0  -0.15279  0  3.685947  0  0  -0.168247  0  3.926833  0  0  -0.176647  0  3.948974  0  0  -0.076378  -0.16698  0  3.915726  0
C  C63  1  0.08659822  0.20937080  0.54608403  1  0  -0.152827  0  3.685739  0  0  -0.168291  0  3.926567  0  0  -0.176692  0  3.94871  0  0  -0.07635  -0.167025  0  3.915456  0
C  C64  1  0.84171556  0.91713386  0.52397872  1  0  0.145207  0  3.785961  0  0  0.158153  0  4.021166  0  0  0.164203  0  4.043554  0  0  0.015702  0.154329  0  4.004749  0
C  C65  1  0.15828359  0.08285799  0.47602591  1  0  0.145244  0  3.786228  0  0  0.158205  0  4.021392  0  0  0.164255  0  4.043783  0  0  0.015719  0.154382  0  4.004974  0
C  C66  1  0.68172135  0.95264255  0.59095124  1  0  -0.161064  0  3.673335  0  0  -0.180199  0  3.92335  0  0  -0.188964  0  3.944955  0  0  -0.075493  -0.168637  0  3.902969  0
C  C67  1  0.31827174  0.04736355  0.40904808  1  0  -0.161197  0  3.673186  0  0  -0.180349  0  3.923206  0  0  -0.189116  0  3.944807  0  0  -0.075521  -0.168788  0  3.902828  0
C  C68  1  0.60153657  0.86493157  0.58432703  1  0  0.126788  0  3.709796  0  0  0.095561  0  3.960593  0  0  0.102609  0  3.980063  0  0  0.050142  0.090779  0  3.946935  0
C  C69  1  0.39846637  0.13506983  0.41567775  1  0  0.126872  0  3.709808  0  0  0.095719  0  3.960621  0  0  0.10277  0  3.980092  0  0  0.050211  0.090932  0  3.946969  0
C  C70  1  0.92369481  0.01077547  0.52991885  1  0  -0.08362  0  3.698284  0  0  -0.107862  0  3.957835  0  0  -0.11067  0  3.977615  0  0  -0.071805  -0.104553  0  3.941983  0
C  C71  1  0.07631260  0.98922586  0.47008497  1  0  -0.083479  0  3.698353  0  0  -0.107688  0  3.957869  0  0  -0.110508  0  3.97766  0  0  -0.071739  -0.104377  0  3.942014  0
N  N72  1  0.67047884  0.74614756  0.51438201  1  0  -0.311524  0  3.271119  0  0  -0.227487  0  3.5406  0  0  -0.247093  0  3.555634  0  0  -0.32925  -0.21796  0  3.531936  0
N  N73  1  0.32952444  0.25384517  0.48562524  1  0  -0.311517  0  3.27108  0  0  -0.227534  0  3.540595  0  0  -0.247142  0  3.555633  0  0  -0.329269  -0.218008  0  3.531931  0
O  O74  1  0.74760184  0.46224915  0.39086646  1  0  -0.643113  0  2.105832  0  0  -0.576831  0  2.368023  0  0  -0.6057  0  2.354898  0  0  -0.313784  -0.556895  0  2.376046  0
O  O75  1  0.25238288  0.53778387  0.60910628  1  0  -0.643001  0  2.106147  0  0  -0.576754  0  2.36832  0  0  -0.60562  0  2.355199  0  0  -0.313851  -0.556818  0  2.376336  0
O  O76  1  0.67278070  0.27545158  0.38859858  1  0  -0.634275  0  2.058093  0  0  -0.567755  0  2.323252  0  0  -0.596443  0  2.310464  0  0  -0.314948  -0.548193  0  2.33118  0
O  O77  1  0.32723611  0.72454428  0.61143063  1  0  -0.634404  0  2.058156  0  0  -0.567843  0  2.323176  0  0  -0.596532  0  2.31039  0  0  -0.314963  -0.548276  0  2.331101  0
O  O78  1  0.46562859  0.69393195  0.34279304  1  0  -0.639569  0  2.058827  0  0  -0.574618  0  2.31967  0  0  -0.603003  0  2.305894  0  0  -0.319562  -0.554988  0  2.328148  0
O  O79  1  0.53432264  0.30607410  0.65723156  1  0  -0.639533  0  2.058897  0  0  -0.574554  0  2.319688  0  0  -0.602935  0  2.305909  0  0  -0.319541  -0.554927  0  2.328168  0
O  O80  1  0.61597835  0.48961404  0.65552888  1  0  -0.639866  0  2.086482  0  0  -0.575839  0  2.348306  0  0  -0.60445  0  2.33545  0  0  -0.318988  -0.555592  0  2.356053  0
O  O81  1  0.38404838  0.51034874  0.34446420  1  0  -0.63988  0  2.086764  0  0  -0.575877  0  2.348612  0  0  -0.604479  0  2.335737  0  0  -0.318987  -0.555624  0  2.356337  0
