# generated using pymatgen
data_HgH16C26S2(N5O)2
_symmetry_space_group_name_H-M   'P 1'
_cell_length_a   5.66034376
_cell_length_b   7.25046772
_cell_length_c   16.13275337
_cell_angle_alpha   80.23001324
_cell_angle_beta   88.47432850
_cell_angle_gamma   77.91388743
_symmetry_Int_Tables_number   1
_chemical_formula_structural   HgH16C26S2(N5O)2
_chemical_formula_sum   'Hg1 H16 C26 S2 N10 O2'
_cell_volume   637.99781616
_cell_formula_units_Z   1
loop_
 _symmetry_equiv_pos_site_id
 _symmetry_equiv_pos_as_xyz
  1  'x, y, z'
loop_
 _atom_site_type_symbol
 _atom_site_label
 _atom_site_symmetry_multiplicity
 _atom_site_fract_x
 _atom_site_fract_y
 _atom_site_fract_z
 _atom_site_occupancy
 _atom_site_hle17_bader_spin_density
 _atom_site_hle17_ddec_charge
 _atom_site_hle17_ddec_spin_density
 _atom_site_hle17_ddec_sum_bond_order
 _atom_site_hle17_magmom
 _atom_site_hse06_10hf_bader_spin_density
 _atom_site_hse06_10hf_ddec_charge
 _atom_site_hse06_10hf_ddec_spin_density
 _atom_site_hse06_10hf_ddec_sum_bond_order
 _atom_site_hse06_10hf_magmom
 _atom_site_hse06_bader_spin_density
 _atom_site_hse06_ddec_charge
 _atom_site_hse06_ddec_spin_density
 _atom_site_hse06_ddec_sum_bond_order
 _atom_site_hse06_magmom
 _atom_site_pbe_bader_spin_density
 _atom_site_pbe_cm5_charge
 _atom_site_pbe_ddec_charge
 _atom_site_pbe_ddec_spin_density
 _atom_site_pbe_ddec_sum_bond_order
 _atom_site_pbe_magmom
Hg  Hg0  1  0.00000535  0.00000916  0.99999748  1  0  0.71915  0  2.021454  0  0  0.576725  0  2.477765  0  0  0.625156  0  2.453499  0  0  0.577329  0.544012  0  2.493458  0
H  H1  1  0.50789919  0.71718553  0.95547555  1  0  0.066053  0  0.997037  0  0  0.073282  0  1.068462  0  0  0.074439  0  1.068019  0  0  0.102438  0.072391  0  1.068836  0
H  H2  1  0.49212117  0.28281351  0.04451990  1  0  0.06609  0  0.996894  0  0  0.073294  0  1.068359  0  0  0.074451  0  1.067918  0  0  0.102419  0.072401  0  1.068737  0
H  H3  1  0.71099607  0.55819675  0.84003161  1  0  0.101458  0  0.960012  0  0  0.111783  0  1.020913  0  0  0.114282  0  1.02128  0  0  0.101871  0.109994  0  1.020864  0
H  H4  1  0.28901402  0.44180095  0.15996398  1  0  0.101553  0  0.959992  0  0  0.111827  0  1.020909  0  0  0.114326  0  1.021278  0  0  0.101899  0.110038  0  1.020861  0
H  H5  1  0.48420966  0.58513981  0.70537231  1  0  0.111854  0  0.972884  0  0  0.109558  0  1.052205  0  0  0.114691  0  1.046775  0  0  0.107544  0.105818  0  1.056093  0
H  H6  1  0.51578830  0.41485654  0.29462591  1  0  0.11185  0  0.972874  0  0  0.109586  0  1.052174  0  0  0.114696  0  1.046764  0  0  0.107549  0.105844  0  1.056066  0
H  H7  1  0.87874501  0.93666257  0.81484954  1  0  0.097667  0  0.958018  0  0  0.100517  0  1.032907  0  0  0.103763  0  1.028893  0  0  0.116664  0.098095  0  1.035867  0
H  H8  1  0.12126828  0.06333499  0.18515534  1  0  0.097665  0  0.958019  0  0  0.100473  0  1.032912  0  0  0.10375  0  1.028874  0  0  0.116644  0.098052  0  1.035872  0
H  H9  1  0.07193045  0.65222481  0.23563895  1  0  0.059311  0  0.974174  0  0  0.064516  0  1.049666  0  0  0.066821  0  1.047954  0  0  0.099502  0.062806  0  1.050907  0
H  H10  1  0.92804045  0.34778744  0.76436134  1  0  0.059533  0  0.974174  0  0  0.06471  0  1.04967  0  0  0.06704  0  1.047912  0  0  0.09958  0.062994  0  1.050926  0
H  H11  1  0.66085777  0.81494756  0.27539363  1  0  0.114799  0  0.938026  0  0  0.125325  0  0.994964  0  0  0.12823  0  0.994655  0  0  0.109119  0.123232  0  0.995396  0
H  H12  1  0.33912434  0.18506884  0.72460940  1  0  0.114684  0  0.937901  0  0  0.125222  0  0.994863  0  0  0.128128  0  0.994552  0  0  0.1091  0.123128  0  0.995294  0
H  H13  1  0.59656924  0.88696018  0.42248582  1  0  0.113329  0  0.975903  0  0  0.114409  0  1.05302  0  0  0.118881  0  1.048199  0  0  0.109264  0.111161  0  1.056506  0
H  H14  1  0.40341393  0.11304478  0.57751866  1  0  0.113302  0  0.975728  0  0  0.114392  0  1.052848  0  0  0.118865  0  1.048024  0  0  0.109305  0.111145  0  1.056334  0
H  H15  1  0.34183376  0.60840234  0.47615240  1  0  0.077115  0  0.935819  0  0  0.085357  0  1.001893  0  0  0.088419  0  0.998717  0  0  0.113191  0.083144  0  1.004187  0
H  H16  1  0.65813903  0.39158137  0.52384809  1  0  0.077154  0  0.935756  0  0  0.085394  0  1.00184  0  0  0.088455  0  0.998663  0  0  0.113204  0.083176  0  1.004144  0
C  C17  1  0.41389254  0.72786928  0.89634986  1  0  0.132653  0  3.691687  0  0  0.098726  0  3.94169  0  0  0.107069  0  3.961084  0  0  0.04597  0.093434  0  3.928394  0
C  C18  1  0.58613149  0.27212823  0.10365188  1  0  0.13246  0  3.691835  0  0  0.098536  0  3.941856  0  0  0.106878  0  3.961256  0  0  0.04593  0.093247  0  3.928553  0
C  C19  1  0.52590510  0.63946478  0.83138205  1  0  -0.104945  0  3.717853  0  0  -0.112988  0  3.965834  0  0  -0.121605  0  3.987828  0  0  -0.079435  -0.107553  0  3.951069  0
C  C20  1  0.47410213  0.36053008  0.16861438  1  0  -0.104957  0  3.717609  0  0  -0.112884  0  3.965543  0  0  -0.121499  0  3.987528  0  0  -0.079441  -0.107451  0  3.95078  0
C  C21  1  0.39977165  0.65551032  0.75674731  1  0  -0.00402  0  3.640174  0  0  -0.035578  0  3.892983  0  0  -0.029788  0  3.907276  0  0  -0.056421  -0.038909  0  3.883144  0
C  C22  1  0.60023465  0.34448733  0.24325512  1  0  -0.003919  0  3.639862  0  0  -0.035544  0  3.89269  0  0  -0.029724  0  3.906979  0  0  -0.056389  -0.038879  0  3.882862  0
C  C23  1  0.16227280  0.76282300  0.74991474  1  0  -0.070063  0  3.80831  0  0  -0.048348  0  4.044038  0  0  -0.057523  0  4.068243  0  0  -0.003254  -0.042676  0  4.027839  0
C  C24  1  0.83773321  0.23717610  0.25008572  1  0  -0.070171  0  3.808455  0  0  -0.048492  0  4.044272  0  0  -0.05767  0  4.068482  0  0  -0.003338  -0.042822  0  4.028077  0
C  C25  1  0.06152236  0.84929855  0.81800665  1  0  0.108139  0  3.657107  0  0  0.066112  0  3.910331  0  0  0.074952  0  3.927941  0  0  0.05745  0.060598  0  3.898215  0
C  C26  1  0.93848530  0.15070050  0.18199691  1  0  0.108112  0  3.65704  0  0  0.066179  0  3.91027  0  0  0.07499  0  3.92786  0  0  0.05743  0.060665  0  3.898154  0
C  C27  1  0.01812076  0.79298266  0.67410304  1  0  0.345741  0  3.734176  0  0  0.311994  0  4.012987  0  0  0.328313  0  4.024757  0  0  0.221354  0.301257  0  4.004937  0
C  C28  1  0.98187392  0.20701227  0.32589778  1  0  0.345789  0  3.734297  0  0  0.312  0  4.013174  0  0  0.328319  0  4.024947  0  0  0.221399  0.301253  0  4.005127  0
C  C29  1  0.93147493  0.78862953  0.54570691  1  0  0.347232  0  3.733609  0  0  0.307945  0  4.021718  0  0  0.325398  0  4.031744  0  0  0.218565  0.29644  0  4.014801  0
C  C30  1  0.06851473  0.21136398  0.45429589  1  0  0.34735  0  3.733611  0  0  0.308075  0  4.021669  0  0  0.325531  0  4.031696  0  0  0.218625  0.296562  0  4.014752  0
C  C31  1  0.03712210  0.67910273  0.29990056  1  0  0.121143  0  3.715611  0  0  0.092034  0  3.97686  0  0  0.098133  0  3.994473  0  0  0.041117  0.088303  0  3.964786  0
C  C32  1  0.96286152  0.32090082  0.70010154  1  0  0.120685  0  3.715578  0  0  0.091613  0  3.976826  0  0  0.097707  0  3.99444  0  0  0.040944  0.087882  0  3.964744  0
C  C33  1  0.80752688  0.77178817  0.32160147  1  0  -0.114914  0  3.727113  0  0  -0.126271  0  3.979506  0  0  -0.133375  0  4.001532  0  0  -0.083625  -0.121777  0  3.964659  0
C  C34  1  0.19244625  0.22822267  0.67839581  1  0  -0.114557  0  3.727317  0  0  -0.125952  0  3.979751  0  0  -0.133057  0  4.001782  0  0  -0.083453  -0.121458  0  3.964899  0
C  C35  1  0.77028691  0.80966293  0.40308884  1  0  -0.022103  0  3.651781  0  0  -0.051218  0  3.90094  0  0  -0.047457  0  3.917702  0  0  -0.063492  -0.053228  0  3.889394  0
C  C36  1  0.22969904  0.19034485  0.59691666  1  0  -0.021984  0  3.651897  0  0  -0.051121  0  3.901069  0  0  -0.04736  0  3.917831  0  0  -0.063555  -0.053134  0  3.889523  0
C  C37  1  0.96491955  0.75054788  0.46042353  1  0  -0.081375  0  3.825947  0  0  -0.060649  0  4.067031  0  0  -0.069265  0  4.092102  0  0  -0.011941  -0.055268  0  4.050163  0
C  C38  1  0.03505888  0.24944863  0.53957601  1  0  -0.081653  0  3.825941  0  0  -0.060915  0  4.067075  0  0  -0.069536  0  4.092146  0  0  -0.012065  -0.055533  0  4.050205  0
C  C39  1  0.18792334  0.65586536  0.43277043  1  0  0.104898  0  3.700439  0  0  0.064135  0  3.969618  0  0  0.071104  0  3.985006  0  0  0.046666  0.059786  0  3.959031  0
C  C40  1  0.81206208  0.34412391  0.56723271  1  0  0.104822  0  3.700712  0  0  0.064032  0  3.969922  0  0  0.071002  0  3.985312  0  0  0.04671  0.059682  0  3.959329  0
C  C41  1  0.57471602  0.79556923  0.09004951  1  0  0.263167  0  3.983687  0  0  0.248973  0  4.292049  0  0  0.268967  0  4.307333  0  0  0.13522  0.235424  0  4.281552  0
C  C42  1  0.42533692  0.20443382  0.90994550  1  0  0.263434  0  3.98416  0  0  0.249224  0  4.292491  0  0  0.26922  0  4.307773  0  0  0.13529  0.235673  0  4.281991  0
S  S43  1  0.85134269  0.68581811  0.07286220  1  0  -0.260197  0  2.204943  0  0  -0.241199  0  2.546091  0  0  -0.257983  0  2.543258  0  0  -0.112365  -0.229776  0  2.547912  0
S  S44  1  0.14869140  0.31418936  0.92713443  1  0  -0.260277  0  2.204963  0  0  -0.24123  0  2.546042  0  0  -0.25802  0  2.543209  0  0  -0.112377  -0.229807  0  2.547862  0
N  N45  1  0.18569747  0.83089738  0.88920887  1  0  -0.29407  0  3.287375  0  0  -0.210697  0  3.543313  0  0  -0.234527  0  3.568783  0  0  -0.303646  -0.19459  0  3.525433  0
N  N46  1  0.81431779  0.16910023  0.11079042  1  0  -0.29388  0  3.287313  0  0  -0.21054  0  3.543219  0  0  -0.234369  0  3.568698  0  0  -0.303545  -0.194433  0  3.525336  0
N  N47  1  0.79160225  0.88098985  0.66172017  1  0  -0.266324  0  2.914932  0  0  -0.245869  0  3.198526  0  0  -0.256475  0  3.214177  0  0  -0.216641  -0.238725  0  3.187918  0
N  N48  1  0.20839624  0.11900357  0.33828322  1  0  -0.266369  0  2.915116  0  0  -0.24588  0  3.198695  0  0  -0.256489  0  3.214355  0  0  -0.216647  -0.238736  0  3.188089  0
N  N49  1  0.73573609  0.87806442  0.57904656  1  0  -0.262307  0  2.923382  0  0  -0.243558  0  3.214456  0  0  -0.253349  0  3.226627  0  0  -0.21432  -0.236996  0  3.206264  0
N  N50  1  0.26426381  0.12193042  0.42095673  1  0  -0.262444  0  2.923536  0  0  -0.243698  0  3.214609  0  0  -0.253489  0  3.226781  0  0  -0.214407  -0.237136  0  3.206421  0
N  N51  1  0.22457290  0.62065104  0.35426472  1  0  -0.301547  0  3.081527  0  0  -0.259403  0  3.352882  0  0  -0.271183  0  3.367923  0  0  -0.315865  -0.251412  0  3.342392  0
N  N52  1  0.77540064  0.37934411  0.64573308  1  0  -0.301356  0  3.081607  0  0  -0.259148  0  3.352823  0  0  -0.270937  0  3.367887  0  0  -0.315823  -0.251157  0  3.342331  0
N  N53  1  0.37369607  0.87408578  0.10125828  1  0  -0.486198  0  2.749988  0  0  -0.447386  0  3.011216  0  0  -0.465274  0  3.020212  0  0  -0.360305  -0.435288  0  3.005041  0
N  N54  1  0.62634766  0.12592592  0.89873553  1  0  -0.4863  0  2.750489  0  0  -0.447502  0  3.011756  0  0  -0.465392  0  3.020754  0  0  -0.360307  -0.435403  0  3.005578  0
O  O55  1  0.11907133  0.73010828  0.60284192  1  0  -0.256142  0  2.285572  0  0  -0.179954  0  2.501806  0  0  -0.198331  0  2.504831  0  0  -0.093319  -0.167771  0  2.499665  0
O  O56  1  0.88092542  0.26989232  0.39715972  1  0  -0.256121  0  2.285712  0  0  -0.179922  0  2.501976  0  0  -0.198294  0  2.504986  0  0  -0.093313  -0.167718  0  2.499822  0
