# generated using pymatgen
data_Al4H52C75O26
_symmetry_space_group_name_H-M   'P 1'
_cell_length_a   6.62140581
_cell_length_b   20.76010959
_cell_length_c   23.56155425
_cell_angle_alpha   90.35196023
_cell_angle_beta   83.56086496
_cell_angle_gamma   87.61838845
_symmetry_Int_Tables_number   1
_chemical_formula_structural   Al4H52C75O26
_chemical_formula_sum   'Al4 H52 C75 O26'
_cell_volume   3215.39528183
_cell_formula_units_Z   1
loop_
 _symmetry_equiv_pos_site_id
 _symmetry_equiv_pos_as_xyz
  1  'x, y, z'
loop_
 _atom_site_type_symbol
 _atom_site_label
 _atom_site_symmetry_multiplicity
 _atom_site_fract_x
 _atom_site_fract_y
 _atom_site_fract_z
 _atom_site_occupancy
 _atom_site_pbe_bader_charge
 _atom_site_pbe_bader_spin_density
 _atom_site_pbe_cm5_charge
 _atom_site_pbe_ddec_charge
 _atom_site_pbe_ddec_spin_density
 _atom_site_pbe_ddec_sum_bond_order
 _atom_site_pbe_magmom
Al  Al0  1  0.14472855  0.50261630  0.50407606  1  2.500768  0  0.398229  1.642277  0  2.586197  0
Al  Al1  1  0.64592775  0.50298256  0.50180224  1  2.502215  0  0.401264  1.643914  0  2.576542  0
Al  Al2  1  0.68092278  0.99825721  0.00012475  1  2.500428  0  0.397  1.638446  0  2.587231  0
Al  Al3  1  0.18122957  0.99938843  0.00226041  1  2.501046  0  0.399548  1.638364  0  2.577447  0
H  H4  1  0.18244655  0.62739127  0.82948548  1  0.059616  0  0.105001  0.10646  0  0.98983  0
H  H5  1  0.99313316  0.62082368  0.65748694  1  0.073927  0  0.103102  0.107929  0  1.025179  0
H  H6  1  0.67307106  0.71132739  0.52964381  1  0.089664  0  0.109092  0.122888  0  1.03072  0
H  H7  1  0.67873023  0.87457288  0.67426941  1  0.086553  0  0.103796  0.106066  0  1.008479  0
H  H8  1  0.20360861  0.68487745  0.92031013  1  0.120052  0  0.110075  0.114028  0  0.994573  0
H  H9  1  0.84773091  0.87834226  0.84944970  1  0.082167  0  0.107718  0.111131  0  1.013478  0
H  H10  1  0.07624679  0.62381127  0.73352081  1  0.060816  0  0.102736  0.103536  0  1.012345  0
H  H11  1  0.77882999  0.87779623  0.77091750  1  0.068522  0  0.102538  0.102697  0  1.01222  0
H  H12  1  0.64931517  0.16802141  0.77212584  1  0.099654  0  0.112551  0.117978  0  0.980508  0
H  H13  1  0.60846792  0.24972728  0.69689466  1  0.081507  0  0.108302  0.113039  0  1.008599  0
H  H14  1  0.16342477  0.33524649  0.73333806  1  0.085105  0  0.113917  0.118813  0  0.977133  0
H  H15  1  0.20409807  0.25369840  0.80870640  1  0.115391  0  0.109618  0.112852  0  0.985436  0
H  H16  1  0.12170974  0.76896908  0.19962107  1  0.123089  0  0.114572  0.125956  0  0.992172  0
H  H17  1  0.11919534  0.68576633  0.27471709  1  0.107116  0  0.113681  0.12756  0  0.996063  0
H  H18  1  0.34584150  0.38261406  0.15455036  1  0.09107  0  0.105573  0.107914  0  1.00622  0
H  H19  1  0.43736486  0.38753047  0.33586381  1  0.068808  0  0.107428  0.109784  0  1.005361  0
H  H20  1  0.46618254  0.11962400  0.34862719  1  0.045814  0  0.09668  0.096137  0  1.001841  0
H  H21  1  0.26514706  0.21444321  0.01893484  1  0.063267  0  0.104456  0.117582  0  1.026592  0
H  H22  1  0.48453362  0.11661479  0.16103419  1  0.057283  0  0.101198  0.107244  0  1.022308  0
H  H23  1  0.40732549  0.38613272  0.25464341  1  0.021829  0  0.102191  0.102284  0  1.013319  0
H  H24  1  0.46056297  0.11726562  0.24520324  1  0.019792  0  0.098798  0.098135  0  1.018905  0
H  H25  1  0.45122476  0.17921643  0.43881752  1  0.05761  0  0.102164  0.113851  0  1.015372  0
H  H26  1  0.47510061  0.80083821  0.51671756  1  0.057687  0  0.103233  0.064298  0  0.956009  0
H  H27  1  0.73931190  0.81146429  0.49632580  1  0.064957  0  0.098589  0.054052  0  0.996426  0
H  H28  1  0.68615166  0.93081740  0.51416762  1  0.042661  0  0.093023  0.125581  0  0.99382  0
H  H29  1  0.53141082  0.90340862  0.46255832  1  0.032851  0  0.093901  0.123996  0  0.999234  0
H  H30  1  0.42135346  0.92077367  0.53379538  1  0.027376  0  0.094705  0.128554  0  0.992883  0
H  H31  1  0.59534155  0.74799046  0.38881436  1  0.062323  0  0.092573  0.045198  0  1.010462  0
H  H32  1  0.78786730  0.80410383  0.36840156  1  0.027289  0  0.089855  0.044119  0  0.979605  0
H  H33  1  0.05714171  0.71576560  0.37847070  1  0.06334  0  0.086487  0.122154  0  1.035921  0
H  H34  1  0.89819733  0.72891681  0.44344670  1  0.048552  0  0.084892  0.111015  0  1.035877  0
H  H35  1  0.86306068  0.66115916  0.39962888  1  0.067558  0  0.09926  0.147207  0  0.984949  0
H  H36  1  0.62907652  0.90817012  0.26500230  1  0.013825  0  0.09442  0.04774  0  0.97745  0
H  H37  1  0.70574847  0.91053441  0.18985679  1  0.072812  0  0.09968  0.06666  0  0.99672  0
H  H38  1  0.07102747  0.90506804  0.20658079  1  0.040539  0  0.090142  0.128864  0  1.028026  0
H  H39  1  0.94222110  0.97130025  0.24511225  1  0.00965  0  0.093138  0.12539  0  0.993095  0
H  H40  1  0.00215841  0.89910169  0.28167944  1  0.043088  0  0.086406  0.115514  0  1.007087  0
H  H41  1  0.32890757  0.19849516  0.52841405  1  0.022964  0  0.093161  0.046205  0  0.98522  0
H  H42  1  0.14765043  0.26505829  0.53113448  1  0.040905  0  0.101225  0.061362  0  0.962301  0
H  H43  1  0.31431816  0.31461963  0.61088580  1  0.048808  0  0.094812  0.135057  0  0.999068  0
H  H44  1  0.22886837  0.23635313  0.62961856  1  0.037234  0  0.086397  0.118184  0  1.016204  0
H  H45  1  0.49262177  0.24748706  0.60811152  1  0.019393  0  0.086552  0.11566  0  1.015196  0
H  H46  1  0.02142198  0.31432749  0.02710614  1  0.046199  0  0.103355  0.062849  0  0.957688  0
H  H47  1  0.25734945  0.30815787  0.98200039  1  0.022183  0  0.097174  0.051724  0  0.977314  0
H  H48  1  0.29260196  0.42656567  0.98632429  1  0.061923  0  0.093552  0.126188  0  0.993409  0
H  H49  1  0.04883591  0.41082265  0.96538370  1  0.02914  0  0.093708  0.124143  0  0.998298  0
H  H50  1  0.07176808  0.43549182  0.03678660  1  0.080693  0  0.099024  0.13572  0  0.985444  0
H  H51  1  0.09460110  0.81960056  0.02604374  1  0.078154  0  0.107419  0.050059  0  0.969463  0
H  H52  1  0.36851797  0.51504179  0.57870997  1  0.622567  0  0.359984  0.440645  0  0.837766  0
H  H53  1  0.93187679  0.46243800  0.43725644  1  0.629732  0  0.357982  0.438878  0  0.841851  0
H  H54  1  0.45272453  0.01132236  0.92719975  1  0.629944  0  0.353831  0.433502  0  0.850082  0
H  H55  1  0.89308467  0.04263496  0.06470565  1  0.624659  0  0.354352  0.433885  0  0.8505  0
C  C56  1  0.40418821  0.57498761  0.42376479  1  1.664121  0  0.272626  0.70718  0  4.179861  0
C  C57  1  0.43635511  0.40378338  0.44823026  1  1.622647  0  0.279987  0.683452  0  4.077453  0
C  C58  1  0.87852041  0.42922420  0.58279714  1  1.685801  0  0.270808  0.704076  0  4.180775  0
C  C59  1  0.85359569  0.60037632  0.55797708  1  1.576297  0  0.273308  0.650853  0  4.080788  0
C  C60  1  0.99617152  0.83713591  0.91656070  1  0.01978  0  -0.002367  -0.055429  0  3.954027  0
C  C61  1  0.83500857  0.66152938  0.59178196  1  0.001999  0  -0.01494  -0.005898  0  4.031973  0
C  C62  1  0.12974142  0.72742104  0.90329826  1  -0.021263  0  -0.065447  -0.124826  0  3.908611  0
C  C63  1  0.09841261  0.78217616  0.93766561  1  -0.063266  0  -0.013524  0.000949  0  3.981202  0
C  C64  1  0.92796399  0.83535953  0.86311422  1  -0.019254  0  -0.07701  -0.135557  0  3.940562  0
C  C65  1  0.96506314  0.78079827  0.82672867  1  -0.039969  0  0.00529  0.044547  0  3.939253  0
C  C66  1  0.06772437  0.72553431  0.84800766  1  0.021595  0  -0.003507  0.076529  0  4.025922  0
C  C67  1  0.90519941  0.77907290  0.76946568  1  0.004676  0  -0.001392  0.032924  0  3.954846  0
C  C68  1  0.94476722  0.72203710  0.73569703  1  -0.014692  0  0.000653  0.038738  0  3.941428  0
C  C69  1  0.04520533  0.66772359  0.75902394  1  -0.040708  0  -0.089949  -0.127131  0  4.022686  0
C  C70  1  0.10474987  0.66933000  0.81272546  1  -0.077128  0  -0.088342  -0.129835  0  4.021434  0
C  C71  1  0.80870825  0.83364179  0.74566683  1  -0.06593  0  -0.090891  -0.12809  0  4.020422  0
C  C72  1  0.75213277  0.83227964  0.69150730  1  -0.012804  0  -0.092737  -0.118406  0  4.030202  0
C  C73  1  0.78455296  0.77553783  0.65707583  1  0.031208  0  -0.012275  -0.014452  0  3.983816  0
C  C74  1  0.88219505  0.71967699  0.67873942  1  0.018016  0  -0.002037  0.049074  0  3.965859  0
C  C75  1  0.71890599  0.77305878  0.60129817  1  0.426447  0  0.086322  0.21238  0  4.059285  0
C  C76  1  0.73413431  0.71581816  0.57036831  1  -0.016654  0  -0.11  -0.260357  0  4.016425  0
C  C77  1  0.91310278  0.66374859  0.64378348  1  -0.047771  0  -0.093995  -0.171878  0  3.971528  0
C  C78  1  0.73815341  0.25042148  0.72155496  1  -0.027606  0  -0.07898  -0.122249  0  3.957149  0
C  C79  1  0.88332673  0.29791541  0.71015670  1  0.07928  0  0.003667  0.125278  0  4.115264  0
C  C80  1  0.05143748  0.29855202  0.74217358  1  -0.012393  0  -0.074554  -0.11726  0  3.954984  0
C  C81  1  0.07434286  0.25301355  0.78402166  1  -0.072384  0  -0.0776  -0.119783  0  3.957732  0
C  C82  1  0.92961691  0.20533721  0.79521529  1  0.082979  0  0.003013  0.12724  0  4.117438  0
C  C83  1  0.76110332  0.20482202  0.76337661  1  -0.026306  0  -0.07752  -0.120025  0  3.957242  0
C  C84  1  0.86611279  0.34368850  0.66656345  1  -0.387358  0  -0.02415  -0.045157  0  4.093813  0
C  C85  1  0.94910072  0.15892088  0.83813972  1  -0.547782  0  -0.026405  -0.040133  0  4.100275  0
C  C86  1  0.95682209  0.11876299  0.87540865  1  0.262257  0  -0.039789  -0.19136  0  3.953801  0
C  C87  1  0.86315148  0.38298870  0.62846018  1  0.097607  0  -0.030033  -0.174538  0  3.932263  0
C  C88  1  0.59738168  0.78951749  0.23997985  1  0.514693  0  0.08949  0.109673  0  4.044063  0
C  C89  1  0.42572280  0.79811872  0.20914034  1  0.141296  0  -0.005269  0.0228  0  4.118221  0
C  C90  1  0.25379985  0.76060169  0.22266404  1  -0.013493  0  -0.075345  -0.099071  0  3.957722  0
C  C91  1  0.25263690  0.71413380  0.26437087  1  -0.012826  0  -0.082979  -0.120224  0  3.973845  0
C  C92  1  0.42410233  0.70381849  0.29429934  1  0.063533  0  -0.007104  0.028328  0  4.137258  0
C  C93  1  0.59612895  0.74176360  0.28219738  1  0.610024  0  0.084595  0.107943  0  4.041235  0
C  C94  1  0.42314755  0.84228751  0.16392738  1  -0.507532  0  -0.004872  0.011718  0  4.088804  0
C  C95  1  0.42275969  0.65731124  0.33779275  1  -0.495793  0  -0.013861  -0.003525  0  4.107875  0
C  C96  1  0.41712649  0.61876008  0.37665190  1  0.205237  0  -0.0331  -0.195156  0  3.931766  0
C  C97  1  0.41305530  0.87959563  0.12450960  1  0.219423  0  -0.031408  -0.204618  0  3.930633  0
C  C98  1  0.38027050  0.16094065  0.08777239  1  0.009903  0  -0.017082  -0.003361  0  4.034195  0
C  C99  1  0.44541546  0.34142182  0.41575376  1  -0.084785  0  -0.017298  -0.124857  0  3.984579  0
C  C100  1  0.31949880  0.27616260  0.08980277  1  0.447995  0  0.086423  0.213936  0  4.06354  0
C  C101  1  0.31321985  0.21767323  0.06149082  1  0.03992  0  -0.113833  -0.263432  0  4.0134  0
C  C102  1  0.43432674  0.16174250  0.14280460  1  -0.06076  0  -0.100752  -0.187394  0  3.986901  0
C  C103  1  0.41887797  0.21981465  0.17494329  1  0.009065  0  -0.001408  0.056903  0  3.975577  0
C  C104  1  0.37271085  0.27845944  0.14695511  1  0.012695  0  -0.013628  -0.019533  0  3.987329  0
C  C105  1  0.44154405  0.22162079  0.23532930  1  0.026063  0  -0.005626  0.0287  0  3.955658  0
C  C106  1  0.43501737  0.28177505  0.26457182  1  -0.056166  0  -0.001916  0.039519  0  3.966072  0
C  C107  1  0.40821377  0.33948300  0.23323186  1  0.032909  0  -0.092482  -0.132395  0  4.022943  0
C  C108  1  0.37429115  0.33802998  0.17697522  1  -0.088107  0  -0.091438  -0.114136  0  4.024996  0
C  C109  1  0.45745396  0.16367172  0.26715875  1  0.001396  0  -0.094153  -0.128924  0  4.039766  0
C  C110  1  0.46018800  0.16470608  0.32512855  1  -0.039302  0  -0.09924  -0.143915  0  4.040354  0
C  C111  1  0.45264098  0.22405055  0.35619689  1  -0.049565  0  -0.00846  0.101195  0  4.040178  0
C  C112  1  0.44601109  0.28316331  0.32554305  1  0.042965  0  -0.006891  0.022777  0  3.959585  0
C  C113  1  0.44964470  0.22495788  0.41632235  1  0.081484  0  -0.108673  -0.271854  0  3.99699  0
C  C114  1  0.44571354  0.28274740  0.44607525  1  0.46674  0  0.083388  0.231884  0  4.087435  0
C  C115  1  0.44333837  0.34124402  0.35721716  1  -0.002737  0  -0.082161  -0.129887  0  3.97151  0
C  C116  1  0.39047008  0.09836460  0.05605632  1  1.552792  0  0.272421  0.659732  0  4.070218  0
C  C117  1  0.42204471  0.92487690  0.07863435  1  1.655747  0  0.275561  0.711446  0  4.173839  0
C  C118  1  0.97362828  0.89980145  0.94847436  1  1.589443  0  0.27342  0.640776  0  4.104928  0
C  C119  1  0.94544541  0.07232781  0.92079997  1  1.693113  0  0.269282  0.710373  0  4.174994  0
C  C120  1  0.60331277  0.83145326  0.52301145  1  0.382995  0  -0.062526  0.090297  0  3.917133  0
C  C121  1  0.55764943  0.90082521  0.50774674  1  -0.045004  0  -0.242038  -0.397222  0  3.988178  0
C  C122  1  0.75235608  0.75254268  0.36858674  1  0.367356  0  -0.066373  0.089455  0  3.921806  0
C  C123  1  0.90122957  0.71212070  0.39902151  1  -0.094049  0  -0.247443  -0.39764  0  3.95432  0
C  C124  1  0.75018562  0.89334533  0.23086391  1  0.401866  0  -0.0657  0.087191  0  3.895806  0
C  C125  1  0.95376590  0.91841207  0.24181025  1  -0.034627  0  -0.245439  -0.392605  0  3.972354  0
C  C126  1  0.30359946  0.25013906  0.53936878  1  0.442193  0  -0.063666  0.095489  0  3.919815  0
C  C127  1  0.33699936  0.26295129  0.60080848  1  -0.051656  0  -0.247247  -0.402172  0  3.984164  0
C  C128  1  0.16973433  0.33647299  0.01692996  1  0.421362  0  -0.062238  0.09145  0  3.926636  0
C  C129  1  0.14467096  0.40651284  0.00045238  1  -0.09677  0  -0.240836  -0.39916  0  3.984058  0
C  C130  1  0.15747080  0.77967372  0.99676378  1  0.955739  0  0.100211  0.278156  0  3.950061  0
O  O131  1  0.59857933  0.42170493  0.46643322  1  -1.254752  0  -0.230885  -0.588107  0  2.31228  0
O  O132  1  0.22675504  0.56688224  0.44901650  1  -1.232653  0  -0.22708  -0.571772  0  2.277287  0
O  O133  1  0.02128039  0.56751223  0.55594756  1  -1.268889  0  -0.235706  -0.599633  0  2.340009  0
O  O134  1  0.26521384  0.43481131  0.45382370  1  -1.266449  0  -0.232558  -0.600771  0  2.323099  0
O  O135  1  0.05908199  0.43796505  0.56012983  1  -1.219535  0  -0.228322  -0.576184  0  2.278149  0
O  O136  1  0.57033337  0.54798228  0.43582805  1  -1.229248  0  -0.230244  -0.586543  0  2.292424  0
O  O137  1  0.38262683  0.50940540  0.53766711  1  -1.424478  0  -0.44692  -0.998875  0  2.217366  0
O  O138  1  0.71457363  0.45694311  0.57019184  1  -1.239705  0  -0.231976  -0.587637  0  2.281649  0
O  O139  1  0.69923552  0.58471809  0.53410886  1  -1.260133  0  -0.231858  -0.579415  0  2.312177  0
O  O140  1  0.91120437  0.49366391  0.46837432  1  -1.429832  0  -0.446364  -0.993387  0  2.19599  0
O  O141  1  0.25666225  0.95336717  0.06765517  1  -1.239114  0  -0.230459  -0.586609  0  2.281979  0
O  O142  1  0.55886029  0.06557697  0.05233769  1  -1.266468  0  -0.239766  -0.61091  0  2.328504  0
O  O143  1  0.76563227  0.06212822  0.94345254  1  -1.229758  0  -0.232592  -0.587753  0  2.282243  0
O  O144  1  0.59897964  0.93353432  0.05329751  1  -1.226438  0  -0.224868  -0.571928  0  2.287005  0
O  O145  1  0.80505023  0.93177606  0.94972698  1  -1.268709  0  -0.233366  -0.585201  0  2.333244  0
O  O146  1  0.22958105  0.08174767  0.03567341  1  -1.258272  0  -0.239382  -0.599245  0  2.310413  0
O  O147  1  0.44401102  0.99367516  0.96534603  1  -1.430868  0  -0.447397  -0.98843  0  2.193508  0
O  O148  1  0.12959368  0.91803036  0.97018322  1  -1.252998  0  -0.225938  -0.579802  0  2.355268  0
O  O149  1  0.11113180  0.04597385  0.93363301  1  -1.245439  0  -0.232543  -0.589181  0  2.279755  0
O  O150  1  0.91510099  0.00895304  0.03565109  1  -1.426112  0  -0.4464  -0.987303  0  2.185435  0
O  O151  1  0.64142051  0.82980235  0.58192933  1  -1.070098  0  -0.182309  -0.205682  0  2.532986  0
O  O152  1  0.76554989  0.73051057  0.30961858  1  -1.063962  0  -0.192605  -0.212857  0  2.543602  0
O  O153  1  0.76981833  0.82326963  0.23005293  1  -1.062028  0  -0.185747  -0.201323  0  2.545338  0
O  O154  1  0.44467452  0.28820355  0.50419649  1  -1.098395  0  -0.190592  -0.215987  0  2.502169  0
O  O155  1  0.27504050  0.33471318  0.06709163  1  -1.068229  0  -0.181311  -0.206368  0  2.551314  0
O  O156  1  0.26469087  0.73590217  0.01371391  1  -1.075776  0  -0.277409  -0.369881  0  2.08254  0
