# generated using pymatgen
data_ZnH26C33N2(O4F3)2
_symmetry_space_group_name_H-M   'P 1'
_cell_length_a   17.23186529
_cell_length_b   18.33980507
_cell_length_c   19.12106878
_cell_angle_alpha   90.04622663
_cell_angle_beta   88.88320220
_cell_angle_gamma   83.40903906
_symmetry_Int_Tables_number   1
_chemical_formula_structural   ZnH26C33N2(O4F3)2
_chemical_formula_sum   'Zn2 H52 C66 N4 O16 F12'
_cell_volume   6001.70707812
_cell_formula_units_Z   2
loop_
 _symmetry_equiv_pos_site_id
 _symmetry_equiv_pos_as_xyz
  1  'x, y, z'
loop_
 _atom_site_type_symbol
 _atom_site_label
 _atom_site_symmetry_multiplicity
 _atom_site_fract_x
 _atom_site_fract_y
 _atom_site_fract_z
 _atom_site_occupancy
 _atom_site_pbe_bader_charge
 _atom_site_pbe_bader_spin_density
 _atom_site_pbe_cm5_charge
 _atom_site_pbe_ddec_charge
 _atom_site_pbe_ddec_spin_density
 _atom_site_pbe_ddec_sum_bond_order
 _atom_site_pbe_magmom
Zn  Zn0  1  0.48971286  0.58116319  0.50252786  1  1.295572  0  0.674739  0.842601  0  2.404457  0
Zn  Zn1  1  0.49661075  0.42657021  0.50209754  1  1.29574  0  0.676971  0.842286  0  2.404768  0
H  H2  1  0.73218849  0.59919419  0.53003754  1  0.141062  0  0.117922  0.151664  0  0.975746  0
H  H3  1  0.66813552  0.41095556  0.81159369  1  0.085525  0  0.109707  0.138078  0  0.986308  0
H  H4  1  0.60554654  0.60064527  0.06563736  1  0.042959  0  0.104681  0.122982  0  0.994731  0
H  H5  1  0.60014725  0.37055722  0.93180012  1  0.057007  0  0.106451  0.126509  0  0.990132  0
H  H6  1  0.68074981  0.57929947  0.84762245  1  0.050655  0  0.092612  0.051721  0  1.006884  0
H  H7  1  0.73017537  0.61915270  0.91677799  1  0.005281  0  0.090813  0.045217  0  0.969512  0
H  H8  1  0.65877203  0.74339492  0.88725075  1  0.030734  0  0.090362  0.122502  0  0.996551  0
H  H9  1  0.71512783  0.70415364  0.81458619  1  0.043131  0  0.092802  0.122892  0  0.996646  0
H  H10  1  0.61186355  0.70231673  0.81745860  1  0.03663  0  0.090795  0.124513  0  1.002454  0
H  H11  1  0.67737795  0.37592689  0.14906056  1  0.071769  0  0.092777  0.051119  0  1.01498  0
H  H12  1  0.72999322  0.32139886  0.08245677  1  0.056902  0  0.092203  0.046947  0  0.966699  0
H  H13  1  0.25887990  0.40764609  0.44375107  1  0.102531  0  0.115955  0.146503  0  0.997545  0
H  H14  1  0.65198472  0.21663704  0.11380585  1  0.038427  0  0.090298  0.122638  0  0.996239  0
H  H15  1  0.70427050  0.24473529  0.18682361  1  0.017161  0  0.093477  0.124335  0  0.996465  0
H  H16  1  0.60188033  0.27207519  0.18092351  1  0.026695  0  0.090426  0.124599  0  1.00558  0
H  H17  1  0.60382551  0.74695693  0.32605175  1  0.054534  0  0.10766  0.07091  0  0.963597  0
H  H18  1  0.67860394  0.74442001  0.38966449  1  0.034495  0  0.1091  0.072591  0  0.953868  0
H  H19  1  0.71773329  0.86392645  0.34260016  1  0.055968  0  0.099119  0.134226  0  0.985917  0
H  H20  1  0.72434494  0.79505800  0.27637590  1  0.04756  0  0.102025  0.136083  0  0.984546  0
H  H21  1  0.64386263  0.86521482  0.27839080  1  0.038738  0  0.09592  0.127821  0  0.991955  0
H  H22  1  0.33158577  0.12495888  0.50233197  1  0.055845  0  0.096396  0.053077  0  0.991193  0
H  H23  1  0.28171598  0.21299340  0.52516863  1  0.042792  0  0.101576  0.060754  0  0.96119  0
H  H24  1  0.57314651  0.68265892  0.42068577  1  0.149925  0  0.129064  0.120353  0  1.020369  0
H  H25  1  0.24795312  0.16267780  0.64409598  1  0.036976  0  0.098207  0.13299  0  0.985318  0
H  H26  1  0.20922234  0.11406214  0.57475063  1  0.012104  0  0.10043  0.133663  0  0.984807  0
H  H27  1  0.29447271  0.07457242  0.61809472  1  0.039257  0  0.094459  0.127885  0  0.993778  0
H  H28  1  0.49744312  0.34040848  0.30851857  1  0.071446  0  0.09185  0.053494  0  1.002991  0
H  H29  1  0.44593425  0.32795263  0.22945283  1  0.04614  0  0.094914  0.052639  0  0.995918  0
H  H30  1  0.31801727  0.35057077  0.29830037  1  0.034978  0  0.091075  0.126159  0  0.988864  0
H  H31  1  0.37917230  0.27494330  0.33298954  1  -0.013546  0  0.084458  0.110994  0  1.009029  0
H  H32  1  0.37157483  0.36222317  0.37580917  1  0.046817  0  0.088164  0.131097  0  1.027242  0
H  H33  1  0.45854309  0.67609027  0.70337688  1  0.076221  0  0.087951  0.049937  0  1.000577  0
H  H34  1  0.45153552  0.67509568  0.79725171  1  0.054864  0  0.097118  0.05703  0  1.00785  0
H  H35  1  0.40325976  0.32076459  0.57145714  1  0.159075  0  0.138232  0.13521  0  0.957942  0
H  H36  1  0.34420055  0.76263366  0.74444966  1  0.026235  0  0.089272  0.120805  0  0.999932  0
H  H37  1  0.31068047  0.68775360  0.69924837  1  0.04206  0  0.091943  0.132147  0  0.997243  0
H  H38  1  0.30608633  0.69103866  0.79256445  1  0.036947  0  0.088418  0.118879  0  1.006502  0
H  H39  1  0.41881315  0.50643780  0.07911831  1  0.053949  0  0.094505  0.052816  0  0.990611  0
H  H40  1  0.36765658  0.47802689  0.15504563  1  0.047861  0  0.096489  0.056192  0  0.987438  0
H  H41  1  0.34629755  0.36078849  0.09366868  1  0.013472  0  0.092115  0.12556  0  0.992278  0
H  H42  1  0.30690921  0.43829235  0.04445836  1  0.03359  0  0.091728  0.120489  0  1.001447  0
H  H43  1  0.39801456  0.38852552  0.01847276  1  0.048674  0  0.092529  0.12629  0  0.999162  0
H  H44  1  0.40890056  0.49759376  0.93170953  1  0.043417  0  0.093795  0.051713  0  0.987824  0
H  H45  1  0.35896452  0.54068602  0.85862372  1  0.036383  0  0.097151  0.057674  0  0.99193  0
H  H46  1  0.49598555  0.93483894  0.60461717  1  0.088729  0  0.107403  0.111597  0  0.989022  0
H  H47  1  0.33412186  0.65865623  0.92662264  1  0.047941  0  0.091986  0.124705  0  1.001035  0
H  H48  1  0.29437465  0.58623441  0.97203143  1  -0.010803  0  0.090694  0.119951  0  1.00153  0
H  H49  1  0.38390847  0.61626530  0.99938215  1  0.047742  0  0.091296  0.123849  0  1.0016  0
H  H50  1  0.48491200  0.07315259  0.38118585  1  0.076958  0  0.106375  0.110908  0  0.988536  0
H  H51  1  0.49200805  0.06986912  0.60650488  1  0.086302  0  0.112734  0.119431  0  0.979905  0
H  H52  1  0.48740471  0.93824084  0.37933603  1  0.083533  0  0.109872  0.113239  0  0.989823  0
H  H53  1  0.67535951  0.55366865  0.17545443  1  0.078561  0  0.108293  0.135577  0  0.988401  0
C  C54  1  0.49743276  0.50038143  0.63662748  1  1.610554  0  0.220392  0.644632  0  4.149857  0
C  C55  1  0.58726592  0.44845707  0.73181278  1  0.424203  0  0.091791  0.275914  0  4.084872  0
C  C56  1  0.53700550  0.50479441  0.29127294  1  0.058735  0  -0.0308  -0.222821  0  3.982596  0
C  C57  1  0.52181303  0.49525010  0.71160625  1  0.035116  0  -0.032023  -0.224396  0  3.974479  0
C  C58  1  0.60705170  0.54927423  0.03659997  1  0.032202  0  -0.102259  -0.228846  0  3.991494  0
C  C59  1  0.60373728  0.42135668  0.96067949  1  0.017926  0  -0.102791  -0.232471  0  3.983211  0
C  C60  1  0.60725709  0.55243425  0.96383327  1  0.478829  0  0.073638  0.193988  0  4.081615  0
C  C61  1  0.60815182  0.41756780  0.03351169  1  0.46387  0  0.076687  0.199907  0  4.068993  0
C  C62  1  0.59835571  0.48844860  0.92511642  1  0.007663  0  -0.017852  -0.010882  0  4.022043  0
C  C63  1  0.60235292  0.48331543  0.07283666  1  0.009208  0  -0.02297  -0.022639  0  4.021194  0
C  C64  1  0.53689674  0.72257181  0.45282447  1  0.488178  0  0.030372  -0.044212  0  3.930774  0
C  C65  1  0.51463070  0.50986475  0.36744369  1  1.646093  0  0.218296  0.638623  0  4.160475  0
C  C66  1  0.44228755  0.28338147  0.53888814  1  0.536452  0  0.049378  -0.001586  0  3.900124  0
C  C67  1  0.53958145  0.79819284  0.44751917  1  0.525455  0  0.09336  0.175714  0  4.067735  0
C  C68  1  0.43651386  0.20835547  0.53849590  1  0.534858  0  0.089439  0.163814  0  4.08344  0
C  C69  1  0.34305704  0.51095804  0.48902949  1  1.59518  0  0.221077  0.61468  0  4.153656  0
C  C70  1  0.64453771  0.49168813  0.50576176  1  1.586335  0  0.216579  0.606711  0  4.1693  0
C  C71  1  0.49050900  0.84668703  0.49214015  1  0.075396  0  -0.001857  -0.086028  0  3.990377  0
C  C72  1  0.48829195  0.16110924  0.49542977  1  0.050692  0  0.003219  -0.081869  0  4.009595  0
C  C73  1  0.44073670  0.81406894  0.53774368  1  0.537159  0  0.10151  0.101234  0  4.089408  0
C  C74  1  0.54255346  0.19460316  0.45525960  1  0.50084  0  0.101464  0.099693  0  4.076119  0
C  C75  1  0.44077210  0.73811195  0.53913905  1  1.204307  0  0.227607  0.304273  0  4.130403  0
C  C76  1  0.51840113  0.45501586  0.17499364  1  0.526204  0  0.072044  0.08204  0  4.041528  0
C  C77  1  0.54494131  0.27023210  0.45912690  1  1.216748  0  0.235696  0.320199  0  4.113334  0
C  C78  1  0.49253434  0.96511897  0.55557838  1  0.031513  0  -0.084029  -0.120133  0  3.972613  0
C  C79  1  0.48708266  0.04284220  0.43024430  1  -0.043967  0  -0.08594  -0.128037  0  3.985531  0
C  C80  1  0.49062649  0.04104976  0.55679899  1  0.008718  0  -0.078484  -0.110071  0  3.959246  0
C  C81  1  0.48846905  0.96690634  0.42911820  1  -0.002968  0  -0.079933  -0.106823  0  3.96246  0
C  C82  1  0.48787458  0.08073476  0.49399561  1  -0.037784  0  -0.00792  0.085395  0  4.019558  0
C  C83  1  0.49101119  0.92708490  0.49187273  1  -0.062573  0  -0.004306  0.095611  0  3.994906  0
C  C84  1  0.25614000  0.51895897  0.47997676  1  0.023748  0  -0.013163  -0.082993  0  3.961611  0
C  C85  1  0.73210643  0.48564891  0.50194140  1  0.079033  0  -0.009921  -0.071933  0  3.965904  0
C  C86  1  0.22137840  0.45773218  0.45718984  1  0.150329  0  -0.096462  -0.219482  0  4.005163  0
C  C87  1  0.50747782  0.53758565  0.83282434  1  0.504813  0  0.067636  0.073981  0  4.046077  0
C  C88  1  0.76839804  0.54880139  0.51511795  1  0.038972  0  -0.097367  -0.221421  0  4.009704  0
C  C89  1  0.14134858  0.46017794  0.45284246  1  0.471448  0  0.10301  0.237718  0  4.056904  0
C  C90  1  0.84835244  0.54766137  0.50853995  1  0.516583  0  0.102645  0.238259  0  4.052839  0
C  C91  1  0.09077589  0.52401548  0.47074139  1  0.504717  0  0.080856  -0.023482  0  4.079635  0
C  C92  1  0.89717898  0.48330726  0.48842597  1  0.517814  0  0.078635  -0.027119  0  4.075581  0
C  C93  1  0.12673056  0.58616460  0.48944756  1  0.571472  0  0.101803  0.131713  0  4.047968  0
C  C94  1  0.85977206  0.41992372  0.47761072  1  0.506981  0  0.103298  0.134853  0  4.047635  0
C  C95  1  0.20760944  0.58395271  0.49480011  1  0.485096  0  0.096422  0.155963  0  4.061831  0
C  C96  1  0.77894297  0.42070827  0.48386763  1  0.531304  0  0.096122  0.152745  0  4.063627  0
C  C97  1  0.49642788  0.46294491  0.24604702  1  0.532283  0  0.079923  0.148929  0  4.071623  0
C  C98  1  0.58368945  0.48700783  0.14865133  1  -0.023729  0  -0.009579  0.029063  0  4.033801  0
C  C99  1  0.48229476  0.54058933  0.76316355  1  0.573122  0  0.080262  0.14971  0  4.07481  0
C  C100  1  0.67627018  0.62461682  0.88588473  1  0.43923  0  -0.068839  0.089974  0  3.927993  0
C  C101  1  0.66462133  0.69809013  0.84920276  1  -0.065805  0  -0.24416  -0.391737  0  3.986648  0
C  C102  1  0.67399319  0.33041900  0.11208590  1  0.381644  0  -0.067374  0.092821  0  3.921947  0
C  C103  1  0.65687766  0.26182589  0.15062009  1  -0.049246  0  -0.244187  -0.392991  0  3.984786  0
C  C104  1  0.63913792  0.78108008  0.35707296  1  0.418662  0  -0.057815  0.081866  0  3.891123  0
C  C105  1  0.68375809  0.82946949  0.31101434  1  -0.053259  0  -0.237496  -0.394387  0  3.974792  0
C  C106  1  0.31308675  0.16222888  0.54637341  1  0.37248  0  -0.063493  0.08993  0  3.906969  0
C  C107  1  0.26349132  0.12622148  0.59918139  1  -0.000154  0  -0.237795  -0.390527  0  3.971243  0
C  C108  1  0.44213959  0.35481850  0.28117000  1  0.374918  0  -0.071278  0.088023  0  3.894467  0
C  C109  1  0.57546321  0.49183156  0.85094189  1  -0.002681  0  -0.011052  0.027802  0  4.042344  0
C  C110  1  0.37345160  0.33463807  0.32470818  1  -0.021394  0  -0.248961  -0.394683  0  3.970874  0
C  C111  1  0.42230773  0.66276743  0.74867772  1  0.375308  0  -0.071944  0.082384  0  3.901063  0
C  C112  1  0.34085229  0.70317320  0.74611443  1  -0.052192  0  -0.245702  -0.394547  0  3.988845  0
C  C113  1  0.40334122  0.45841475  0.10884779  1  0.39024  0  -0.069107  0.083185  0  3.908886  0
C  C114  1  0.36124389  0.40843772  0.06364768  1  -0.044209  0  -0.242177  -0.390083  0  3.984628  0
C  C115  1  0.39331282  0.55049082  0.90501794  1  0.409407  0  -0.068693  0.082905  0  3.905336  0
C  C116  1  0.34891502  0.60626272  0.95369857  1  -0.027694  0  -0.242631  -0.390963  0  3.988602  0
C  C117  1  0.62448354  0.52855922  0.19407079  1  0.075236  0  -0.112885  -0.281151  0  4.033288  0
C  C118  1  0.61533586  0.44686747  0.79934514  1  0.03657  0  -0.113572  -0.282657  0  4.034235  0
C  C119  1  0.59976444  0.53758945  0.26322698  1  0.347763  0  0.089948  0.273391  0  4.086334  0
N  N120  1  0.00903685  0.53291650  0.47060365  1  -0.484381  0  -0.14522  -0.086292  0  3.271279  0
N  N121  1  0.97871086  0.47441040  0.48424501  1  -0.481649  0  -0.144525  -0.086644  0  3.282384  0
N  N122  1  0.48785037  0.69416325  0.49860611  1  -1.262501  0  -0.320815  -0.247132  0  3.586239  0
N  N123  1  0.49633786  0.31329153  0.49959275  1  -1.267405  0  -0.31651  -0.255427  0  3.558119  0
O  O124  1  0.49922817  0.56265459  0.60788041  1  -1.15244  0  -0.31182  -0.544836  0  2.31554  0
O  O125  1  0.61204319  0.34904134  0.06320309  1  -1.065394  0  -0.202683  -0.232718  0  2.522572  0
O  O126  1  0.58768628  0.82919222  0.40244097  1  -1.064488  0  -0.172966  -0.191242  0  2.555723  0
O  O127  1  0.38221695  0.18143587  0.58165423  1  -1.065831  0  -0.200052  -0.236066  0  2.496849  0
O  O128  1  0.43150672  0.43391605  0.27161997  1  -1.055784  0  -0.199557  -0.219949  0  2.495886  0
O  O129  1  0.41557890  0.58447879  0.74572202  1  -1.070369  0  -0.19959  -0.218041  0  2.496511  0
O  O130  1  0.47480181  0.41654855  0.13165677  1  -1.06128  0  -0.199793  -0.223021  0  2.559202  0
O  O131  1  0.46471274  0.57939268  0.88318501  1  -1.070468  0  -0.198235  -0.218868  0  2.554849  0
O  O132  1  0.51699093  0.44872993  0.39904345  1  -1.164595  0  -0.308899  -0.547525  0  2.359983  0
O  O133  1  0.47956778  0.44226199  0.60779284  1  -1.157919  0  -0.320653  -0.550651  0  2.286032  0
O  O134  1  0.49658370  0.57316831  0.39364307  1  -1.155252  0  -0.316806  -0.542525  0  2.284416  0
O  O135  1  0.37446684  0.56912475  0.49926168  1  -1.144569  0  -0.310183  -0.535168  0  2.365842  0
O  O136  1  0.61326551  0.43358733  0.51729295  1  -1.144953  0  -0.309465  -0.533443  0  2.355258  0
O  O137  1  0.37751862  0.44576045  0.48599936  1  -1.158278  0  -0.312897  -0.545809  0  2.325024  0
O  O138  1  0.60987495  0.55604077  0.49681644  1  -1.159633  0  -0.313999  -0.542496  0  2.322723  0
O  O139  1  0.61018453  0.61989616  0.93267332  1  -1.072396  0  -0.205897  -0.237198  0  2.511564  0
F  F140  1  0.38986635  0.85502127  0.58084252  1  -0.616743  0  -0.085198  -0.106948  0  1.380281  0
F  F141  1  0.74889419  0.35772839  0.46970879  1  -0.609012  0  -0.091608  -0.105213  0  1.390011  0
F  F142  1  0.64088108  0.57843822  0.30615899  1  -0.638825  0  -0.116131  -0.157831  0  1.312933  0
F  F143  1  0.62783165  0.40467342  0.68264150  1  -0.631581  0  -0.112054  -0.144408  0  1.323336  0
F  F144  1  0.59575145  0.15466049  0.41355028  1  -0.61827  0  -0.085893  -0.104294  0  1.368827  0
F  F145  1  0.39163184  0.70803719  0.58267459  1  -0.61519  0  -0.054156  -0.095094  0  1.408985  0
F  F146  1  0.59815952  0.30080351  0.42075023  1  -0.604503  0  -0.059304  -0.097861  0  1.398809  0
F  F147  1  0.88031571  0.60948191  0.52473777  1  -0.617896  0  -0.097717  -0.133855  0  1.365073  0
F  F148  1  0.11123762  0.40012538  0.42862551  1  -0.623554  0  -0.10171  -0.13682  0  1.355208  0
F  F149  1  0.08195848  0.64905143  0.50642990  1  -0.611808  0  -0.088708  -0.104175  0  1.367564  0
F  F150  1  0.90289508  0.35684312  0.45847788  1  -0.609904  0  -0.088741  -0.104965  0  1.36742  0
F  F151  1  0.23501752  0.64592845  0.51658643  1  -0.610601  0  -0.091811  -0.106001  0  1.391475  0
