# generated using pymatgen
data_CdH14(C8N3)2
_symmetry_space_group_name_H-M   'P 1'
_cell_length_a   7.94977787
_cell_length_b   9.23166058
_cell_length_c   10.23705604
_cell_angle_alpha   89.94757264
_cell_angle_beta   89.99999101
_cell_angle_gamma   90.00000523
_symmetry_Int_Tables_number   1
_chemical_formula_structural   CdH14(C8N3)2
_chemical_formula_sum   'Cd2 H28 C32 N12'
_cell_volume   751.29365439
_cell_formula_units_Z   2
loop_
 _symmetry_equiv_pos_site_id
 _symmetry_equiv_pos_as_xyz
  1  'x, y, z'
loop_
 _atom_site_type_symbol
 _atom_site_label
 _atom_site_symmetry_multiplicity
 _atom_site_fract_x
 _atom_site_fract_y
 _atom_site_fract_z
 _atom_site_occupancy
 _atom_site_pbe_bader_spin_density
 _atom_site_pbe_cm5_charge
 _atom_site_pbe_ddec_charge
 _atom_site_pbe_ddec_spin_density
 _atom_site_pbe_ddec_sum_bond_order
 _atom_site_pbe_magmom
Cd  Cd0  1  0.99999995  0.99999992  0.49999936  1  0  0.759074  0.681937  0  2.355081  0
Cd  Cd1  1  0.50000013  0.00000002  0.99999997  1  0  0.75906  0.681898  0  2.355123  0
H  H2  1  0.73856149  0.28684007  0.43127879  1  0  0.096729  0.087286  0  1.074463  0
H  H3  1  0.23856016  0.71316092  0.06872110  1  0  0.096729  0.087281  0  1.074476  0
H  H4  1  0.26143999  0.71315975  0.56872143  1  0  0.096728  0.087269  0  1.074486  0
H  H5  1  0.76143881  0.28684107  0.93127815  1  0  0.096739  0.087276  0  1.074471  0
H  H6  1  0.51986106  0.28962128  0.21819950  1  0  0.098489  0.09024  0  1.040431  0
H  H7  1  0.01986094  0.71038077  0.28180041  1  0  0.098484  0.090259  0  1.040427  0
H  H8  1  0.48013916  0.71037962  0.78180072  1  0  0.098492  0.090269  0  1.040437  0
H  H9  1  0.98013928  0.28962013  0.71819981  1  0  0.098481  0.090261  0  1.040441  0
H  H10  1  0.87374520  0.95463776  0.17207030  1  0  0.112655  0.070412  0  1.042806  0
H  H11  1  0.37374500  0.04536324  0.32793055  1  0  0.112637  0.070379  0  1.042773  0
H  H12  1  0.12625376  0.04536314  0.82792992  1  0  0.112652  0.070405  0  1.042802  0
H  H13  1  0.62625522  0.95463658  0.67206967  1  0  0.112637  0.070388  0  1.04276  0
H  H14  1  0.64608221  0.88516848  0.35554822  1  0  0.114357  0.083237  0  1.040897  0
H  H15  1  0.14608080  0.11483142  0.14445168  1  0  0.114363  0.083244  0  1.04087  0
H  H16  1  0.35391926  0.11483134  0.64445200  1  0  0.114364  0.083245  0  1.040867  0
H  H17  1  0.85391816  0.88516840  0.85554854  1  0  0.114344  0.083224  0  1.040889  0
H  H18  1  0.43256177  0.69331760  0.35452300  1  0  0.105415  0.109655  0  1.063123  0
H  H19  1  0.93256065  0.30668232  0.14547783  1  0  0.105407  0.109644  0  1.063124  0
H  H20  1  0.56743971  0.30668222  0.64547721  1  0  0.105415  0.109644  0  1.063151  0
H  H21  1  0.06743831  0.69331859  0.85452239  1  0  0.105404  0.109648  0  1.063127  0
H  H22  1  0.73916653  0.46389817  0.63845435  1  0  0.101146  0.103348  0  1.053924  0
H  H23  1  0.23916637  0.53610156  0.86154620  1  0  0.101143  0.103363  0  1.053945  0
H  H24  1  0.26083370  0.53610165  0.36154587  1  0  0.101141  0.103348  0  1.053955  0
H  H25  1  0.76083259  0.46389826  0.13845401  1  0  0.101137  0.103339  0  1.053943  0
H  H26  1  0.93978975  0.66810825  0.62575996  1  0  0.110632  0.079045  0  1.028398  0
H  H27  1  0.43978958  0.33189042  0.87424057  1  0  0.11061  0.079017  0  1.028393  0
H  H28  1  0.06021173  0.33189049  0.37424026  1  0  0.110616  0.079025  0  1.028388  0
H  H29  1  0.56021064  0.66810832  0.12575964  1  0  0.110631  0.079043  0  1.028395  0
C  C30  1  0.73607212  0.21971992  0.34456727  1  0  -0.037748  -0.083289  0  4.08365  0
C  C31  1  0.23607203  0.78028107  0.15543261  1  0  -0.037776  -0.083311  0  4.08371  0
C  C32  1  0.26392810  0.78028099  0.65543295  1  0  -0.037754  -0.083262  0  4.083685  0
C  C33  1  0.76392819  0.21971983  0.84456761  1  0  -0.03778  -0.083253  0  4.083688  0
C  C34  1  0.62725525  0.22065330  0.23880135  1  0  -0.038012  -0.08034  0  4.07754  0
C  C35  1  0.12725514  0.77934768  0.26119854  1  0  -0.037996  -0.080348  0  4.077552  0
C  C36  1  0.37274623  0.77934652  0.76119886  1  0  -0.03802  -0.080389  0  4.077544  0
C  C37  1  0.87274508  0.22065322  0.73880168  1  0  -0.038009  -0.080397  0  4.077635  0
C  C38  1  0.80713700  0.04675488  0.21305644  1  0  0.099028  0.121803  0  4.039656  0
C  C39  1  0.30713691  0.95324503  0.28694343  1  0  0.099064  0.121893  0  4.0396  0
C  C40  1  0.19286322  0.95324494  0.78694378  1  0  0.099025  0.121825  0  4.039676  0
C  C41  1  0.69286332  0.04675587  0.71305581  1  0  0.099068  0.121896  0  4.039596  0
C  C42  1  0.66264870  0.78966847  0.41689221  1  0  0.047322  0.094242  0  3.946328  0
C  C43  1  0.16264857  0.21033251  0.08310768  1  0  0.04732  0.094252  0  3.94641  0
C  C44  1  0.33735277  0.21033243  0.58310801  1  0  0.04734  0.094304  0  3.946403  0
C  C45  1  0.83735165  0.78966839  0.91689254  1  0  0.047323  0.094246  0  3.94631  0
C  C46  1  0.54251830  0.68015412  0.41679087  1  0  -0.07966  -0.166427  0  3.928833  0
C  C47  1  0.04251944  0.31984577  0.08320904  1  0  -0.079629  -0.166403  0  3.929006  0
C  C48  1  0.45748067  0.31984570  0.58320935  1  0  -0.079641  -0.16643  0  3.929127  0
C  C49  1  0.95748204  0.68015405  0.91679021  1  0  -0.079621  -0.16639  0  3.928893  0
C  C50  1  0.56378680  0.55845641  0.49734048  1  0  0.01182  0.102679  0  3.949605  0
C  C51  1  0.06378671  0.44154348  0.00266040  1  0  0.01183  0.102721  0  3.949684  0
C  C52  1  0.43621342  0.44154449  0.50266072  1  0  0.011823  0.102703  0  3.949682  0
C  C53  1  0.93621351  0.55845634  0.99733981  1  0  0.01182  0.102679  0  3.949609  0
C  C54  1  0.71122865  0.55438477  0.57349579  1  0  -0.084552  -0.169927  0  3.931041  0
C  C55  1  0.21122847  0.44561496  0.92650379  1  0  -0.084573  -0.170018  0  3.931103  0
C  C56  1  0.28877157  0.44561505  0.42650345  1  0  -0.084557  -0.169964  0  3.931029  0
C  C57  1  0.78877175  0.55438594  0.07349642  1  0  -0.084559  -0.169956  0  3.931064  0
C  C58  1  0.82529222  0.66846837  0.56688750  1  0  0.04248  0.087034  0  3.965474  0
C  C59  1  0.32529329  0.33153029  0.93311207  1  0  0.042504  0.087088  0  3.965383  0
C  C60  1  0.17470674  0.33153145  0.43311272  1  0  0.042496  0.087084  0  3.965374  0
C  C61  1  0.67470693  0.66846845  0.06688717  1  0  0.042475  0.087033  0  3.965431  0
N  N62  1  0.85024386  0.10897383  0.32777575  1  0  -0.382614  -0.325815  0  3.512558  0
N  N63  1  0.35024504  0.89102609  0.17222510  1  0  -0.382601  -0.325828  0  3.512552  0
N  N64  1  0.14975511  0.89102708  0.67222447  1  0  -0.382578  -0.325807  0  3.512534  0
N  N65  1  0.64975518  0.10897373  0.82777512  1  0  -0.382593  -0.325841  0  3.512519  0
N  N66  1  0.67326786  0.11005388  0.15542913  1  0  -0.379984  -0.317242  0  3.513004  0
N  N67  1  0.17326775  0.88994710  0.34457076  1  0  -0.379996  -0.317273  0  3.513073  0
N  N68  1  0.32673110  0.88994702  0.84457109  1  0  -0.379995  -0.317253  0  3.513021  0
N  N69  1  0.82673122  0.11005380  0.65542946  1  0  -0.380001  -0.317287  0  3.513107  0
N  N70  1  0.80247650  0.78539643  0.49045696  1  0  -0.317043  -0.226903  0  3.43181  0
N  N71  1  0.30247639  0.21460348  0.00954292  1  0  -0.317049  -0.226908  0  3.431796  0
N  N72  1  0.19752372  0.21460339  0.50954326  1  0  -0.317067  -0.226969  0  3.431779  0
N  N73  1  0.69752383  0.78539634  0.99045633  1  0  -0.317041  -0.226885  0  3.431744  0
