# generated using pymatgen
data_CuH22C24(NO)4
_symmetry_space_group_name_H-M   'P 1'
_cell_length_a   12.33744581
_cell_length_b   17.04881558
_cell_length_c   17.04837999
_cell_angle_alpha   82.49791214
_cell_angle_beta   68.77903723
_cell_angle_gamma   68.78579884
_symmetry_Int_Tables_number   1
_chemical_formula_structural   CuH22C24(NO)4
_chemical_formula_sum   'Cu4 H88 C96 N16 O16'
_cell_volume   3116.25256383
_cell_formula_units_Z   4
loop_
 _symmetry_equiv_pos_site_id
 _symmetry_equiv_pos_as_xyz
  1  'x, y, z'
loop_
 _atom_site_type_symbol
 _atom_site_label
 _atom_site_symmetry_multiplicity
 _atom_site_fract_x
 _atom_site_fract_y
 _atom_site_fract_z
 _atom_site_occupancy
 _atom_site_pbe_bader_charge
 _atom_site_pbe_bader_spin_density
 _atom_site_pbe_cm5_charge
 _atom_site_pbe_ddec_charge
 _atom_site_pbe_ddec_spin_density
 _atom_site_pbe_ddec_sum_bond_order
 _atom_site_pbe_magmom
Cu  Cu0  1  0.49999858  0.50000227  0.50000101  1  1.058138  0.566758  0.752899  0.746235  0.726497  2.248181  0.567
Cu  Cu1  1  0.00000133  0.49999865  0.00000118  1  1.061497  0.566429  0.753113  0.745611  0.726245  2.247407  0.566
Cu  Cu2  1  0.00000058  0.00000001  0.49999819  1  1.06007  0.566797  0.753512  0.746503  0.726654  2.2465  0.567
Cu  Cu3  1  0.00000376  1.00000000  0.99999967  1  1.062097  0.566832  0.753304  0.746706  0.726729  2.248072  0.567
H  H4  1  0.62329617  0.54208045  0.33318989  1  0.526223  -1.5e-05  0.346787  0.296707  -0.000188  0.907986  0.0
H  H5  1  0.95658645  0.66668279  0.04215812  1  0.503974  -1.2e-05  0.347206  0.296932  -0.000188  0.909163  0.0
H  H6  1  0.16539887  0.83326272  0.45783673  1  0.516766  -1.8e-05  0.346728  0.295868  -0.000189  0.907148  0.0
H  H7  1  0.99842192  0.95806478  0.16676519  1  0.524198  -1.5e-05  0.347097  0.296149  -0.000188  0.908738  0.0
H  H8  1  0.37670781  0.45791717  0.66680776  1  0.526283  -1.5e-05  0.346814  0.296782  -0.000188  0.907982  0.0
H  H9  1  0.04341163  0.33331420  0.95784685  1  0.503974  -1.2e-05  0.347235  0.296982  -0.000188  0.909075  0.0
H  H10  1  0.83460080  0.16673679  0.54215905  1  0.516739  -1.8e-05  0.346704  0.295867  -0.000189  0.907143  0.0
H  H11  1  0.00158631  0.04193662  0.83323682  1  0.524206  -1.5e-05  0.347086  0.296193  -0.000188  0.90871  0.0
H  H12  1  0.80607902  0.57815752  0.21115770  1  0.096207  -0.000103  0.101147  0.159253  -7.9e-05  1.007185  0.0
H  H13  1  0.01758661  0.78855554  0.07831294  1  0.096298  -0.000102  0.101201  0.159423  -7.8e-05  1.005563  0.0
H  H14  1  0.38445184  0.71126415  0.42178226  1  0.096157  -0.000102  0.101149  0.159213  -7.8e-05  1.00596  0.0
H  H15  1  0.09506865  0.92224818  0.28873749  1  0.127132  -0.000101  0.101199  0.159288  -7.9e-05  1.006266  0.0
H  H16  1  0.19392080  0.42183695  0.78883964  1  0.096343  -0.000103  0.101097  0.159232  -7.9e-05  1.007303  0.0
H  H17  1  0.98241453  0.21144711  0.92168773  1  0.096307  -0.000102  0.101213  0.159446  -7.8e-05  1.005531  0.0
H  H18  1  0.61555342  0.28873661  0.57821244  1  0.096101  -0.000102  0.101152  0.159244  -7.8e-05  1.005997  0.0
H  H19  1  0.90493267  0.07774755  0.71126210  1  0.127054  -0.000101  0.101229  0.159335  -7.9e-05  1.006199  0.0
H  H20  1  0.86686747  0.64717076  0.23825653  1  0.062869  0.000227  0.094153  0.13298  0.000106  1.042538  0.0
H  H21  1  0.10542883  0.76138594  0.14731621  1  0.052727  0.000227  0.094242  0.13388  0.000105  1.042104  0.0
H  H22  1  0.51419554  0.73839008  0.35278441  1  0.037796  0.000233  0.094755  0.134644  0.000107  1.041576  0.0
H  H23  1  0.25198170  0.85340774  0.26175946  1  0.068993  0.000222  0.094829  0.134677  0.000105  1.041549  0.0
H  H24  1  0.13313179  0.35282875  0.76173522  1  0.063434  0.000227  0.094168  0.132966  0.000106  1.042584  0.0
H  H25  1  0.89456643  0.23861735  0.85268575  1  0.052728  0.000227  0.094238  0.133877  0.000105  1.042082  0.0
H  H26  1  0.48580637  0.26161446  0.64720825  1  0.037511  0.000233  0.094715  0.134656  0.000107  1.041578  0.0
H  H27  1  0.74801904  0.14658737  0.73824374  1  0.069034  0.000222  0.09483  0.13467  0.000105  1.041641  0.0
H  H28  1  0.72404408  0.68805318  0.21977269  1  0.058995  -0.000233  0.093812  0.134622  -0.000201  1.013353  0.0
H  H29  1  0.94403594  0.78020365  0.18823158  1  0.070545  -0.000231  0.093657  0.134827  -0.0002  1.014457  0.0
H  H30  1  0.41239391  0.71977045  0.31187211  1  0.054539  -0.000233  0.093526  0.13488  -0.0002  1.014829  0.0
H  H31  1  0.13172361  0.81230700  0.28050839  1  0.065652  -0.000233  0.094047  0.13577  -0.000201  1.013291  0.0
H  H32  1  0.27595041  0.31194066  0.78022514  1  0.059061  -0.000233  0.093825  0.134613  -0.000201  1.013383  0.0
H  H33  1  0.05596299  0.21979523  0.81176619  1  0.070652  -0.000231  0.093642  0.134809  -0.0002  1.014447  0.0
H  H34  1  0.58760633  0.28023284  0.68812292  1  0.054847  -0.000233  0.093554  0.134945  -0.0002  1.014804  0.0
H  H35  1  0.86827829  0.18768874  0.71949061  1  0.065635  -0.000233  0.094047  0.135746  -0.000201  1.013376  0.0
H  H36  1  0.49512356  0.64666714  0.60245866  1  0.103001  4.7e-05  0.103297  0.152277  -5.1e-05  0.984573  0.0
H  H37  1  0.09769413  0.39735740  0.14620279  1  0.075293  4.2e-05  0.103804  0.152993  -5.4e-05  0.984587  0.0
H  H38  1  0.14173660  0.10259387  0.35389328  1  0.094878  4.8e-05  0.103367  0.152583  -5.1e-05  0.983915  0.0
H  H39  1  0.24455464  0.85391501  0.89743991  1  0.053198  4.4e-05  0.102973  0.151487  -5.3e-05  0.983033  0.0
H  H40  1  0.50488648  0.35333111  0.39753953  1  0.102831  4.7e-05  0.103289  0.152244  -5.1e-05  0.984585  0.0
H  H41  1  0.90230520  0.60264526  0.85379885  1  0.075217  4.2e-05  0.103811  0.153016  -5.4e-05  0.984674  0.0
H  H42  1  0.85826108  0.89740438  0.64609541  1  0.095077  4.8e-05  0.103371  0.152656  -5.2e-05  0.983857  0.0
H  H43  1  0.75544848  0.14607632  0.10256189  1  0.05312  4.4e-05  0.102991  0.151593  -5.3e-05  0.983139  0.0
H  H44  1  0.57989116  0.71804366  0.57451013  1  0.037279  -0.000192  0.0966  0.137972  -0.000154  0.990954  0.0
H  H45  1  0.15447482  0.42501025  0.21778415  1  0.050727  -0.000192  0.097041  0.138416  -0.000154  0.99084  0.0
H  H46  1  0.29786020  0.07477343  0.28234167  1  0.047515  -0.000191  0.097043  0.138249  -0.000154  0.99109  0.0
H  H47  1  0.37271315  0.78241052  0.92534304  1  0.045225  -0.000191  0.096774  0.137576  -0.000154  0.990771  0.0
H  H48  1  0.42011935  0.28195333  0.42548645  1  0.037305  -0.000192  0.096606  0.137957  -0.000154  0.99101  0.0
H  H49  1  0.84552848  0.57498989  0.78221915  1  0.050789  -0.000191  0.097038  0.138421  -0.000154  0.990913  0.0
H  H50  1  0.70213839  0.92522105  0.71764982  1  0.047638  -0.000191  0.097011  0.138276  -0.000154  0.99106  0.0
H  H51  1  0.62728657  0.21758270  0.07465951  1  0.045276  -0.000191  0.096799  0.137615  -0.000154  0.990622  0.0
H  H52  1  0.64914134  0.61219019  0.60146079  1  0.052723  -0.000295  0.095946  0.136863  -0.000266  1.005081  0.0
H  H53  1  0.25064384  0.39841092  0.11182666  1  0.055768  -0.000295  0.095892  0.137  -0.000266  1.004128  0.0
H  H54  1  0.26144011  0.10128615  0.38833803  1  0.057836  -0.000296  0.09623  0.137394  -0.000266  1.003936  0.0
H  H55  1  0.36296829  0.88832658  0.89874515  1  0.052106  -0.000297  0.095758  0.136209  -0.000267  1.006262  0.0
H  H56  1  0.35086795  0.38780743  0.39853315  1  0.053105  -0.000295  0.095955  0.136876  -0.000266  1.005149  0.0
H  H57  1  0.74936075  0.60158859  0.88817385  1  0.055793  -0.000295  0.095887  0.136989  -0.000266  1.004151  0.0
H  H58  1  0.73855299  0.89871650  0.61165222  1  0.057579  -0.000296  0.096269  0.137533  -0.000266  1.003988  0.0
H  H59  1  0.63703612  0.11166412  0.10125385  1  0.051977  -0.000297  0.09575  0.136226  -0.000267  1.006214  0.0
H  H60  1  0.83229290  0.65873667  0.51307702  1  0.070949  6.8e-05  0.105202  0.109755  2.6e-05  0.990342  0.0
H  H61  1  0.34473229  0.48643015  0.15931248  1  0.041562  6.9e-05  0.105344  0.11015  2.6e-05  0.990503  0.0
H  H62  1  0.49049996  0.01366980  0.34059927  1  0.046648  6.9e-05  0.105101  0.110122  2.6e-05  0.990901  0.0
H  H63  1  0.50434310  0.84117319  0.98719968  1  0.052756  6.9e-05  0.105178  0.109767  2.6e-05  0.991014  0.0
H  H64  1  0.16770730  0.34126472  0.48691457  1  0.070619  6.8e-05  0.105223  0.109741  2.6e-05  0.9903  0.0
H  H65  1  0.65527910  0.51357376  0.84068941  1  0.041463  6.9e-05  0.105392  0.110263  2.6e-05  0.990646  0.0
H  H66  1  0.50949555  0.98633412  0.65939587  1  0.046593  6.9e-05  0.105112  0.110109  2.6e-05  0.990917  0.0
H  H67  1  0.49566450  0.15881688  0.01280259  1  0.052545  6.9e-05  0.105181  0.109833  2.6e-05  0.990888  0.0
H  H68  1  0.91978235  0.76557646  0.52441551  1  0.083495  0.000661  0.106695  0.111986  0.000526  0.994542  0.0
H  H69  1  0.44357328  0.47533753  0.26607980  1  0.10548  0.000644  0.106368  0.111701  0.000526  0.995767  0.0
H  H70  1  0.68491887  0.02479684  0.23374453  1  0.101679  0.000656  0.107025  0.112876  0.000525  0.994873  0.0
H  H71  1  0.70973965  0.73412756  0.97608318  1  0.075428  0.000667  0.106736  0.112034  0.000528  0.996301  0.0
H  H72  1  0.08021319  0.23442493  0.47558000  1  0.083331  0.000661  0.106728  0.112103  0.000526  0.994586  0.0
H  H73  1  0.55642220  0.52467205  0.73393028  1  0.105328  0.000644  0.106356  0.111695  0.000526  0.995694  0.0
H  H74  1  0.31507939  0.97520519  0.76625587  1  0.101724  0.000656  0.106994  0.112819  0.000525  0.994862  0.0
H  H75  1  0.29026593  0.26586378  0.02392410  1  0.075269  0.000667  0.10672  0.111969  0.000528  0.996456  0.0
H  H76  1  0.80411768  0.90767776  0.32427076  1  0.091897  4.1e-05  0.099961  0.104041  -1e-05  1.023771  0.0
H  H77  1  0.12784697  0.67585711  0.40794184  1  0.109537  4.1e-05  0.099489  0.103363  -9e-06  1.025751  0.0
H  H78  1  0.71190427  0.82394946  0.09218879  1  0.113376  4e-05  0.099918  0.104279  -1e-05  1.024907  0.0
H  H79  1  0.53517153  0.59242743  0.17627179  1  0.091467  4.1e-05  0.099898  0.103823  -9e-06  1.024823  0.0
H  H80  1  0.19587080  0.09232993  0.67572970  1  0.091917  4.1e-05  0.099934  0.104062  -1e-05  1.023879  0.0
H  H81  1  0.87213811  0.32414869  0.59205954  1  0.109525  4.1e-05  0.099461  0.103335  -9e-06  1.025673  0.0
H  H82  1  0.28810868  0.17604627  0.90781305  1  0.113742  4e-05  0.099908  0.104259  -1e-05  1.024949  0.0
H  H83  1  0.46482459  0.40756956  0.82373877  1  0.091663  4.1e-05  0.099862  0.103723  -9e-06  1.024843  0.0
H  H84  1  0.71481500  0.80207861  0.31240429  1  0.072328  0.000204  0.096987  0.099501  9.4e-05  1.042101  0.0
H  H85  1  0.02674770  0.68749491  0.30240793  1  0.071703  0.000205  0.096298  0.098244  9.4e-05  1.043726  0.0
H  H86  1  0.51689728  0.81231186  0.19776338  1  0.060351  0.000206  0.096489  0.099391  9.4e-05  1.042669  0.0
H  H87  1  0.32869075  0.69814748  0.18778803  1  0.106938  0.000202  0.096257  0.098454  9.4e-05  1.041937  0.0
H  H88  1  0.28517417  0.19792719  0.68759376  1  0.072208  0.000204  0.096989  0.099444  9.4e-05  1.042187  0.0
H  H89  1  0.97324833  0.31250648  0.69758619  1  0.071806  0.000205  0.096323  0.098317  9.4e-05  1.043723  0.0
H  H90  1  0.48311539  0.18768262  0.80223583  1  0.060208  0.000206  0.096435  0.099322  9.4e-05  1.042675  0.0
H  H91  1  0.67130949  0.30185140  0.81221640  1  0.106926  0.000202  0.096244  0.098469  9.4e-05  1.04188  0.0
C  C92  1  0.71747379  0.62478045  0.33758742  1  0.355521  -0.000903  0.111233  0.228839  -0.001092  3.98024  0.0
C  C93  1  0.05497820  0.66221309  0.12502891  1  0.421095  -0.000909  0.111815  0.228186  -0.001098  3.980031  0.0
C  C94  1  0.34235773  0.83763811  0.37514511  1  0.376518  -0.000907  0.111665  0.227572  -0.001083  3.984103  0.0
C  C95  1  0.17966143  0.87534848  0.16246535  1  0.407689  -0.000922  0.110766  0.224759  -0.001104  3.986109  0.0
C  C96  1  0.28252955  0.37521780  0.66240702  1  0.355085  -0.000903  0.11129  0.22896  -0.001092  3.980273  0.0
C  C97  1  0.94502628  0.33778956  0.87496741  1  0.42118  -0.000909  0.111814  0.228203  -0.001098  3.979908  0.0
C  C98  1  0.65764148  0.16236266  0.62485228  1  0.376258  -0.000907  0.111652  0.227673  -0.001083  3.983822  0.0
C  C99  1  0.82034421  0.12465040  0.83753617  1  0.40741  -0.000922  0.110803  0.224795  -0.001104  3.985996  0.0
C  C100  1  0.70950987  0.66173881  0.40922344  1  0.054641  0.003342  -0.031788  -0.18403  0.002201  4.011246  0.003
C  C101  1  0.11845895  0.59055453  0.16202651  1  -0.017154  0.003336  -0.032383  -0.183994  0.002197  4.011406  0.003
C  C102  1  0.37126473  0.90927967  0.33813853  1  0.059607  0.003327  -0.032364  -0.185723  0.0022  4.01215  0.003
C  C103  1  0.28036890  0.83837752  0.09085576  1  -0.005813  0.003356  -0.032935  -0.184612  0.0022  4.011733  0.003
C  C104  1  0.29049268  0.33826133  0.59077260  1  0.054991  0.003343  -0.031807  -0.184093  0.002201  4.011229  0.003
C  C105  1  0.88154761  0.40944938  0.83797147  1  -0.017699  0.003336  -0.032304  -0.183786  0.002197  4.011549  0.003
C  C106  1  0.62873229  0.09072173  0.66185903  1  0.05966  0.003326  -0.032324  -0.185571  0.002199  4.012016  0.003
C  C107  1  0.71963738  0.16161633  0.90914592  1  -0.006121  0.003356  -0.032899  -0.184509  0.002199  4.011502  0.003
C  C108  1  0.63095786  0.62996173  0.47885561  1  0.458299  0.001114  0.11122  0.233725  0.000509  3.963337  0.002
C  C109  1  0.10971495  0.52095967  0.13002605  1  0.480521  0.001073  0.110846  0.233689  0.000512  3.962587  0.002
C  C110  1  0.26091395  0.97889611  0.37009278  1  0.446225  0.00113  0.110654  0.234759  0.000508  3.963811  0.002
C  C111  1  0.23982953  0.87023911  0.02118415  1  0.458926  0.00109  0.111063  0.23398  0.000508  3.963381  0.002
C  C112  1  0.36904669  0.37003589  0.52114146  1  0.458276  0.001115  0.111309  0.233987  0.00051  3.963115  0.002
C  C113  1  0.89029024  0.47904110  0.86997408  1  0.480238  0.001074  0.110848  0.2337  0.000512  3.962928  0.002
C  C114  1  0.73907865  0.02110528  0.62990488  1  0.445965  0.001132  0.11062  0.234714  0.000509  3.963774  0.002
C  C115  1  0.76017464  0.12975600  0.97881550  1  0.458896  0.001091  0.111115  0.234034  0.000509  3.963332  0.002
C  C116  1  0.78220828  0.63466326  0.24683641  1  -0.049172  0.000659  -0.239039  -0.437292  0.000366  3.942247  0.001
C  C117  1  0.02923657  0.75294803  0.13485429  1  -0.043566  0.000654  -0.23856  -0.437748  0.000367  3.942721  0.001
C  C118  1  0.41706420  0.74690785  0.36527038  1  -0.028394  0.000658  -0.239313  -0.439099  0.000366  3.944561  0.001
C  C119  1  0.16345655  0.86568303  0.25322452  1  -0.090584  0.000658  -0.239749  -0.439265  0.000366  3.943784  0.001
C  C120  1  0.21779109  0.36533310  0.75315953  1  -0.04983  0.00066  -0.239042  -0.437295  0.000366  3.942406  0.001
C  C121  1  0.97076378  0.24705211  0.86514493  1  -0.043653  0.000654  -0.238562  -0.437752  0.000367  3.942563  0.001
C  C122  1  0.58293984  0.25309291  0.63472470  1  -0.028395  0.000658  -0.239275  -0.439235  0.000366  3.944524  0.001
C  C123  1  0.83654599  0.13431208  0.74677771  1  -0.090655  0.000659  -0.239785  -0.439302  0.000366  3.943977  0.001
C  C124  1  0.58595565  0.65295495  0.56928525  1  -0.049799  0.000273  -0.232612  -0.426297  -2.5e-05  3.964073  0.0
C  C125  1  0.15527698  0.43047009  0.15270582  1  -0.060003  0.000277  -0.233498  -0.427777  -2.5e-05  3.964323  0.0
C  C126  1  0.23891627  0.06935804  0.34740808  1  -0.050533  0.000271  -0.233292  -0.427747  -2.6e-05  3.963046  0.0
C  C127  1  0.30842270  0.84748268  0.93070226  1  0.002346  0.000275  -0.232161  -0.42427  -2.5e-05  3.962218  0.0
C  C128  1  0.41405341  0.34704330  0.43070951  1  -0.050138  0.000273  -0.232642  -0.42634  -2.5e-05  3.964199  0.0
C  C129  1  0.84472555  0.56953257  0.84729608  1  -0.059711  0.000277  -0.233494  -0.427809  -2.5e-05  3.964458  0.0
C  C130  1  0.76107892  0.93064210  0.65258400  1  -0.050543  0.000271  -0.233293  -0.428034  -2.6e-05  3.963167  0.0
C  C131  1  0.69158102  0.15250991  0.06929916  1  0.002471  0.000275  -0.232216  -0.424462  -2.5e-05  3.962193  0.0
C  C132  1  0.76636265  0.72276774  0.41247561  1  -0.008049  0.00063  -0.003983  0.11158  0.000323  4.024302  0.001
C  C133  1  0.17836277  0.58730179  0.22317325  1  -0.011945  0.000627  -0.003798  0.110655  0.000324  4.027861  0.001
C  C134  1  0.48904085  0.91255255  0.27696853  1  -0.047817  0.000631  -0.003264  0.114651  0.000325  4.024776  0.001
C  C135  1  0.40139796  0.77726936  0.08771892  1  -0.003967  0.000614  -0.003369  0.11243  0.000318  4.024417  0.001
C  C136  1  0.23363466  0.27723618  0.58751856  1  -0.007549  0.00063  -0.00407  0.111448  0.000323  4.024506  0.001
C  C137  1  0.82164171  0.41270024  0.77682608  1  -0.011353  0.000627  -0.003766  0.110573  0.000324  4.027818  0.001
C  C138  1  0.51096056  0.08744759  0.72302870  1  -0.047937  0.00063  -0.00325  0.114563  0.000325  4.024934  0.001
C  C139  1  0.59860343  0.22272575  0.91228449  1  -0.00418  0.000614  -0.003446  0.112316  0.000318  4.024505  0.001
C  C140  1  0.82479715  0.71370598  0.47203159  1  -0.015257  0.000519  -0.089872  -0.138879  0.000255  3.976044  0.0
C  C141  1  0.29628554  0.52766205  0.21417916  1  -0.011644  0.000512  -0.090623  -0.140609  0.000251  3.973924  0.0
C  C142  1  0.53823210  0.97230749  0.28581257  1  -0.027261  0.000513  -0.090229  -0.141254  0.000252  3.978323  0.0
C  C143  1  0.51049810  0.78622238  0.02826963  1  0.002868  0.000512  -0.089619  -0.139072  0.000252  3.976504  0.0
C  C144  1  0.17520108  0.28629478  0.52796236  1  -0.014702  0.000519  -0.089861  -0.138686  0.000255  3.976044  0.0
C  C145  1  0.70371586  0.47234564  0.78582398  1  -0.012078  0.000512  -0.0907  -0.14078  0.000251  3.974067  0.0
C  C146  1  0.46176643  0.02769579  0.71418423  1  -0.027351  0.000513  -0.090289  -0.141349  0.000252  3.978503  0.0
C  C147  1  0.48950579  0.21377084  0.97173663  1  0.0033  0.000512  -0.089611  -0.139185  0.000252  3.976391  0.0
C  C148  1  0.87470944  0.77300852  0.47814641  1  -0.102228  0.000304  -0.08653  -0.097779  0.000151  4.00538  0.0
C  C149  1  0.35229471  0.52167822  0.27345289  1  -0.107386  0.000327  -0.085703  -0.096001  0.000152  4.001546  0.0
C  C150  1  0.64749394  0.97834174  0.22648361  1  -0.085751  0.000334  -0.086924  -0.098691  0.000156  4.005885  0.0
C  C151  1  0.62571162  0.72680987  0.02229524  1  -0.0704  0.000309  -0.086991  -0.098967  0.00015  4.005783  0.0
C  C152  1  0.12528524  0.22699477  0.52184991  1  -0.102473  0.000305  -0.086556  -0.098085  0.000151  4.00546  0.0
C  C153  1  0.64770370  0.47832695  0.72655197  1  -0.107285  0.000326  -0.085692  -0.095978  0.000152  4.001429  0.0
C  C154  1  0.35250873  0.02165966  0.77351345  1  -0.085624  0.000334  -0.086811  -0.09848  0.000156  4.005834  0.0
C  C155  1  0.37429028  0.27318523  0.97771301  1  -0.070106  0.000308  -0.086901  -0.098635  0.00015  4.005775  0.0
C  C156  1  0.86747171  0.84334281  0.42486459  1  -0.004053  0.009575  -0.023413  -0.040797  0.006693  3.979492  0.007
C  C157  1  0.29184934  0.57517352  0.34368051  1  -0.026428  0.009584  -0.024806  -0.043414  0.006685  3.980426  0.007
C  C158  1  0.71085022  0.92473633  0.15632941  1  -0.044222  0.009557  -0.024187  -0.041516  0.006684  3.978669  0.007
C  C159  1  0.63530011  0.65650577  0.07563031  1  -0.054428  0.009621  -0.024258  -0.039625  0.006719  3.977722  0.008
C  C160  1  0.13252286  0.15665921  0.57513071  1  -0.004544  0.009575  -0.02332  -0.040555  0.006693  3.979025  0.007
C  C161  1  0.70813957  0.42483543  0.65632420  1  -0.026201  0.009583  -0.024798  -0.043368  0.006684  3.980421  0.007
C  C162  1  0.28915261  0.07526507  0.84366927  1  -0.044141  0.009557  -0.024184  -0.041473  0.006684  3.978548  0.007
C  C163  1  0.36469861  0.34348997  0.92438089  1  -0.054528  0.009619  -0.02439  -0.04009  0.006719  3.977845  0.008
C  C164  1  0.81105493  0.85219611  0.36455558  1  -0.075815  0.000751  -0.087311  -0.09251  0.000279  3.987896  0.001
C  C165  1  0.17512159  0.63547638  0.35250548  1  -0.05367  0.00072  -0.086742  -0.091276  0.000281  3.988961  0.001
C  C166  1  0.66331499  0.86437613  0.14758708  1  -0.036451  0.000713  -0.087035  -0.092198  0.000282  3.988375  0.001
C  C167  1  0.52724713  0.64780775  0.13586374  1  -0.016372  0.000714  -0.087285  -0.093624  0.000281  3.988276  0.001
C  C168  1  0.18893323  0.14780843  0.63544504  1  -0.075832  0.000751  -0.087372  -0.092699  0.000279  3.987851  0.001
C  C169  1  0.82486360  0.36453068  0.64749692  1  -0.048881  0.000717  -0.08667  -0.091231  0.000281  3.988964  0.001
C  C170  1  0.33669350  0.13562212  0.85241449  1  -0.037059  0.000712  -0.087075  -0.09226  0.000282  3.988162  0.001
C  C171  1  0.47274954  0.35218798  0.86414601  1  -0.016041  0.000713  -0.087175  -0.093218  0.000281  3.988204  0.001
C  C172  1  0.76143924  0.79276579  0.35815551  1  -0.060204  0.001328  -0.09462  -0.147026  0.000854  3.971834  0.001
C  C173  1  0.11912494  0.64176155  0.29310846  1  -0.056839  0.001319  -0.094194  -0.14547  0.000852  3.973943  0.001
C  C174  1  0.55423126  0.85806758  0.20704931  1  -0.014171  0.001327  -0.094565  -0.148653  0.000855  3.97289  0.001
C  C175  1  0.41191500  0.70732854  0.14211614  1  -0.111786  0.001334  -0.093518  -0.144897  0.000855  3.96926  0.001
C  C176  1  0.23855564  0.20723938  0.64183963  1  -0.060337  0.001328  -0.094583  -0.146898  0.000854  3.971764  0.001
C  C177  1  0.88087512  0.35824110  0.70688797  1  -0.061607  0.001321  -0.094302  -0.145623  0.000852  3.974086  0.001
C  C178  1  0.44577469  0.14193004  0.79294899  1  -0.013792  0.001328  -0.094517  -0.148531  0.000856  3.972806  0.001
C  C179  1  0.58808360  0.29266971  0.85789388  1  -0.11165  0.001334  -0.093494  -0.144978  0.000854  3.969446  0.001
C  C180  1  0.91436260  0.91056107  0.43327040  1  1.545887  -0.001361  0.189241  0.549397  -0.001977  4.232887  -0.003
C  C181  1  0.34729412  0.56695227  0.41077990  1  1.55556  -0.001353  0.190466  0.551932  -0.001967  4.23274  -0.003
C  C182  1  0.82517507  0.93292934  0.08922245  1  1.544329  -0.001301  0.190438  0.553911  -0.001964  4.232556  -0.003
C  C183  1  0.75779867  0.58927376  0.06728878  1  1.547318  -0.001306  0.190096  0.550785  -0.001961  4.235686  -0.003
C  C184  1  0.08562874  0.08944284  0.56672726  1  1.546497  -0.001359  0.18922  0.549422  -0.001977  4.232569  -0.003
C  C185  1  0.65268708  0.43305542  0.58922986  1  1.555519  -0.001353  0.190507  0.552035  -0.001969  4.232345  -0.003
C  C186  1  0.17482767  0.06707206  0.91077542  1  1.544268  -0.001301  0.190405  0.553917  -0.001963  4.232738  -0.003
C  C187  1  0.24220034  0.41072009  0.93272220  1  1.547526  -0.001305  0.190126  0.550878  -0.001962  4.235413  -0.003
N  N188  1  0.64879553  0.57410917  0.36591999  1  -0.821382  0.00241  -0.283216  -0.141865  0.000972  3.687002  0.001
N  N189  1  0.01474665  0.63395030  0.07422410  1  -0.802398  0.002391  -0.284492  -0.141826  0.000968  3.686814  0.001
N  N190  1  0.22299199  0.86595233  0.42584709  1  -0.829506  0.00243  -0.283442  -0.13847  0.000969  3.685128  0.001
N  N191  1  0.08868647  0.92597179  0.13409815  1  -0.831609  0.0024  -0.283527  -0.138628  0.000972  3.688578  0.001
N  N192  1  0.35120890  0.42588657  0.63407906  1  -0.821923  0.00241  -0.283206  -0.141919  0.000971  3.687054  0.001
N  N193  1  0.98525697  0.36604984  0.92577619  1  -0.802428  0.002391  -0.284594  -0.142002  0.000967  3.686792  0.001
N  N194  1  0.77700851  0.13404718  0.57415052  1  -0.829168  0.002429  -0.283401  -0.138543  0.000969  3.685131  0.001
N  N195  1  0.91132099  0.07402835  0.86590262  1  -0.831228  0.0024  -0.283543  -0.138669  0.000972  3.688608  0.001
N  N196  1  0.59436966  0.57714711  0.45069469  1  -0.726354  0.073236  -0.278106  -0.232912  0.049699  3.535065  0.065
N  N197  1  0.04510185  0.54917736  0.07716490  1  -0.733837  0.073239  -0.276936  -0.231574  0.049652  3.534175  0.064
N  N198  1  0.17155681  0.95072289  0.42287334  1  -0.728529  0.073183  -0.277794  -0.234098  0.049675  3.536805  0.064
N  N199  1  0.12224298  0.92301264  0.04930890  1  -0.733734  0.073299  -0.276975  -0.23222  0.049695  3.534697  0.065
N  N200  1  0.40563343  0.42285114  0.54930356  1  -0.725824  0.073234  -0.278166  -0.233113  0.049698  3.535119  0.065
N  N201  1  0.95490186  0.45082277  0.92283619  1  -0.7336  0.07324  -0.276919  -0.231551  0.049655  3.534381  0.064
N  N202  1  0.82844018  0.04927725  0.57712400  1  -0.728439  0.073182  -0.277842  -0.234097  0.049673  3.536774  0.064
N  N203  1  0.87776506  0.07698750  0.95069128  1  -0.733708  0.073301  -0.277105  -0.232402  0.049697  3.5349  0.065
O  O204  1  0.97328194  0.89432145  0.48703622  1  -1.114899  0.122997  -0.337002  -0.565462  0.078007  2.314268  0.11
O  O205  1  0.45989394  0.51299493  0.39455427  1  -1.124687  0.122988  -0.337388  -0.56652  0.078006  2.315043  0.11
O  O206  1  0.86750637  0.98693592  0.10542087  1  -1.121032  0.122886  -0.338  -0.568666  0.077986  2.317621  0.11
O  O207  1  0.85419747  0.60542730  0.01329027  1  -1.120676  0.123129  -0.337772  -0.567437  0.078116  2.317794  0.11
O  O208  1  0.02671822  0.10567806  0.51295816  1  -1.114963  0.122984  -0.337043  -0.565467  0.078001  2.314076  0.11
O  O209  1  0.54009119  0.48701716  0.60545361  1  -1.124619  0.122973  -0.337505  -0.566668  0.077997  2.314946  0.11
O  O210  1  0.13250065  0.01306233  0.89457867  1  -1.120977  0.122885  -0.338018  -0.568732  0.077985  2.317636  0.11
O  O211  1  0.14580289  0.39456466  0.98671851  1  -1.121039  0.123121  -0.337878  -0.567596  0.07811  2.31775  0.11
O  O212  1  0.89566037  0.97712186  0.39182402  1  -1.170628  0.001372  -0.340997  -0.567547  -0.000288  2.090583  0.002
O  O213  1  0.28737310  0.60866327  0.47723446  1  -1.171871  0.001356  -0.341028  -0.567436  -0.000299  2.08964  0.002
O  O214  1  0.87348633  0.89115551  0.02281171  1  -1.173067  0.00137  -0.341039  -0.568742  -0.000292  2.089975  0.002
O  O215  1  0.76422552  0.52286034  0.10897797  1  -1.173008  0.001389  -0.340848  -0.56743  -0.000282  2.08963  0.002
O  O216  1  0.10433205  0.02288268  0.60817488  1  -1.170754  0.001373  -0.340984  -0.567612  -0.000287  2.090544  0.002
O  O217  1  0.71260489  0.39134316  0.52277483  1  -1.172167  0.001358  -0.340956  -0.567371  -0.000298  2.089452  0.002
O  O218  1  0.12651011  0.10885029  0.97718327  1  -1.172986  0.00137  -0.34098  -0.568729  -0.000292  2.090052  0.002
O  O219  1  0.23577359  0.47713099  0.89102797  1  -1.173192  0.00139  -0.340725  -0.567265  -0.000281  2.089436  0.002
