# generated using pymatgen
data_CuH7C8S(NO)2
_symmetry_space_group_name_H-M   'P 1'
_cell_length_a   5.78033342
_cell_length_b   12.39615212
_cell_length_c   12.85693391
_cell_angle_alpha   90.00017757
_cell_angle_beta   94.01212992
_cell_angle_gamma   89.99948722
_symmetry_Int_Tables_number   1
_chemical_formula_structural   CuH7C8S(NO)2
_chemical_formula_sum   'Cu4 H28 C32 S4 N8 O8'
_cell_volume   918.99161649
_cell_formula_units_Z   4
loop_
 _symmetry_equiv_pos_site_id
 _symmetry_equiv_pos_as_xyz
  1  'x, y, z'
loop_
 _atom_site_type_symbol
 _atom_site_label
 _atom_site_symmetry_multiplicity
 _atom_site_fract_x
 _atom_site_fract_y
 _atom_site_fract_z
 _atom_site_occupancy
 _atom_site_hle17_bader_spin_density
 _atom_site_hle17_ddec_charge
 _atom_site_hle17_ddec_spin_density
 _atom_site_hle17_ddec_sum_bond_order
 _atom_site_hle17_magmom
 _atom_site_hse06_10hf_bader_spin_density
 _atom_site_hse06_10hf_ddec_charge
 _atom_site_hse06_10hf_ddec_spin_density
 _atom_site_hse06_10hf_ddec_sum_bond_order
 _atom_site_hse06_10hf_magmom
 _atom_site_hse06_bader_spin_density
 _atom_site_hse06_ddec_charge
 _atom_site_hse06_ddec_spin_density
 _atom_site_hse06_ddec_sum_bond_order
 _atom_site_hse06_magmom
 _atom_site_pbe_bader_spin_density
 _atom_site_pbe_cm5_charge
 _atom_site_pbe_ddec_charge
 _atom_site_pbe_ddec_spin_density
 _atom_site_pbe_ddec_sum_bond_order
 _atom_site_pbe_magmom
Cu  Cu0  1  0.10628503  0.09517531  0.00617194  1  0  0.382464  0  2.226384  0  0  0.296336  0  2.733869  0  0  0.2918  0  2.690279  0  0  0.472981  0.302775  0  2.760723  0
Cu  Cu1  1  0.60624109  0.40483335  0.50617912  1  0  0.382398  0  2.226767  0  0  0.296299  0  2.734273  0  0  0.291759  0  2.690687  0  0  0.473005  0.302723  0  2.761147  0
Cu  Cu2  1  0.89377383  0.90483148  0.99382624  1  0  0.382388  0  2.226774  0  0  0.296271  0  2.734269  0  0  0.291724  0  2.690648  0  0  0.473015  0.302716  0  2.761072  0
Cu  Cu3  1  0.39372944  0.59517506  0.49382583  1  0  0.382478  0  2.226427  0  0  0.296381  0  2.733922  0  0  0.291787  0  2.690303  0  0  0.472968  0.302816  0  2.760678  0
H  H4  1  0.70513839  0.11426175  0.14169649  1  0  0.08585  0  0.937196  0  0  0.092483  0  1.005235  0  0  0.09535  0  1.001694  0  0  0.116152  0.090196  0  1.008059  0
H  H5  1  0.20512560  0.38574132  0.64169760  1  0  0.085785  0  0.937203  0  0  0.09241  0  1.005256  0  0  0.095282  0  1.00172  0  0  0.116139  0.090125  0  1.008079  0
H  H6  1  0.29488750  0.88573294  0.85829917  1  0  0.085698  0  0.937295  0  0  0.092408  0  1.005274  0  0  0.09528  0  1.001737  0  0  0.116093  0.09012  0  1.008097  0
H  H7  1  0.79488656  0.61425822  0.35830933  1  0  0.085871  0  0.937159  0  0  0.092487  0  1.0052  0  0  0.095362  0  1.001656  0  0  0.116119  0.090201  0  1.008026  0
H  H8  1  0.51070437  0.26263331  0.23280475  1  0  0.118269  0  0.950804  0  0  0.125036  0  1.013371  0  0  0.128521  0  1.012587  0  0  0.108808  0.12253  0  1.014123  0
H  H9  1  0.01067728  0.23736676  0.73280657  1  0  0.11827  0  0.950748  0  0  0.125048  0  1.013313  0  0  0.128536  0  1.012526  0  0  0.108802  0.122542  0  1.014063  0
H  H10  1  0.48931455  0.73735331  0.76718838  1  0  0.118359  0  0.950688  0  0  0.125093  0  1.013301  0  0  0.12858  0  1.012515  0  0  0.108782  0.122586  0  1.01405  0
H  H11  1  0.98932452  0.76263196  0.26720395  1  0  0.118158  0  0.95081  0  0  0.124956  0  1.013366  0  0  0.128445  0  1.012579  0  0  0.108733  0.122451  0  1.014116  0
H  H12  1  0.67945292  0.45007098  0.22723425  1  0  0.105581  0  0.944889  0  0  0.116978  0  1.006246  0  0  0.119869  0  1.003555  0  0  0.108502  0.11471  0  1.008451  0
H  H13  1  0.17943997  0.04992762  0.72722971  1  0  0.105648  0  0.944853  0  0  0.116992  0  1.006243  0  0  0.119886  0  1.003549  0  0  0.108499  0.114725  0  1.008446  0
H  H14  1  0.32053488  0.54992129  0.77276576  1  0  0.10558  0  0.944858  0  0  0.116979  0  1.00621  0  0  0.119874  0  1.003518  0  0  0.10851  0.114714  0  1.008411  0
H  H15  1  0.82056347  0.95006707  0.27277308  1  0  0.105716  0  0.944757  0  0  0.117026  0  1.006201  0  0  0.119921  0  1.003506  0  0  0.1085  0.114757  0  1.008403  0
H  H16  1  0.22443423  0.31860497  0.05330982  1  0  0.087363  0  0.946944  0  0  0.092012  0  1.019977  0  0  0.095577  0  1.015699  0  0  0.118401  0.089352  0  1.023206  0
H  H17  1  0.72442253  0.18139612  0.55331340  1  0  0.087353  0  0.946878  0  0  0.091996  0  1.019926  0  0  0.095559  0  1.015648  0  0  0.118393  0.089338  0  1.023156  0
H  H18  1  0.77557957  0.68140263  0.94668938  1  0  0.0873  0  0.946934  0  0  0.091992  0  1.019906  0  0  0.095556  0  1.015625  0  0  0.118393  0.089333  0  1.023134  0
H  H19  1  0.27557394  0.81860664  0.44668685  1  0  0.087377  0  0.946993  0  0  0.092029  0  1.020009  0  0  0.095596  0  1.015725  0  0  0.118424  0.089358  0  1.023245  0
H  H20  1  0.44376561  0.63426804  0.18113163  1  0  0.094502  0  0.941028  0  0  0.112343  0  1.004833  0  0  0.111887  0  1.005777  0  0  0.099849  0.112521  0  1.004348  0
H  H21  1  0.94378478  0.86573891  0.68113119  1  0  0.094447  0  0.941082  0  0  0.112341  0  1.004845  0  0  0.111887  0  1.005788  0  0  0.099865  0.112519  0  1.004359  0
H  H22  1  0.55618761  0.36574118  0.81887593  1  0  0.094455  0  0.941164  0  0  0.112297  0  1.004983  0  0  0.111844  0  1.005921  0  0  0.099845  0.112475  0  1.004495  0
H  H23  1  0.05622730  0.13426707  0.31886952  1  0  0.094607  0  0.940958  0  0  0.112377  0  1.004861  0  0  0.111924  0  1.005802  0  0  0.099855  0.112557  0  1.004376  0
H  H24  1  0.54409475  0.60250779  0.05576710  1  0  0.102627  0  0.948488  0  0  0.11838  0  1.014076  0  0  0.119495  0  1.012743  0  0  0.1033  0.117472  0  1.015183  0
H  H25  1  0.04410604  0.89750836  0.55577206  1  0  0.102622  0  0.948595  0  0  0.118342  0  1.014219  0  0  0.119455  0  1.012889  0  0  0.10327  0.117431  0  1.015327  0
H  H26  1  0.45586175  0.39751917  0.94422500  1  0  0.102748  0  0.948591  0  0  0.118437  0  1.014217  0  0  0.119551  0  1.012884  0  0  0.103343  0.11752  0  1.015333  0
H  H27  1  0.95590611  0.10250327  0.44423410  1  0  0.102563  0  0.948599  0  0  0.118326  0  1.014171  0  0  0.11944  0  1.012838  0  0  0.103272  0.117415  0  1.01528  0
H  H28  1  0.27719994  0.67682008  0.06599314  1  0  0.089745  0  0.968468  0  0  0.103682  0  1.038514  0  0  0.103398  0  1.039934  0  0  0.096802  0.103758  0  1.03761  0
H  H29  1  0.77723901  0.82318229  0.56599005  1  0  0.089786  0  0.968672  0  0  0.103686  0  1.038744  0  0  0.103402  0  1.040165  0  0  0.096805  0.103757  0  1.037845  0
H  H30  1  0.72272560  0.32319397  0.93401829  1  0  0.089825  0  0.968696  0  0  0.103665  0  1.038793  0  0  0.10338  0  1.040216  0  0  0.096725  0.103724  0  1.037932  0
H  H31  1  0.22279903  0.17681644  0.43400675  1  0  0.089728  0  0.968516  0  0  0.103685  0  1.038542  0  0  0.103399  0  1.039967  0  0  0.096808  0.103759  0  1.03764  0
C  C32  1  0.42276403  0.91041732  0.08542678  1  0  0.286286  0  3.937937  0  0  0.279379  0  4.224742  0  0  0.295332  0  4.240484  0  0  0.145716  0.26868  0  4.213749  0
C  C33  1  0.92269013  0.58958133  0.58543608  1  0  0.286184  0  3.937439  0  0  0.279284  0  4.224279  0  0  0.295233  0  4.240014  0  0  0.145623  0.268582  0  4.213271  0
C  C34  1  0.57731372  0.08957091  0.91455716  1  0  0.286076  0  3.937548  0  0  0.27916  0  4.22441  0  0  0.295113  0  4.240149  0  0  0.145538  0.268467  0  4.213428  0
C  C35  1  0.07727695  0.41042143  0.41457111  1  0  0.286189  0  3.937311  0  0  0.279284  0  4.224145  0  0  0.295243  0  4.239887  0  0  0.145604  0.268587  0  4.213176  0
C  C36  1  0.77507617  0.19585226  0.14238658  1  0  0.139349  0  3.657284  0  0  0.107417  0  3.909094  0  0  0.116223  0  3.923568  0  0  0.051159  0.101493  0  3.899961  0
C  C37  1  0.27506859  0.30414570  0.64239305  1  0  0.139562  0  3.657021  0  0  0.107639  0  3.908856  0  0  0.116438  0  3.923341  0  0  0.051195  0.101714  0  3.899727  0
C  C38  1  0.22492888  0.80414082  0.85760693  1  0  0.139444  0  3.657067  0  0  0.107421  0  3.908919  0  0  0.116214  0  3.923409  0  0  0.051143  0.101497  0  3.899779  0
C  C39  1  0.72493669  0.69584899  0.35761835  1  0  0.13945  0  3.657089  0  0  0.107556  0  3.908862  0  0  0.116352  0  3.923345  0  0  0.051305  0.101624  0  3.899727  0
C  C40  1  0.66513318  0.27937847  0.19187511  1  0  -0.104157  0  3.699732  0  0  -0.112918  0  3.948383  0  0  -0.121528  0  3.969286  0  0  -0.076327  -0.107666  0  3.934921  0
C  C41  1  0.16511848  0.22061927  0.69187025  1  0  -0.104475  0  3.699712  0  0  -0.113287  0  3.948414  0  0  -0.121901  0  3.969317  0  0  -0.076435  -0.108035  0  3.934957  0
C  C42  1  0.33487719  0.72061380  0.80812710  1  0  -0.104562  0  3.699426  0  0  -0.113332  0  3.948208  0  0  -0.121944  0  3.969115  0  0  -0.076445  -0.108079  0  3.934742  0
C  C43  1  0.83488847  0.77937623  0.30813654  1  0  -0.104075  0  3.699631  0  0  -0.112863  0  3.948256  0  0  -0.121477  0  3.969164  0  0  -0.076284  -0.107612  0  3.934786  0
C  C44  1  0.75982725  0.38226182  0.18997471  1  0  0.008854  0  3.669427  0  0  -0.023178  0  3.91466  0  0  -0.016114  0  3.931545  0  0  -0.056703  -0.027797  0  3.90361  0
C  C45  1  0.25983380  0.11773312  0.68997638  1  0  0.009058  0  3.669257  0  0  -0.022896  0  3.91445  0  0  -0.015825  0  3.931325  0  0  -0.056611  -0.027526  0  3.903404  0
C  C46  1  0.24015699  0.61773045  0.81001742  1  0  0.00927  0  3.669045  0  0  -0.02274  0  3.914218  0  0  -0.015674  0  3.931097  0  0  -0.056493  -0.027369  0  3.903174  0
C  C47  1  0.74018182  0.88226076  0.31002988  1  0  0.008659  0  3.66928  0  0  -0.023323  0  3.914563  0  0  -0.016262  0  3.931449  0  0  -0.056737  -0.027941  0  3.903504  0
C  C48  1  0.96476335  0.39835828  0.14004346  1  0  -0.125543  0  3.785968  0  0  -0.10128  0  4.023507  0  0  -0.114875  0  4.048041  0  0  -0.01644  -0.092762  0  4.007442  0
C  C49  1  0.46474932  0.10163814  0.64003671  1  0  -0.125512  0  3.78582  0  0  -0.10125  0  4.023375  0  0  -0.114845  0  4.047895  0  0  -0.016422  -0.092719  0  4.007316  0
C  C50  1  0.03524531  0.60163077  0.85996104  1  0  -0.125455  0  3.78576  0  0  -0.101229  0  4.023342  0  0  -0.114818  0  4.04785  0  0  -0.01639  -0.092709  0  4.007282  0
C  C51  1  0.53523833  0.89835897  0.35995085  1  0  -0.125389  0  3.785803  0  0  -0.101111  0  4.023359  0  0  -0.114705  0  4.047893  0  0  -0.016423  -0.092595  0  4.007285  0
C  C52  1  0.06520429  0.31016240  0.09293067  1  0  0.122746  0  3.654846  0  0  0.079645  0  3.911603  0  0  0.089428  0  3.924415  0  0  0.049894  0.073321  0  3.903259  0
C  C53  1  0.56519244  0.18983621  0.59293582  1  0  0.122785  0  3.654999  0  0  0.079689  0  3.911742  0  0  0.089478  0  3.924547  0  0  0.04993  0.073351  0  3.903409  0
C  C54  1  0.93480769  0.68984036  0.90706148  1  0  0.122679  0  3.655087  0  0  0.079582  0  3.911793  0  0  0.089371  0  3.924595  0  0  0.049912  0.073251  0  3.903448  0
C  C55  1  0.43480409  0.81016575  0.40706832  1  0  0.122735  0  3.654973  0  0  0.079667  0  3.911684  0  0  0.089453  0  3.924487  0  0  0.049891  0.073349  0  3.903335  0
C  C56  1  0.06714697  0.50834091  0.13895610  1  0  0.573959  0  3.853142  0  0  0.520604  0  4.152213  0  0  0.553552  0  4.146276  0  0  0.226815  0.498173  0  4.155993  0
C  C57  1  0.56716532  0.99166171  0.63895679  1  0  0.5739  0  3.852639  0  0  0.520438  0  4.151844  0  0  0.553392  0  4.145903  0  0  0.226708  0.497996  0  4.155627  0
C  C58  1  0.93279914  0.49166185  0.86103647  1  0  0.573908  0  3.852892  0  0  0.520532  0  4.152011  0  0  0.553531  0  4.146053  0  0  0.226645  0.498102  0  4.155795  0
C  C59  1  0.43284671  0.00833783  0.36103925  1  0  0.574055  0  3.852771  0  0  0.520576  0  4.152006  0  0  0.553527  0  4.146068  0  0  0.226776  0.498144  0  4.155785  0
C  C60  1  0.39135467  0.61369469  0.09993622  1  0  -0.064351  0  3.574413  0  0  -0.16424  0  3.838789  0  0  -0.156101  0  3.842003  0  0  -0.144605  -0.169603  0  3.836601  0
C  C61  1  0.89137511  0.88631462  0.59993277  1  0  -0.064262  0  3.574787  0  0  -0.164187  0  3.839171  0  0  -0.156046  0  3.842384  0  0  -0.144539  -0.169548  0  3.836982  0
C  C62  1  0.60859856  0.38632743  0.90007212  1  0  -0.064516  0  3.575289  0  0  -0.164228  0  3.839614  0  0  -0.156042  0  3.842841  0  0  -0.144546  -0.169577  0  3.83742  0
C  C63  1  0.10863518  0.11369056  0.40006400  1  0  -0.064318  0  3.574552  0  0  -0.164205  0  3.838898  0  0  -0.156066  0  3.84211  0  0  -0.144562  -0.169568  0  3.83671  0
S  S64  1  0.17176456  0.94578127  0.12734170  1  0  -0.303634  0  2.623617  0  0  -0.282566  0  3.052171  0  0  -0.286167  0  3.028618  0  0  -0.171315  -0.280234  0  3.067174  0
S  S65  1  0.67169131  0.55422090  0.62734547  1  0  -0.303625  0  2.623748  0  0  -0.282582  0  3.052363  0  0  -0.286169  0  3.028797  0  0  -0.1713  -0.280237  0  3.06734  0
S  S66  1  0.82832200  0.05420778  0.87265339  1  0  -0.303536  0  2.623662  0  0  -0.28247  0  3.052264  0  0  -0.286079  0  3.028722  0  0  -0.171252  -0.280141  0  3.067279  0
S  S67  1  0.32826188  0.44578186  0.37265898  1  0  -0.303616  0  2.623764  0  0  -0.282575  0  3.052374  0  0  -0.286151  0  3.028783  0  0  -0.171324  -0.280241  0  3.067393  0
N  N68  1  0.60390487  0.88609164  0.05481636  1  0  -0.48445  0  3.101633  0  0  -0.435373  0  3.417411  0  0  -0.446069  0  3.418284  0  0  -0.427675  -0.42871  0  3.41617  0
N  N69  1  0.10382827  0.61390169  0.55481639  1  0  -0.484375  0  3.100951  0  0  -0.435284  0  3.416667  0  0  -0.445967  0  3.417516  0  0  -0.42758  -0.428611  0  3.415384  0
N  N70  1  0.39617819  0.11389095  0.94517629  1  0  -0.484348  0  3.101075  0  0  -0.435244  0  3.416797  0  0  -0.445942  0  3.417675  0  0  -0.427574  -0.428585  0  3.415585  0
N  N71  1  0.89611802  0.38609704  0.44519097  1  0  -0.484341  0  3.100776  0  0  -0.435256  0  3.41656  0  0  -0.445967  0  3.417449  0  0  -0.427537  -0.428592  0  3.415372  0
N  N72  1  0.97169472  0.21062493  0.09303201  1  0  -0.292994  0  3.373879  0  0  -0.22236  0  3.6713  0  0  -0.233602  0  3.67832  0  0  -0.362104  -0.215754  0  3.666728  0
N  N73  1  0.47168729  0.28936969  0.59302755  1  0  -0.293061  0  3.373962  0  0  -0.22244  0  3.671422  0  0  -0.233683  0  3.678445  0  0  -0.362151  -0.215832  0  3.66686  0
N  N74  1  0.02832438  0.78936734  0.90697512  1  0  -0.292899  0  3.374186  0  0  -0.222264  0  3.671653  0  0  -0.233496  0  3.678666  0  0  -0.362151  -0.215657  0  3.667059  0
N  N75  1  0.52830219  0.71062823  0.40696861  1  0  -0.293158  0  3.373969  0  0  -0.222561  0  3.671456  0  0  -0.233786  0  3.678444  0  0  -0.362172  -0.215949  0  3.66684  0
O  O76  1  0.97326044  0.58869077  0.17212130  1  0  -0.51971  0  1.964675  0  0  -0.476492  0  2.190596  0  0  -0.497133  0  2.185536  0  0  -0.269889  -0.462486  0  2.193913  0
O  O77  1  0.47326280  0.91130394  0.67212681  1  0  -0.5198  0  1.964286  0  0  -0.476511  0  2.190192  0  0  -0.497154  0  2.185132  0  0  -0.269874  -0.4625  0  2.193504  0
O  O78  1  0.02670648  0.41130231  0.82787266  1  0  -0.51977  0  1.964317  0  0  -0.476502  0  2.190177  0  0  -0.497141  0  2.185101  0  0  -0.269815  -0.462485  0  2.193478  0
O  O79  1  0.52674062  0.08869640  0.32787443  1  0  -0.519848  0  1.964296  0  0  -0.47656  0  2.190229  0  0  -0.497202  0  2.185167  0  0  -0.269898  -0.462553  0  2.193547  0
O  O80  1  0.27432004  0.51014180  0.09615982  1  0  -0.302734  0  2.326721  0  0  -0.225879  0  2.574882  0  0  -0.24883  0  2.576714  0  0  -0.173322  -0.209948  0  2.573133  0
O  O81  1  0.77432277  0.98986713  0.59615616  1  0  -0.30273  0  2.326673  0  0  -0.225779  0  2.574844  0  0  -0.248736  0  2.576678  0  0  -0.173317  -0.209849  0  2.573093  0
O  O82  1  0.72564865  0.48986741  0.90383652  1  0  -0.302659  0  2.327196  0  0  -0.225819  0  2.575383  0  0  -0.248884  0  2.577268  0  0  -0.173281  -0.209899  0  2.573635  0
O  O83  1  0.22567876  0.01013885  0.40383257  1  0  -0.302806  0  2.326833  0  0  -0.225866  0  2.574999  0  0  -0.248821  0  2.576833  0  0  -0.17332  -0.209935  0  2.573242  0
