# generated using pymatgen
data_BaH8C10(N2O3)2
_symmetry_space_group_name_H-M   'P 1'
_cell_length_a   6.87672773
_cell_length_b   9.78504896
_cell_length_c   11.55973546
_cell_angle_alpha   115.21978332
_cell_angle_beta   105.01409701
_cell_angle_gamma   91.68560734
_symmetry_Int_Tables_number   1
_chemical_formula_structural   BaH8C10(N2O3)2
_chemical_formula_sum   'Ba2 H16 C20 N8 O12'
_cell_volume   670.92244700
_cell_formula_units_Z   2
loop_
 _symmetry_equiv_pos_site_id
 _symmetry_equiv_pos_as_xyz
  1  'x, y, z'
loop_
 _atom_site_type_symbol
 _atom_site_label
 _atom_site_symmetry_multiplicity
 _atom_site_fract_x
 _atom_site_fract_y
 _atom_site_fract_z
 _atom_site_occupancy
 _atom_site_hle17_bader_spin_density
 _atom_site_hle17_ddec_charge
 _atom_site_hle17_ddec_spin_density
 _atom_site_hle17_ddec_sum_bond_order
 _atom_site_hle17_magmom
 _atom_site_hse06_10hf_bader_spin_density
 _atom_site_hse06_10hf_ddec_charge
 _atom_site_hse06_10hf_ddec_spin_density
 _atom_site_hse06_10hf_ddec_sum_bond_order
 _atom_site_hse06_10hf_magmom
 _atom_site_hse06_bader_spin_density
 _atom_site_hse06_ddec_charge
 _atom_site_hse06_ddec_spin_density
 _atom_site_hse06_ddec_sum_bond_order
 _atom_site_hse06_magmom
 _atom_site_pbe_bader_spin_density
 _atom_site_pbe_cm5_charge
 _atom_site_pbe_ddec_charge
 _atom_site_pbe_ddec_spin_density
 _atom_site_pbe_ddec_sum_bond_order
 _atom_site_pbe_magmom
Ba  Ba0  1  0.03920672  0.27639283  0.60621600  1  0  1.634719  0  1.141829  0  0  1.486869  0  1.54962  0  0  1.52235  0  1.508125  0  0  0.962908  1.460004  0  1.581102  0
Ba  Ba1  1  0.96079239  0.72360744  0.39378291  1  0  1.634741  0  1.141813  0  0  1.486897  0  1.549595  0  0  1.522378  0  1.508103  0  0  0.96292  1.460048  0  1.581092  0
H  H2  1  0.16408479  0.01831449  0.35737924  1  0  0.423362  0  0.847716  0  0  0.397909  0  0.916083  0  0  0.406773  0  0.903146  0  0  0.317048  0.391546  0  0.924022  0
H  H3  1  0.83591707  0.98168463  0.64262141  1  0  0.423383  0  0.847705  0  0  0.397925  0  0.916066  0  0  0.40679  0  0.903126  0  0  0.317051  0.391557  0  0.924021  0
H  H4  1  0.94156172  0.02356996  0.28626700  1  0  0.428774  0  0.870708  0  0  0.395467  0  0.937707  0  0  0.406433  0  0.921989  0  0  0.301434  0.387648  0  0.948868  0
H  H5  1  0.05844190  0.97643026  0.71373173  1  0  0.428767  0  0.870721  0  0  0.395477  0  0.937699  0  0  0.406445  0  0.921978  0  0  0.301453  0.38766  0  0.948855  0
H  H6  1  0.55493308  0.11878388  0.42924705  1  0  0.421874  0  0.877083  0  0  0.391292  0  0.940695  0  0  0.401405  0  0.925814  0  0  0.3006  0.384157  0  0.951153  0
H  H7  1  0.44506427  0.88121528  0.57075378  1  0  0.421826  0  0.877156  0  0  0.391246  0  0.940756  0  0  0.401359  0  0.925876  0  0  0.300582  0.384115  0  0.951208  0
H  H8  1  0.56126242  0.15569353  0.57623430  1  0  0.412674  0  0.892589  0  0  0.382894  0  0.956453  0  0  0.392438  0  0.942328  0  0  0.301231  0.375825  0  0.967135  0
H  H9  1  0.43873544  0.84430793  0.42376916  1  0  0.412704  0  0.892555  0  0  0.382922  0  0.95642  0  0  0.392465  0  0.942295  0  0  0.301238  0.375851  0  0.967104  0
H  H10  1  0.76118450  0.42515987  0.41879532  1  0  0.428163  0  0.8683  0  0  0.399848  0  0.928083  0  0  0.409809  0  0.913373  0  0  0.301207  0.3929  0  0.938263  0
H  H11  1  0.23881559  0.57483812  0.58120553  1  0  0.42814  0  0.868329  0  0  0.399825  0  0.928112  0  0  0.409788  0  0.9134  0  0  0.301195  0.392879  0  0.938289  0
H  H12  1  0.80301492  0.27131603  0.30716709  1  0  0.42411  0  0.869738  0  0  0.390475  0  0.937694  0  0  0.400838  0  0.922567  0  0  0.298054  0.383192  0  0.948284  0
H  H13  1  0.19698720  0.72868421  0.69283227  1  0  0.424097  0  0.869753  0  0  0.390456  0  0.937719  0  0  0.400821  0  0.92259  0  0  0.29805  0.383173  0  0.948308  0
H  H14  1  0.34136382  0.32718127  0.43725551  1  0  0.427161  0  0.860887  0  0  0.395722  0  0.928685  0  0  0.405823  0  0.91387  0  0  0.305855  0.388557  0  0.939178  0
H  H15  1  0.65863457  0.67282244  0.56274451  1  0  0.427143  0  0.860904  0  0  0.395689  0  0.928738  0  0  0.405793  0  0.913918  0  0  0.305845  0.388527  0  0.939225  0
H  H16  1  0.48910142  0.41387592  0.58422327  1  0  0.419036  0  0.882387  0  0  0.387481  0  0.948439  0  0  0.396969  0  0.934523  0  0  0.303711  0.38018  0  0.959382  0
H  H17  1  0.51089443  0.58612324  0.41577647  1  0  0.418998  0  0.882431  0  0  0.387443  0  0.948488  0  0  0.396931  0  0.934571  0  0  0.3037  0.380142  0  0.95943  0
C  C18  1  0.23484544  0.98305380  0.95997493  1  0  0.32689  0  3.903962  0  0  0.296984  0  4.197674  0  0  0.311094  0  4.213385  0  0  0.118885  0.288832  0  4.186292  0
C  C19  1  0.76516020  0.01694871  0.04002492  1  0  0.326911  0  3.904032  0  0  0.296998  0  4.19773  0  0  0.311105  0  4.213443  0  0  0.118841  0.28885  0  4.186348  0
C  C20  1  0.32210571  0.93004584  0.06082450  1  0  -0.101193  0  3.702229  0  0  -0.108643  0  3.962536  0  0  -0.10663  0  3.981222  0  0  -0.003549  -0.113001  0  3.951303  0
C  C21  1  0.67789868  0.06995786  0.93917990  1  0  -0.101176  0  3.702314  0  0  -0.108636  0  3.962625  0  0  -0.106625  0  3.981326  0  0  -0.003522  -0.112997  0  3.951393  0
C  C22  1  0.31619014  0.07968706  0.16745386  1  0  0.354583  0  3.851114  0  0  0.327861  0  4.133648  0  0  0.344827  0  4.143297  0  0  0.126454  0.317364  0  4.127128  0
C  C23  1  0.68381147  0.92031087  0.83254201  1  0  0.354468  0  3.851267  0  0  0.327761  0  4.133747  0  0  0.344724  0  4.143402  0  0  0.126364  0.317269  0  4.127215  0
C  C24  1  0.23126948  0.13348012  0.06698067  1  0  -0.103684  0  3.702491  0  0  -0.110658  0  3.963035  0  0  -0.108916  0  3.982055  0  0  -0.00364  -0.114723  0  3.951418  0
C  C25  1  0.76873239  0.86651894  0.93301477  1  0  -0.103725  0  3.702453  0  0  -0.110649  0  3.962963  0  0  -0.108909  0  3.981987  0  0  -0.003624  -0.114709  0  3.951339  0
C  C26  1  0.38383629  0.79395478  0.05727337  1  0  -0.12725  0  3.978057  0  0  -0.10857  0  4.220981  0  0  -0.120343  0  4.241397  0  0  -0.023298  -0.09773  0  4.205005  0
C  C27  1  0.61616131  0.20604553  0.94272877  1  0  -0.127188  0  3.977957  0  0  -0.108529  0  4.220908  0  0  -0.120305  0  4.241326  0  0  -0.023285  -0.097693  0  4.204934  0
C  C28  1  0.34497150  0.66090496  0.93461246  1  0  0.312404  0  3.802982  0  0  0.291652  0  4.074179  0  0  0.304843  0  4.093575  0  0  0.198818  0.28187  0  4.061006  0
C  C29  1  0.65502382  0.33909194  0.06538899  1  0  0.312338  0  3.80299  0  0  0.291597  0  4.074194  0  0  0.304789  0  4.093589  0  0  0.198797  0.28182  0  4.061022  0
C  C30  1  0.47797526  0.78730027  0.17763808  1  0  0.34736  0  3.769964  0  0  0.321685  0  4.035222  0  0  0.336867  0  4.052219  0  0  0.218018  0.31134  0  4.0227  0
C  C31  1  0.52201810  0.21270119  0.82236035  1  0  0.347409  0  3.769939  0  0  0.321735  0  4.035211  0  0  0.336917  0  4.052206  0  0  0.218064  0.311385  0  4.022683  0
C  C32  1  0.17557803  0.27240520  0.07411870  1  0  -0.127297  0  3.98064  0  0  -0.109289  0  4.22431  0  0  -0.121207  0  4.244878  0  0  -0.022948  -0.098498  0  4.208361  0
C  C33  1  0.82441933  0.72759394  0.92588039  1  0  -0.127262  0  3.980667  0  0  -0.109329  0  4.224425  0  0  -0.121247  0  4.244992  0  0  -0.022978  -0.098542  0  4.208479  0
C  C34  1  0.09423674  0.29315060  0.95881209  1  0  0.320228  0  3.811507  0  0  0.299315  0  4.083196  0  0  0.312842  0  4.102163  0  0  0.201215  0.289417  0  4.07024  0
C  C35  1  0.90575859  0.70684626  0.04118588  1  0  0.320291  0  3.811543  0  0  0.299404  0  4.083249  0  0  0.312929  0  4.102216  0  0  0.201265  0.289509  0  4.070305  0
C  C36  1  0.20786564  0.39955427  0.19908096  1  0  0.348511  0  3.775557  0  0  0.322521  0  4.041175  0  0  0.337723  0  4.058264  0  0  0.219905  0.312194  0  4.028422  0
C  C37  1  0.79212947  0.60044835  0.80092075  1  0  0.348421  0  3.775359  0  0  0.322448  0  4.041  0  0  0.337651  0  4.058101  0  0  0.219856  0.312116  0  4.028242  0
N  N38  1  0.30739719  0.55182310  0.83123011  1  0  -0.48135  0  2.676373  0  0  -0.446818  0  2.923442  0  0  -0.461582  0  2.936551  0  0  -0.344119  -0.436452  0  2.91584  0
N  N39  1  0.69259865  0.44817612  0.16877570  1  0  -0.481345  0  2.67635  0  0  -0.446808  0  2.923399  0  0  -0.461569  0  2.936506  0  0  -0.344108  -0.436443  0  2.915805  0
N  N40  1  0.55912680  0.78754604  0.28031689  1  0  -0.504552  0  2.724739  0  0  -0.457945  0  2.969642  0  0  -0.473021  0  2.978087  0  0  -0.340336  -0.447336  0  2.965151  0
N  N41  1  0.44087432  0.21245657  0.71968921  1  0  -0.504536  0  2.724916  0  0  -0.457938  0  2.969839  0  0  -0.473005  0  2.97827  0  0  -0.340366  -0.447327  0  2.965338  0
N  N42  1  0.02429437  0.30925062  0.86259503  1  0  -0.494642  0  2.696542  0  0  -0.460767  0  2.945672  0  0  -0.475898  0  2.958882  0  0  -0.360582  -0.451006  0  2.938355  0
N  N43  1  0.97569672  0.69074740  0.13740010  1  0  -0.494667  0  2.696649  0  0  -0.460804  0  2.94579  0  0  -0.475935  0  2.958999  0  0  -0.360605  -0.451047  0  2.938486  0
N  N44  1  0.23662462  0.50578979  0.30367246  1  0  -0.507133  0  2.734265  0  0  -0.460462  0  2.979815  0  0  -0.475595  0  2.988004  0  0  -0.345955  -0.449462  0  2.975059  0
N  N45  1  0.76336492  0.49420135  0.69631912  1  0  -0.507145  0  2.733919  0  0  -0.460465  0  2.979452  0  0  -0.475601  0  2.987647  0  0  -0.345948  -0.449452  0  2.974667  0
O  O46  1  0.36038492  0.13698673  0.29264710  1  0  -0.549923  0  2.054372  0  0  -0.48768  0  2.266953  0  0  -0.50898  0  2.260882  0  0  -0.282269  -0.472896  0  2.270819  0
O  O47  1  0.63961446  0.86301467  0.70735051  1  0  -0.549853  0  2.054513  0  0  -0.487585  0  2.267056  0  0  -0.508885  0  2.26099  0  0  -0.282179  -0.472802  0  2.270915  0
O  O48  1  0.18656647  0.92307864  0.83480862  1  0  -0.524594  0  2.064018  0  0  -0.463729  0  2.280235  0  0  -0.486095  0  2.278581  0  0  -0.276471  -0.448107  0  2.280579  0
O  O49  1  0.81344618  0.07692150  0.16518975  1  0  -0.524577  0  2.064078  0  0  -0.463724  0  2.28029  0  0  -0.48609  0  2.278645  0  0  -0.276447  -0.44811  0  2.28064  0
O  O50  1  0.02664415  0.01493586  0.36633211  1  0  -0.88087  0  1.815597  0  0  -0.818327  0  2.000507  0  0  -0.839702  0  1.972979  0  0  -0.613203  -0.802698  0  2.018477  0
O  O51  1  0.97335621  0.98506325  0.63366658  1  0  -0.880885  0  1.815626  0  0  -0.818361  0  2.000497  0  0  -0.839737  0  1.972965  0  0  -0.613229  -0.802737  0  2.018478  0
O  O52  1  0.64544934  0.12922822  0.51495341  1  0  -0.875427  0  1.837419  0  0  -0.820369  0  2.011704  0  0  -0.839389  0  1.982389  0  0  -0.630593  -0.806828  0  2.032891  0
O  O53  1  0.35455127  0.87077206  0.48504832  1  0  -0.875409  0  1.837431  0  0  -0.820351  0  2.011735  0  0  -0.839372  0  1.982415  0  0  -0.630597  -0.806818  0  2.032937  0
O  O54  1  0.84636485  0.34355686  0.40282234  1  0  -0.886266  0  1.808618  0  0  -0.82836  0  1.982386  0  0  -0.847776  0  1.952501  0  0  -0.632555  -0.81411  0  2.003071  0
O  O55  1  0.15363550  0.65644226  0.59717722  1  0  -0.886239  0  1.808628  0  0  -0.828332  0  1.982403  0  0  -0.847752  0  1.952516  0  0  -0.632555  -0.814087  0  2.003083  0
O  O56  1  0.34433416  0.39177767  0.53062201  1  0  -0.865672  0  1.872652  0  0  -0.80636  0  2.049106  0  0  -0.825898  0  2.018872  0  0  -0.595812  -0.79218  0  2.070749  0
O  O57  1  0.65566444  0.60822032  0.46937687  1  0  -0.865624  0  1.872681  0  0  -0.806313  0  2.049142  0  0  -0.825852  0  2.018907  0  0  -0.595792  -0.792136  0  2.070782  0
