# generated using pymatgen
data_DyCuH25C49(N2O5)2
_symmetry_space_group_name_H-M   'P 1'
_cell_length_a   9.38859231
_cell_length_b   14.84253905
_cell_length_c   18.33099993
_cell_angle_alpha   92.80042198
_cell_angle_beta   103.69611154
_cell_angle_gamma   94.71160032
_symmetry_Int_Tables_number   1
_chemical_formula_structural   DyCuH25C49(N2O5)2
_chemical_formula_sum   'Dy2 Cu2 H50 C98 N8 O20'
_cell_volume   2467.25151681
_cell_formula_units_Z   2
loop_
 _symmetry_equiv_pos_site_id
 _symmetry_equiv_pos_as_xyz
  1  'x, y, z'
loop_
 _atom_site_type_symbol
 _atom_site_label
 _atom_site_symmetry_multiplicity
 _atom_site_fract_x
 _atom_site_fract_y
 _atom_site_fract_z
 _atom_site_occupancy
 _atom_site_pbe_bader_charge
 _atom_site_pbe_bader_spin_density
 _atom_site_pbe_cm5_charge
 _atom_site_pbe_ddec_charge
 _atom_site_pbe_ddec_spin_density
 _atom_site_pbe_ddec_sum_bond_order
 _atom_site_pbe_magmom
Dy  Dy0  1  0.80856169  0.56371504  0.96795888  1  2.187671  -0.003384  1.534941  2.072977  -0.005438  2.164126  -0.006
Dy  Dy1  1  0.19139914  0.43629214  0.03205118  1  2.187825  -0.003384  1.535043  2.073025  -0.005438  2.164058  -0.006
Cu  Cu2  1  0.72212958  0.02911796  0.44876060  1  1.003963  0.33226  0.781162  0.664868  0.438651  2.362939  0.333
Cu  Cu3  1  0.27786809  0.97088494  0.55121182  1  1.003836  0.333218  0.780587  0.664389  0.439905  2.362059  0.334
H  H4  1  0.31308859  0.76144444  0.41648224  1  0.105722  0.000655  0.114629  0.137324  0.000352  0.985348  0.0
H  H5  1  0.68694487  0.23855016  0.58350681  1  0.105682  0.000655  0.114629  0.137399  0.000352  0.985235  0.0
H  H6  1  0.45097161  0.77356852  0.56464432  1  0.101454  0.000738  0.110235  0.132771  0.000381  1.010599  0.0
H  H7  1  0.54911029  0.22642180  0.43537398  1  0.101765  0.000738  0.110197  0.132777  0.00038  1.010828  0.0
H  H8  1  0.98188058  0.93437808  0.71226340  1  0.106637  0.000638  0.105509  0.11975  0.000314  1.041762  0.0
H  H9  1  0.01799316  0.06564579  0.28773988  1  0.106169  0.00064  0.105572  0.119898  0.000315  1.042375  0.0
H  H10  1  0.14211969  0.08797599  0.69280870  1  0.101226  0.000638  0.110175  0.132901  0.000314  1.003172  0.0
H  H11  1  0.85784084  0.91204744  0.30716814  1  0.100788  0.000639  0.110064  0.132715  0.000315  1.003235  0.0
H  H12  1  0.01155405  0.34723788  0.49919802  1  0.106831  0.000682  0.113982  0.136636  0.000372  0.9955  0.0
H  H13  1  0.98856991  0.65270744  0.50077460  1  0.105626  0.000682  0.113983  0.136547  0.000373  0.995847  0.0
H  H14  1  0.86948333  0.33808923  0.35226512  1  0.115986  0.000712  0.114611  0.137202  0.000383  1.002829  0.0
H  H15  1  0.13068813  0.66181717  0.64765783  1  0.114556  0.000714  0.114734  0.13759  0.000383  1.002925  0.0
H  H16  1  0.59195306  0.06329404  0.15910929  1  0.092514  0.000738  0.116221  0.13696  0.0004  0.990288  0.0
H  H17  1  0.40793794  0.93672840  0.84090260  1  0.092467  0.000739  0.116218  0.136978  0.000401  0.990664  0.0
H  H18  1  0.43995541  0.90592736  0.17761268  1  0.125274  0.000706  0.115866  0.138966  0.000379  0.991733  0.0
H  H19  1  0.55980694  0.09410115  0.82242836  1  0.124231  0.000706  0.115859  0.138897  0.00038  0.99203  0.0
H  H20  1  0.69941646  0.71255059  0.59844419  1  0.048788  3.2e-05  0.103894  0.109701  3.9e-05  1.001975  0.0
H  H21  1  0.30064292  0.28747510  0.40157435  1  0.048511  3.2e-05  0.103844  0.109643  4e-05  1.001789  0.0
H  H22  1  0.69425175  0.61897096  0.70579209  1  0.11356  -5.5e-05  0.107114  0.122014  -3.2e-05  1.025236  0.0
H  H23  1  0.30582562  0.38104378  0.29421242  1  0.113935  -5.6e-05  0.107165  0.122193  -3.2e-05  1.0254  0.0
H  H24  1  0.72535687  0.86011601  0.85106543  1  0.127055  -4.8e-05  0.110133  0.117473  -2.3e-05  0.984555  0.0
H  H25  1  0.27457626  0.13988926  0.14893679  1  0.127841  -4.9e-05  0.110113  0.117482  -2.3e-05  0.984559  0.0
H  H26  1  0.72385278  0.95481368  0.74241441  1  0.090932  4e-05  0.097355  0.097734  1.9e-05  1.032211  0.0
H  H27  1  0.27606719  0.04519845  0.25759682  1  0.091418  4e-05  0.097343  0.097736  1.9e-05  1.032215  0.0
H  H28  1  0.04296534  0.26127039  0.70392787  1  0.112072  2.3e-05  0.098616  0.1013  2.2e-05  1.050152  0.0
H  H29  1  0.95707642  0.73873976  0.29603553  1  0.110631  2.3e-05  0.098439  0.101003  2.2e-05  1.050268  0.0
H  H30  1  0.23613656  0.38624313  0.76038518  1  0.106956  -0.000209  0.115686  0.126904  -0.000173  0.979379  0.0
H  H31  1  0.76388936  0.61377048  0.23957423  1  0.105573  -0.00021  0.115513  0.126713  -0.000174  0.979369  0.0
H  H32  1  0.42196533  0.36137954  0.56817405  1  0.122659  -6.6e-05  0.107581  0.115481  -4.7e-05  1.001335  0.0
H  H33  1  0.57808414  0.63857902  0.43178883  1  0.124134  -6.7e-05  0.107552  0.115481  -4.7e-05  1.000955  0.0
H  H34  1  0.23004224  0.23400888  0.51208746  1  0.081034  -6.2e-05  0.097237  0.09628  -0.000109  1.042076  0.0
H  H35  1  0.77000281  0.76595649  0.48788770  1  0.080854  -6.1e-05  0.097283  0.096586  -0.000108  1.041907  0.0
H  H36  1  0.55271232  0.53284571  0.78811038  1  0.664501  5e-06  0.309982  0.377683  2e-05  0.953975  0.0
H  H37  1  0.44728848  0.46718090  0.21183390  1  0.664758  5e-06  0.309765  0.377584  2e-05  0.95438  0.0
H  H38  1  0.60430400  0.31497979  0.25854692  1  0.09267  -4.8e-05  0.099869  0.101305  -6.1e-05  1.021487  0.0
H  H39  1  0.39569786  0.68495190  0.74145162  1  0.093293  -4.8e-05  0.099708  0.101111  -6.1e-05  1.02155  0.0
H  H40  1  0.66357619  0.41732180  0.16365226  1  0.11695  -8.1e-05  0.107409  0.114533  -6e-06  1.02607  0.0
H  H41  1  0.33643879  0.58264917  0.83636579  1  0.119417  -8.1e-05  0.107301  0.114397  -6e-06  1.02607  0.0
H  H42  1  0.95931484  0.23336506  0.10911145  1  0.101099  -8.3e-05  0.112968  0.121772  -5.5e-05  0.997283  0.0
H  H43  1  0.04075050  0.76664364  0.89089734  1  0.100899  -8.3e-05  0.112829  0.121745  -5.6e-05  0.99723  0.0
H  H44  1  0.89419062  0.12791039  0.20045091  1  0.049032  3.7e-05  0.098709  0.099367  2.3e-05  1.021177  0.0
H  H45  1  0.10587926  0.87207930  0.79954516  1  0.049207  3.7e-05  0.098748  0.099335  2.2e-05  1.021048  0.0
H  H46  1  0.52276295  0.73366118  0.26274641  1  0.082673  -0.000122  0.09684  0.097859  -0.000147  1.049415  0.0
H  H47  1  0.47718816  0.26633186  0.73737102  1  0.08171  -0.000122  0.096775  0.097684  -0.000147  1.04975  0.0
H  H48  1  0.35699259  0.62550247  0.16551360  1  0.140651  -0.001641  0.110893  0.120104  -0.002482  1.037989  -0.001
H  H49  1  0.64301671  0.37448350  0.83458397  1  0.14011  -0.001645  0.110753  0.119933  -0.002486  1.038003  -0.001
H  H50  1  0.99236720  0.77744891  0.17697438  1  0.096391  -0.000139  0.11018  0.116028  -0.000116  0.989663  0.0
H  H51  1  0.00762260  0.22257844  0.82299148  1  0.096697  -0.000139  0.11024  0.116081  -0.000117  0.989565  0.0
H  H52  1  0.15677571  0.88320245  0.27850779  1  0.073419  -7.6e-05  0.090614  0.095645  -7.7e-05  1.062222  0.0
H  H53  1  0.84315814  0.11685095  0.72146148  1  0.074884  -7.6e-05  0.09071  0.095595  -7.7e-05  1.062488  0.0
C  C54  1  0.48762973  0.87091242  0.41023316  1  0.382013  0.001644  0.092875  0.184821  0.000987  4.042933  0.003
C  C55  1  0.51237403  0.12912168  0.58978541  1  0.382108  0.001655  0.092789  0.184691  0.000996  4.04133  0.003
C  C56  1  0.40958335  0.80577716  0.44563981  1  -0.132147  0.000624  -0.089643  -0.155949  -0.000128  3.950346  0.001
C  C57  1  0.59045136  0.19423778  0.55435073  1  -0.132764  0.00064  -0.089561  -0.15571  -0.000114  3.950211  0.001
C  C58  1  0.47951744  0.81191384  0.52042599  1  0.040677  0.001218  -0.096873  -0.186054  0.000202  3.978725  0.001
C  C59  1  0.52052572  0.18809972  0.47957863  1  0.040289  0.001236  -0.096935  -0.186316  0.000216  3.979255  0.001
C  C60  1  0.60357003  0.87947007  0.53097447  1  0.375918  0.002799  0.089263  0.167572  0.002026  4.059128  0.003
C  C61  1  0.39643773  0.12054841  0.46903363  1  0.37821  0.002803  0.089248  0.167861  0.002032  4.058803  0.003
C  C62  1  0.71403670  0.89745725  0.59789886  1  0.030066  -0.016777  0.01135  -0.046362  -0.017515  3.911531  -0.01
C  C63  1  0.28594071  0.10256950  0.40209928  1  0.029056  -0.016895  0.011623  -0.046535  -0.017636  3.911268  -0.01
C  C64  1  0.82927509  0.96669419  0.60529839  1  0.431562  0.000659  0.092367  0.184998  7.6e-05  4.021041  0.002
C  C65  1  0.17069493  0.03331428  0.39468503  1  0.432217  0.000659  0.092329  0.185091  7.1e-05  4.021207  0.002
C  C66  1  0.95760867  0.97969014  0.66734154  1  -0.1071  0.003388  -0.09562  -0.166392  0.002228  3.96222  0.003
C  C67  1  0.04231579  0.02032805  0.33264539  1  -0.106855  0.003408  -0.095816  -0.166762  0.002241  3.963532  0.003
C  C68  1  0.03858464  0.05698152  0.65729468  1  -0.013334  0.001792  -0.097555  -0.180562  0.000829  3.978964  0.002
C  C69  1  0.96137536  0.94302563  0.34267764  1  -0.013934  0.001799  -0.097392  -0.17997  0.000833  3.979011  0.002
C  C70  1  0.96006336  0.09184714  0.58904848  1  0.326851  0.002655  0.088229  0.16932  0.001814  4.067724  0.003
C  C71  1  0.03993127  0.90813746  0.41091468  1  0.327275  0.002666  0.088082  0.168844  0.001826  4.067477  0.003
C  C72  1  0.99880835  0.17439351  0.56185390  1  0.060968  -0.017113  0.012259  -0.049476  -0.017911  3.939933  -0.01
C  C73  1  0.00122929  0.82558004  0.43812339  1  0.061752  -0.017214  0.012227  -0.049066  -0.018016  3.939637  -0.01
C  C74  1  0.92463758  0.20059819  0.49152297  1  0.396323  0.000859  0.095129  0.185347  0.000327  4.034744  0.002
C  C75  1  0.07540819  0.79936515  0.50845711  1  0.397488  0.000855  0.095227  0.184957  0.000324  4.034454  0.002
C  C76  1  0.94705732  0.28944701  0.46524253  1  -0.080803  0.003375  -0.093035  -0.165314  0.002317  3.959819  0.003
C  C77  1  0.05301411  0.71049925  0.53473240  1  -0.08073  0.003391  -0.092769  -0.164561  0.002327  3.960295  0.003
C  C78  1  0.87450176  0.28509568  0.39116348  1  -0.046989  0.001913  -0.093107  -0.163649  0.001052  3.952841  0.002
C  C79  1  0.12559485  0.71483009  0.60879193  1  -0.045285  0.001916  -0.093316  -0.164504  0.001053  3.954059  0.002
C  C80  1  0.80364521  0.19448464  0.37245708  1  0.396006  0.003108  0.093449  0.181484  0.002261  4.043244  0.003
C  C81  1  0.19644196  0.80545747  0.62752017  1  0.395455  0.003127  0.093259  0.181684  0.002274  4.042977  0.003
C  C82  1  0.73096957  0.16007319  0.29973284  1  0.107684  -0.019693  0.015628  -0.043493  -0.02064  3.948011  -0.012
C  C83  1  0.26907266  0.83988271  0.70025851  1  0.107898  -0.019799  0.015939  -0.043653  -0.020749  3.947864  -0.012
C  C84  1  0.65333522  0.07449210  0.28523922  1  0.363315  0.00133  0.093482  0.183257  0.000857  4.059653  0.003
C  C85  1  0.34661347  0.92550836  0.71477564  1  0.331043  0.001387  0.093559  0.183118  0.00086  4.058758  0.003
C  C86  1  0.58430290  0.03361831  0.21114187  1  -0.056029  0.003511  -0.09037  -0.163578  0.002349  3.953812  0.003
C  C87  1  0.41558902  0.96641023  0.78888619  1  -0.023015  0.003475  -0.090453  -0.163413  0.002359  3.953595  0.003
C  C88  1  0.50739116  0.95469465  0.22050227  1  -0.072489  0.002023  -0.091121  -0.165573  0.001108  3.951266  0.002
C  C89  1  0.49245956  0.04533071  0.77953370  1  -0.073132  0.002032  -0.091157  -0.165714  0.001114  3.95073  0.002
C  C90  1  0.52881287  0.94754476  0.30049394  1  0.465766  0.003255  0.091666  0.173026  0.00228  4.065046  0.004
C  C91  1  0.47106773  0.05249470  0.69953534  1  0.464165  0.003272  0.09149  0.173253  0.002291  4.063844  0.004
C  C92  1  0.45679696  0.88001124  0.33270742  1  0.023202  -0.025163  0.015711  -0.038584  -0.026209  3.923169  -0.015
C  C93  1  0.54313865  0.12003609  0.66733548  1  0.024196  -0.025289  0.015589  -0.039007  -0.026341  3.922726  -0.015
C  C94  1  0.71201089  0.84081692  0.66234764  1  -0.069022  -0.000462  -0.003152  0.082464  -0.000579  3.980009  0.0
C  C95  1  0.28797642  0.15919758  0.33766270  1  -0.068429  -0.000464  -0.003332  0.082275  -0.000583  3.980637  0.0
C  C96  1  0.70291612  0.74559285  0.65337487  1  0.008848  -0.002325  -0.086382  -0.13015  -0.00243  3.960078  -0.002
C  C97  1  0.29711967  0.25442278  0.34663547  1  0.007775  -0.002344  -0.086216  -0.129787  -0.00245  3.959432  -0.002
C  C98  1  0.70185557  0.69267161  0.71401672  1  -0.040426  0.000465  -0.078611  -0.082227  0.000269  3.934691  0.0
C  C99  1  0.29818732  0.30734060  0.28599273  1  -0.040097  0.00047  -0.078843  -0.08267  0.000272  3.934868  0.0
C  C100  1  0.71057972  0.73400113  0.78562152  1  -0.074049  -0.002928  -0.011559  -0.024866  -0.002993  3.960933  -0.002
C  C101  1  0.28941352  0.26600928  0.21438284  1  -0.074465  -0.002951  -0.011508  -0.024799  -0.003016  3.960647  -0.002
C  C102  1  0.71952841  0.82873530  0.79527684  1  -0.036327  0.000362  -0.078632  -0.085065  0.000178  3.96122  0.0
C  C103  1  0.28043765  0.17127049  0.20473764  1  -0.036258  0.000366  -0.078798  -0.085421  0.000181  3.961664  0.0
C  C104  1  0.72014255  0.88134396  0.73454776  1  -0.00674  -0.001986  -0.089925  -0.130826  -0.002096  3.97158  -0.001
C  C105  1  0.27981695  0.11866865  0.26547054  1  -0.007802  -0.002003  -0.089781  -0.13053  -0.002114  3.972196  -0.001
C  C106  1  0.71684096  0.67821361  0.85188742  1  1.544486  -3e-06  0.197806  0.56951  -5.5e-05  4.225378  0.0
C  C107  1  0.28314875  0.32179546  0.14811809  1  1.545164  -3e-06  0.197601  0.569339  -5.5e-05  4.225846  0.0
C  C108  1  0.12291114  0.23949774  0.60374968  1  -0.058881  -0.000195  -0.003092  0.080614  -0.000378  3.990118  0.0
C  C109  1  0.87713143  0.76048528  0.39622313  1  -0.060021  -0.000194  -0.003527  0.079784  -0.00038  3.991607  0.0
C  C110  1  0.12744975  0.28165352  0.67463455  1  -0.090836  -0.002219  -0.087286  -0.130771  -0.002299  3.9557  -0.001
C  C111  1  0.87257893  0.71835059  0.32532756  1  -0.068714  -0.00223  -0.086846  -0.130054  -0.002312  3.955374  -0.001
C  C112  1  0.23436561  0.35309297  0.70574146  1  -0.024298  0.000385  -0.078112  -0.085847  0.000193  3.948546  0.0
C  C113  1  0.76565361  0.64691999  0.29421928  1  -0.045259  0.000386  -0.07765  -0.085378  0.000195  3.94877  0.0
C  C114  1  0.33873402  0.38292068  0.66636644  1  -0.034262  -0.002026  -0.015103  -0.043566  -0.002056  3.990202  -0.001
C  C115  1  0.66127688  0.61707537  0.33358716  1  -0.034432  -0.002038  -0.015506  -0.043705  -0.002068  3.990763  -0.001
C  C116  1  0.33777923  0.33878362  0.59693255  1  -0.067809  0.000156  -0.082239  -0.092974  6.9e-05  3.981695  0.0
C  C117  1  0.66226741  0.66119055  0.40302842  1  -0.067266  0.000158  -0.082145  -0.092959  7e-05  3.981269  0.0
C  C118  1  0.23169040  0.26791762  0.56630695  1  -0.000329  -0.001681  -0.088952  -0.125889  -0.001792  3.985617  -0.001
C  C119  1  0.76836202  0.73205856  0.43366189  1  -0.000438  -0.001693  -0.088978  -0.126194  -0.001804  3.986472  -0.001
C  C120  1  0.45846077  0.45757794  0.69647462  1  1.541315  -2.4e-05  0.225142  0.56708  -3.2e-05  4.158208  0.0
C  C121  1  0.54156545  0.54242414  0.30347510  1  1.541468  -2.5e-05  0.225073  0.567393  -3.2e-05  4.158551  0.0
C  C122  1  0.74760561  0.21581000  0.23669386  1  -0.049698  -0.000463  -0.003893  0.080294  -0.000669  4.014997  0.0
C  C123  1  0.25243244  0.78415337  0.76329236  1  -0.049507  -0.000467  -0.003874  0.080465  -0.000673  4.015798  0.0
C  C124  1  0.68033053  0.29652478  0.22491804  1  -0.010409  -0.001402  -0.091035  -0.138314  -0.001511  3.978216  -0.001
C  C125  1  0.31967875  0.70343738  0.77507387  1  -0.010289  -0.001414  -0.090933  -0.138235  -0.001523  3.977982  -0.001
C  C126  1  0.71318769  0.35371251  0.17188956  1  -0.066454  -2.7e-05  -0.078454  -0.075673  -2.3e-05  3.948143  0.0
C  C127  1  0.28683237  0.64626861  0.82812023  1  -0.070205  -2.5e-05  -0.078395  -0.075583  -2.1e-05  3.947306  0.0
C  C128  1  0.81627906  0.33169772  0.13162312  1  0.008951  -0.001651  -0.014067  -0.036425  -0.001651  3.948416  -0.001
C  C129  1  0.18374788  0.66829218  0.86839986  1  0.008545  -0.001666  -0.013807  -0.036007  -0.001667  3.94795  -0.001
C  C130  1  0.87932206  0.24940139  0.14105005  1  -0.029392  0.00015  -0.078772  -0.077291  6.7e-05  3.966184  0.0
C  C131  1  0.12075005  0.75060186  0.85895610  1  -0.028781  0.000152  -0.078961  -0.07783  6.8e-05  3.966317  0.0
C  C132  1  0.84344014  0.19129610  0.19243799  1  -0.057458  -0.001805  -0.091789  -0.143949  -0.001934  3.996667  -0.001
C  C133  1  0.15664378  0.80869215  0.80755593  1  -0.057384  -0.001818  -0.091647  -0.1435  -0.001948  3.996605  -0.001
C  C134  1  0.86829012  0.39693120  0.08178877  1  1.589754  4.6e-05  0.238648  0.666399  -0.000124  4.132209  0.0
C  C135  1  0.13171253  0.60307104  0.91824043  1  1.590283  4.6e-05  0.238693  0.666706  -0.000124  4.131908  0.0
C  C136  1  0.35015395  0.81344553  0.27891950  1  -0.076106  -0.000424  -0.005958  0.078524  -0.000616  4.014666  0.0
C  C137  1  0.64977667  0.18657267  0.72112983  1  -0.073951  -0.000426  -0.005631  0.078922  -0.00062  4.01578  0.0
C  C138  1  0.40553039  0.74126730  0.24594941  1  -0.038316  -0.001376  -0.09114  -0.134228  -0.001534  3.974913  -0.001
C  C139  1  0.59441602  0.25871626  0.75413870  1  -0.038977  -0.001383  -0.091018  -0.134045  -0.00154  3.975418  -0.001
C  C140  1  0.31302180  0.68114874  0.19110354  1  -0.002595  -0.003075  -0.076353  -0.06943  -0.003187  3.931876  -0.002
C  C141  1  0.68694749  0.31883944  0.80896193  1  -0.067751  -0.003089  -0.076102  -0.069117  -0.003192  3.930934  -0.002
C  C142  1  0.16349387  0.69355455  0.16667322  1  -0.137288  -0.000493  -0.011319  -0.033371  -0.000418  3.942147  0.0
C  C143  1  0.83651051  0.30645785  0.83335659  1  -0.072387  -0.000487  -0.011751  -0.033872  -0.000422  3.941644  0.0
C  C144  1  0.10808465  0.76692843  0.19820846  1  -0.006973  -0.000289  -0.081037  -0.086619  -0.000254  3.97597  0.0
C  C145  1  0.89188945  0.23309156  0.80178519  1  -0.007084  -0.00029  -0.080953  -0.08648  -0.000254  3.975657  0.0
C  C146  1  0.20037155  0.82600928  0.25454477  1  -0.004892  -0.001191  -0.098222  -0.150469  -0.001291  3.986993  -0.001
C  C147  1  0.79955479  0.17402043  0.74545321  1  -0.00502  -0.001198  -0.098572  -0.150649  -0.001299  3.987703  -0.001
C  C148  1  0.06628807  0.63040479  0.10544476  1  1.582905  -0.0001  0.232975  0.653681  -0.000167  4.145592  0.0
C  C149  1  0.93373034  0.36959939  0.89457500  1  1.582067  -0.0001  0.233042  0.653822  -0.000166  4.145503  0.0
C  C150  1  0.51104708  0.55456878  0.03392204  1  1.797065  -0.172687  0.278718  0.562381  -0.191387  4.175724  -0.086
C  C151  1  0.48890346  0.44546897  0.96610650  1  1.791939  -0.173862  0.27856  0.561796  -0.191541  4.17623  -0.086
N  N152  1  0.60422430  0.91704880  0.46328301  1  -1.134842  0.05647  -0.370336  -0.365625  0.03802  3.468763  0.05
N  N153  1  0.39576502  0.08297722  0.53672038  1  -1.136172  0.056558  -0.370233  -0.365668  0.038074  3.468713  0.05
N  N154  1  0.83447939  0.03427612  0.55653004  1  -1.134744  0.060511  -0.365543  -0.354759  0.040756  3.442135  0.053
N  N155  1  0.16551273  0.96571934  0.44342832  1  -1.134377  0.060618  -0.365414  -0.354627  0.040828  3.442702  0.053
N  N156  1  0.83188756  0.14424460  0.43506167  1  -1.138573  0.055615  -0.369291  -0.353785  0.037517  3.475757  0.049
N  N157  1  0.16815622  0.85570043  0.56491417  1  -1.138373  0.055724  -0.369311  -0.35374  0.037591  3.475407  0.049
N  N158  1  0.62028605  0.02057713  0.33946560  1  -1.172405  0.056498  -0.366316  -0.359983  0.038045  3.471334  0.05
N  N159  1  0.37965979  0.97944573  0.66055851  1  -1.172077  0.056616  -0.36627  -0.360077  0.038127  3.471272  0.05
O  O160  1  0.75444840  0.71434292  0.91824962  1  -1.158411  -0.00144  -0.349929  -0.588842  -0.001248  2.136484  -0.001
O  O161  1  0.24548534  0.28565354  0.08176543  1  -1.158495  -0.001446  -0.349765  -0.588735  -0.001254  2.136644  -0.001
O  O162  1  0.69059868  0.59068423  0.84048625  1  -1.208988  -0.000445  -0.384845  -0.659723  -0.000137  2.29258  0.0
O  O163  1  0.30942654  0.40932059  0.15951746  1  -1.209362  -0.000447  -0.384654  -0.659527  -0.000139  2.292962  0.0
O  O164  1  0.46007880  0.48978326  0.76601626  1  -1.182763  -0.000937  -0.329789  -0.489339  -0.000767  2.338069  -0.001
O  O165  1  0.53992743  0.51025553  0.23391769  1  -1.182577  -0.00094  -0.329651  -0.489468  -0.000769  2.338083  -0.001
O  O166  1  0.54704730  0.48428175  0.66050461  1  -1.144262  -0.000924  -0.303903  -0.500724  -0.000899  2.081499  -0.001
O  O167  1  0.45300724  0.51569984  0.33944943  1  -1.144614  -0.000929  -0.303669  -0.500806  -0.000903  2.082044  -0.001
O  O168  1  0.79394613  0.46300129  0.06107894  1  -1.198163  -0.004559  -0.390552  -0.675059  -0.004382  2.301362  -0.004
O  O169  1  0.20604461  0.53699489  0.93893874  1  -1.198533  -0.004566  -0.390553  -0.67509  -0.00439  2.301454  -0.004
O  O170  1  0.98734053  0.38125770  0.06416523  1  -1.193961  -0.00286  -0.419343  -0.685369  -0.00274  2.396229  -0.002
O  O171  1  0.01267374  0.61876144  0.93586879  1  -1.194026  -0.002861  -0.419358  -0.685809  -0.002741  2.395972  -0.002
O  O172  1  0.11943024  0.55999870  0.08427418  1  -1.205531  -0.002234  -0.417098  -0.715928  -0.001982  2.400967  -0.002
O  O173  1  0.88060584  0.44000677  0.91576089  1  -1.206517  -0.002232  -0.417103  -0.716101  -0.001981  2.401008  -0.002
O  O174  1  0.93666905  0.65018804  0.07663493  1  -1.177955  -0.00152  -0.388495  -0.63377  -0.001463  2.208717  -0.001
O  O175  1  0.06335524  0.34979848  0.92337013  1  -1.176928  -0.001521  -0.388383  -0.633688  -0.001463  2.208159  -0.001
O  O176  1  0.60640695  0.60898671  0.02197718  1  -1.095393  -0.148313  -0.272336  -0.465883  -0.143136  2.284834  -0.118
O  O177  1  0.39357578  0.39102784  0.97806259  1  -1.094581  -0.148334  -0.272251  -0.465739  -0.143173  2.285549  -0.118
O  O178  1  0.42383045  0.54354437  0.07329057  1  -1.101467  -0.155761  -0.256625  -0.460062  -0.150496  2.377042  -0.127
O  O179  1  0.57610960  0.45650225  0.92672720  1  -1.100824  -0.15575  -0.25681  -0.459936  -0.150507  2.376601  -0.127
