# generated using pymatgen
data_ZnH20C30(NO3)2
_symmetry_space_group_name_H-M   'P 1'
_cell_length_a   9.43569948
_cell_length_b   10.87887670
_cell_length_c   28.14953719
_cell_angle_alpha   89.22888842
_cell_angle_beta   89.70061447
_cell_angle_gamma   89.37475207
_symmetry_Int_Tables_number   1
_chemical_formula_structural   ZnH20C30(NO3)2
_chemical_formula_sum   'Zn2 H40 C60 N4 O12'
_cell_volume   2889.07369237
_cell_formula_units_Z   2
loop_
 _symmetry_equiv_pos_site_id
 _symmetry_equiv_pos_as_xyz
  1  'x, y, z'
loop_
 _atom_site_type_symbol
 _atom_site_label
 _atom_site_symmetry_multiplicity
 _atom_site_fract_x
 _atom_site_fract_y
 _atom_site_fract_z
 _atom_site_occupancy
 _atom_site_pbe_bader_charge
 _atom_site_pbe_bader_spin_density
 _atom_site_pbe_cm5_charge
 _atom_site_pbe_ddec_charge
 _atom_site_pbe_ddec_spin_density
 _atom_site_pbe_ddec_sum_bond_order
 _atom_site_pbe_magmom
Zn  Zn0  1  0.35619197  0.49760548  0.50017521  1  1.263088  0  0.656652  0.785655  0  2.486107  0
Zn  Zn1  1  0.64381666  0.50235419  0.49974233  1  1.267929  0  0.656539  0.785364  0  2.486965  0
H  H2  1  0.27724674  0.46057232  0.34777207  1  0.094804  0  0.104187  0.104173  0  1.004695  0
H  H3  1  0.71891275  0.55561239  0.65182472  1  0.109883  0  0.104497  0.104348  0  1.004333  0
H  H4  1  0.35020206  0.07525351  0.56499826  1  0.05039  0  0.094265  0.0835  0  0.997223  0
H  H5  1  0.64981196  0.92469379  0.43501560  1  0.050131  0  0.09442  0.083878  0  0.996996  0
H  H6  1  0.25451261  0.93413791  0.48715902  1  0.029025  0  0.089457  0.076255  0  1.008956  0
H  H7  1  0.74547083  0.06579462  0.51287165  1  0.028111  0  0.089568  0.076364  0  1.009085  0
H  H8  1  0.09867359  0.42883394  0.57487756  1  0.13975  0  0.12581  0.107982  0  0.965399  0
H  H9  1  0.90131151  0.57123219  0.42508287  1  0.14116  0  0.126075  0.108483  0  0.965071  0
H  H10  1  0.89984063  0.29860948  0.51448878  1  0.131503  0  0.125416  0.108504  0  0.970694  0
H  H11  1  0.10015260  0.70139599  0.48546979  1  0.1318  0  0.125473  0.108695  0  0.970383  0
H  H12  1  0.10094141  0.36749111  0.43975151  1  0.113854  0  0.126534  0.106795  0  0.963031  0
H  H13  1  0.89905958  0.63248587  0.56020184  1  0.114786  0  0.12638  0.106604  0  0.963527  0
H  H14  1  0.27754502  0.45690771  0.25852664  1  0.082861  0  0.109085  0.116346  0  0.981256  0
H  H15  1  0.71873387  0.56038846  0.74105139  1  0.088781  0  0.108979  0.115479  0  0.981476  0
H  H16  1  0.44937251  0.19100234  0.12210515  1  0.130777  0  0.116749  0.122553  0  0.979302  0
H  H17  1  0.50521420  0.81410985  0.87785518  1  0.13775  0  0.116701  0.122437  0  0.979567  0
H  H18  1  0.27968139  0.45905496  0.65342938  1  0.081631  0  0.103696  0.103865  0  1.008172  0
H  H19  1  0.72444416  0.52561367  0.34678218  1  0.089283  0  0.10292  0.102345  0  1.009614  0
H  H20  1  0.27932174  0.45964824  0.74265054  1  0.085019  0  0.108581  0.115193  0  0.979941  0
H  H21  1  0.72561547  0.52503374  0.25755711  1  0.063664  0  0.108579  0.115827  0  0.981347  0
H  H22  1  0.49582508  0.19738061  0.87729121  1  0.117688  0  0.116685  0.122459  0  0.979552  0
H  H23  1  0.55210350  0.80040129  0.12250895  1  0.110655  0  0.116764  0.122869  0  0.978755  0
H  H24  1  0.49192964  0.19012688  0.96540554  1  0.053247  0  0.104403  0.102005  0  1.010248  0
H  H25  1  0.54900590  0.80822420  0.03443217  1  0.059275  0  0.104499  0.102317  0  1.010133  0
H  H26  1  0.45268565  0.19045486  0.03402805  1  0.04586  0  0.104593  0.102674  0  1.008992  0
H  H27  1  0.50973593  0.81396801  0.96593294  1  0.055314  0  0.104241  0.101288  0  1.01099  0
H  H28  1  0.60933222  0.87845710  0.68786031  1  0.036002  0  0.085603  0.116198  0  1.003283  0
H  H29  1  0.78591853  0.88017410  0.66590178  1  0.00224  0  0.07771  0.097288  0  1.01713  0
H  H30  1  0.71712705  0.00838194  0.69740573  1  -0.000942  0  0.085102  0.111502  0  1.004053  0
H  H31  1  0.72093430  0.05500813  0.60959992  1  0.009935  0  0.084395  0.069316  0  0.980678  0
H  H32  1  0.54594008  0.05416900  0.63158410  1  0.022894  0  0.087984  0.074443  0  0.97701  0
H  H33  1  0.51690127  0.83718005  0.60331740  1  0.022499  0  0.092212  0.093871  0  0.971639  0
H  H34  1  0.69203028  0.83720466  0.58110330  1  0.01631  0  0.087508  0.084575  0  0.99182  0
H  H35  1  0.21358475  0.11921875  0.33420178  1  0.007559  0  0.078104  0.097834  0  1.015997  0
H  H36  1  0.38997822  0.12111929  0.31213048  1  0.032267  0  0.085821  0.116488  0  1.002544  0
H  H37  1  0.28238561  0.99102462  0.30271339  1  0.044732  0  0.084906  0.110831  0  1.004958  0
H  H38  1  0.45396225  0.94554010  0.36846655  1  0.023136  0  0.088082  0.074874  0  0.976915  0
H  H39  1  0.27906430  0.94462145  0.39054117  1  0.007555  0  0.084095  0.069004  0  0.980575  0
H  H40  1  0.30787629  0.16259846  0.41888865  1  0.01915  0  0.087601  0.084833  0  0.991439  0
H  H41  1  0.48295799  0.16259199  0.39663926  1  0.025401  0  0.09192  0.093335  0  0.971996  0
C  C42  1  0.50363840  0.26008390  0.50206318  1  1.466944  0  0.212965  0.601224  0  4.177319  0
C  C43  1  0.49641484  0.73986542  0.49790300  1  1.470052  0  0.213074  0.601299  0  4.176984  0
C  C44  1  0.50098080  0.49652774  0.10152827  1  -0.155508  0  0.003527  0.036593  0  4.003033  0
C  C45  1  0.50063111  0.50489568  0.89834759  1  -0.195165  0  0.003824  0.037084  0  4.000316  0
C  C46  1  0.48278715  0.38412015  0.12669194  1  0.144218  0  -0.010687  -0.071128  0  4.001813  0
C  C47  1  0.50297868  0.61853578  0.87319707  1  -0.031161  0  -0.010921  -0.071433  0  3.997486  0
C  C48  1  0.46482794  0.27599074  0.10185189  1  -0.079926  0  -0.06817  -0.067098  0  3.975583  0
C  C49  1  0.50522639  0.72789843  0.89807563  1  -0.003638  0  -0.068797  -0.068262  0  3.973775  0
C  C50  1  0.51913705  0.60689379  0.12678693  1  -0.088041  0  -0.010986  -0.071057  0  4.001998  0
C  C51  1  0.49800558  0.39325683  0.87308145  1  0.068835  0  -0.010889  -0.071552  0  4.000208  0
C  C52  1  0.50072368  0.49352494  0.35232838  1  -0.122077  0  -0.014247  -0.02994  0  3.957851  0
C  C53  1  0.49940051  0.50697348  0.64756626  1  -0.074038  0  -0.013781  -0.026793  0  3.953907  0
C  C54  1  0.49382172  0.38720614  0.97388160  1  0.002827  0  0.004473  0.041765  0  3.974843  0
C  C55  1  0.51486153  0.61365714  0.02598601  1  -0.131397  0  0.004019  0.041025  0  3.976048  0
C  C56  1  0.50793233  0.61628655  0.97406688  1  0.005739  0  0.004107  0.038029  0  3.979621  0
C  C57  1  0.48696913  0.38564897  0.02582607  1  -0.088541  0  0.004052  0.038314  0  3.977648  0
C  C58  1  0.50083928  0.50276669  0.94919053  1  0.145167  0  0.004182  0.001549  0  3.914784  0
C  C59  1  0.50093289  0.49863640  0.05069048  1  0.135979  0  0.004129  0.000702  0  3.914632  0
C  C60  1  0.49354790  0.27924420  0.94733293  1  -0.009977  0  -0.083042  -0.123983  0  3.977562  0
C  C61  1  0.53439941  0.72011073  0.05251064  1  -0.001796  0  -0.08296  -0.12447  0  3.978976  0
C  C62  1  0.49599680  0.28183614  0.89772465  1  -0.098508  0  -0.06873  -0.06782  0  3.975441  0
C  C63  1  0.53682826  0.71711890  0.10211433  1  0.060932  0  -0.068342  -0.067412  0  3.974189  0
C  C64  1  0.50003750  0.49656439  0.40563209  1  1.626994  0  0.210795  0.584182  0  4.191304  0
C  C65  1  0.49999143  0.50365273  0.59427394  1  1.618036  0  0.210938  0.584015  0  4.192001  0
C  C66  1  0.46728827  0.27707135  0.05223343  1  -0.019857  0  -0.083384  -0.12416  0  3.97852  0
C  C67  1  0.50802594  0.72636810  0.94768554  1  -0.035391  0  -0.082846  -0.121998  0  3.977272  0
C  C68  1  0.41613026  0.04018484  0.53595593  1  -0.035771  0  -0.078019  -0.096552  0  3.644006  0
C  C69  1  0.58387007  0.95975513  0.46405230  1  -0.036026  0  -0.078327  -0.097267  0  3.644839  0
C  C70  1  0.54832287  0.95218315  0.54207110  1  0.039441  0  0.004653  0.108906  0  3.618084  0
C  C71  1  0.45166490  0.04774304  0.45793757  1  0.042363  0  0.004534  0.108757  0  3.618684  0
C  C72  1  0.49381844  0.87579286  0.49807035  1  0.055843  0  -0.011256  -0.062837  0  3.67305  0
C  C73  1  0.50619672  0.12414904  0.50191653  1  0.055195  0  -0.011395  -0.063438  0  3.673001  0
C  C74  1  0.36346299  0.96400133  0.49291166  1  -0.031936  0  -0.085468  -0.105446  0  3.663741  0
C  C75  1  0.63653212  0.03593127  0.50710123  1  -0.03029  0  -0.085594  -0.105477  0  3.664026  0
C  C76  1  0.95202181  0.38653042  0.50819985  1  0.198103  0  0.032413  0.035405  0  3.539047  0
C  C77  1  0.04798425  0.61346587  0.49175198  1  0.198662  0  0.032601  0.035554  0  3.539484  0
C  C78  1  0.04732430  0.45983951  0.54208654  1  0.168981  0  0.032542  0.034307  0  3.547325  0
C  C79  1  0.95267634  0.54016690  0.45786597  1  0.166916  0  0.031991  0.032817  0  3.548192  0
C  C80  1  0.04888010  0.42557136  0.46613318  1  0.215614  0  0.03186  0.032244  0  3.549376  0
C  C81  1  0.95111964  0.57442219  0.53381477  1  0.213499  0  0.0322  0.032281  0  3.549141  0
C  C82  1  0.48213134  0.37957277  0.17926923  1  1.272129  0  0.239836  0.429698  0  4.113122  0
C  C83  1  0.50169588  0.62310085  0.82060839  1  1.387328  0  0.240873  0.437286  0  4.109352  0
C  C84  1  0.51996461  0.60724480  0.17932911  1  1.396903  0  0.240231  0.430666  0  4.111607  0
C  C85  1  0.49845967  0.39278744  0.82053624  1  1.351078  0  0.240062  0.436525  0  4.109597  0
C  C86  1  0.62807374  0.50998511  0.27760426  1  -0.057736  0  -0.084899  -0.153663  0  3.984573  0
C  C87  1  0.37478198  0.48173242  0.72246008  1  -0.0936  0  -0.084305  -0.150781  0  3.980054  0
C  C88  1  0.62733010  0.51082573  0.32703382  1  0.06582  0  -0.080488  -0.076193  0  3.97693  0
C  C89  1  0.37515083  0.48085891  0.67303059  1  0.08047  0  -0.081288  -0.080478  0  3.97855  0
C  C90  1  0.37472766  0.47404036  0.32758266  1  0.04103  0  -0.078575  -0.074054  0  3.973779  0
C  C91  1  0.62320984  0.53550070  0.67213555  1  -0.04145  0  -0.078346  -0.075362  0  3.973236  0
C  C92  1  0.37481682  0.47243797  0.27815696  1  -0.082426  0  -0.084271  -0.155207  0  3.982694  0
C  C93  1  0.62324854  0.53767667  0.72156163  1  0.006809  0  -0.083587  -0.152972  0  3.979755  0
C  C94  1  0.50156412  0.49105863  0.25354604  1  0.341394  0  0.089924  0.195095  0  4.017607  0
C  C95  1  0.49905327  0.51003804  0.74633972  1  0.273425  0  0.089398  0.198738  0  4.019005  0
C  C96  1  0.59957304  0.89751471  0.58817068  1  0.006663  0  -0.16159  -0.19833  0  3.981085  0
C  C97  1  0.63879721  0.99447969  0.62474903  1  -0.001128  0  -0.163437  -0.080059  0  3.969964  0
C  C98  1  0.69059122  0.93750682  0.67155554  1  -0.051802  0  -0.245838  -0.356746  0  3.990668  0
C  C99  1  0.40032826  0.10228469  0.41183196  1  -0.000918  0  -0.161281  -0.19758  0  3.981261  0
C  C100  1  0.36106971  0.00517604  0.37531685  1  -0.003894  0  -0.163896  -0.081359  0  3.971653  0
C  C101  1  0.30896297  0.06197528  0.32852266  1  -0.095209  0  -0.246003  -0.356474  0  3.991277  0
N  N102  1  0.50157832  0.49241518  0.20229806  1  -1.221079  0  -0.23028  -0.20744  0  3.575035  0
N  N103  1  0.49952364  0.50884109  0.79760818  1  -1.175092  0  -0.231504  -0.226185  0  3.595439  0
N  N104  1  0.14218411  0.49885763  0.50003731  1  -0.826608  0  -0.31014  -0.169483  0  3.068067  0
N  N105  1  0.85782094  0.50113500  0.49991134  1  -0.826514  0  -0.310112  -0.168565  0  3.066938  0
O  O106  1  0.38119104  0.31120784  0.50160199  1  -1.163129  0  -0.323777  -0.546482  0  2.304094  0
O  O107  1  0.61886644  0.68877442  0.49776224  1  -1.16159  0  -0.323888  -0.546648  0  2.304365  0
O  O108  1  0.62191692  0.31581431  0.50170566  1  -1.153012  0  -0.320861  -0.553145  0  2.325891  0
O  O109  1  0.37813396  0.68412235  0.49885029  1  -1.157919  0  -0.321061  -0.553177  0  2.325454  0
O  O110  1  0.37966977  0.49496370  0.42630425  1  -1.171278  0  -0.320747  -0.552143  0  2.307564  0
O  O111  1  0.62025126  0.50722003  0.57357417  1  -1.169616  0  -0.320584  -0.552417  0  2.308882  0
O  O112  1  0.61998553  0.50066679  0.42606898  1  -1.169772  0  -0.320756  -0.555661  0  2.319142  0
O  O113  1  0.38013116  0.49740156  0.57389821  1  -1.167621  0  -0.320847  -0.55572  0  2.318692  0
O  O114  1  0.46622117  0.28363124  0.20220730  1  -1.096004  0  -0.277865  -0.437073  0  2.069857  0
O  O115  1  0.50210663  0.72008917  0.79764324  1  -1.111412  0  -0.279002  -0.437852  0  2.063884  0
O  O116  1  0.49811796  0.29751907  0.79750966  1  -1.093188  0  -0.279382  -0.436544  0  2.061243  0
O  O117  1  0.53514082  0.70150568  0.20231016  1  -1.099103  0  -0.279542  -0.436791  0  2.06651  0
