# generated using pymatgen
data_Mn2H18(C4O3)3
_symmetry_space_group_name_H-M   'P 1'
_cell_length_a   7.55168711
_cell_length_b   9.02702801
_cell_length_c   11.48453188
_cell_angle_alpha   107.62811539
_cell_angle_beta   109.18418678
_cell_angle_gamma   89.99618411
_symmetry_Int_Tables_number   1
_chemical_formula_structural   Mn2H18(C4O3)3
_chemical_formula_sum   'Mn4 H36 C24 O18'
_cell_volume   700.38060769
_cell_formula_units_Z   2
loop_
 _symmetry_equiv_pos_site_id
 _symmetry_equiv_pos_as_xyz
  1  'x, y, z'
loop_
 _atom_site_type_symbol
 _atom_site_label
 _atom_site_symmetry_multiplicity
 _atom_site_fract_x
 _atom_site_fract_y
 _atom_site_fract_z
 _atom_site_occupancy
 _atom_site_hle17_ddec_charge
 _atom_site_hle17_ddec_spin_density
 _atom_site_hle17_ddec_sum_bond_order
 _atom_site_hle17_magmom
 _atom_site_hse06_10hf_ddec_charge
 _atom_site_hse06_10hf_ddec_spin_density
 _atom_site_hse06_10hf_ddec_sum_bond_order
 _atom_site_hse06_10hf_magmom
 _atom_site_hse06_ddec_charge
 _atom_site_hse06_ddec_spin_density
 _atom_site_hse06_ddec_sum_bond_order
 _atom_site_hse06_magmom
 _atom_site_pbe_cm5_charge
 _atom_site_pbe_ddec_charge
 _atom_site_pbe_ddec_spin_density
 _atom_site_pbe_ddec_sum_bond_order
 _atom_site_pbe_magmom
Mn  Mn0  1  0.81712047  0.96124246  0.04495230  1  1.263342  4.793162  1.659706  4.686  1.105803  4.722428  2.142736  4.552  1.165403  4.762426  2.07051  4.611  0.610518  1.058403  4.681814  2.196132  4.495
Mn  Mn1  1  0.77226949  0.53872396  0.95510036  1  1.262983  4.792793  1.661744  4.686  1.105817  4.721864  2.144913  4.552  1.165329  4.762  2.072623  4.611  0.610595  1.058485  4.681076  2.198249  4.494
Mn  Mn2  1  0.18288186  0.03875853  0.95504777  1  1.263288  4.793165  1.659767  4.686  1.105737  4.722433  2.142804  4.552  1.165345  4.762428  2.070577  4.611  0.610488  1.058329  4.68182  2.196198  4.495
Mn  Mn3  1  0.22772831  0.46127469  0.04489991  1  1.263007  4.79279  1.661744  4.686  1.105804  4.721865  2.144921  4.552  1.165318  4.762  2.072636  4.611  0.61059  1.058471  4.681077  2.198256  4.494
H  H4  1  0.23238992  0.59095501  0.68827089  1  0.10194  -0.000226  0.952615  0.0  0.115277  -0.000129  1.016745  0.0  0.117184  -0.000195  1.01655  0.0  0.097188  0.113713  -4.6e-05  1.017494  0.0
H  H5  1  0.54407607  0.90904762  0.31186293  1  0.101578  -0.000217  0.952589  0.0  0.115181  -0.000117  1.016206  0.0  0.117018  -0.000186  1.016048  0.0  0.097159  0.113644  -3.7e-05  1.017003  0.0
H  H6  1  0.76760804  0.40904481  0.31172882  1  0.101962  -0.000223  0.952587  0.0  0.115287  -0.000129  1.016721  0.0  0.117194  -0.000195  1.016527  0.0  0.097198  0.113725  -4.6e-05  1.017472  0.0
H  H7  1  0.45592766  0.09095336  0.68813919  1  0.101555  -0.000206  0.952603  0.0  0.115152  -0.000117  1.016213  0.0  0.11699  -0.000186  1.016054  0.0  0.097137  0.113625  -3.7e-05  1.016999  0.0
H  H8  1  0.45934217  0.53709404  0.68770388  1  0.110807  7e-06  0.945847  0.0  0.123745  0.000304  1.009436  0.0  0.126367  0.000114  1.008312  0.0  0.10142  0.121785  0.000553  1.010375  0.001
H  H9  1  0.77136255  0.96285572  0.31209121  1  0.110557  4.8e-05  0.946771  0.0  0.123186  0.000352  1.01047  0.001  0.12585  0.00015  1.009251  0.0  0.101368  0.121242  0.000611  1.011426  0.001
H  H10  1  0.54065719  0.46290577  0.31229701  1  0.110868  1.1e-05  0.945874  0.0  0.123793  0.000304  1.009455  0.0  0.126414  0.000114  1.00833  0.0  0.101448  0.121833  0.000553  1.010392  0.001
H  H11  1  0.22863946  0.03714293  0.68790737  1  0.110514  4.5e-05  0.946778  0.0  0.123136  0.000352  1.010477  0.001  0.125801  0.000149  1.009254  0.0  0.101329  0.121189  0.000611  1.011436  0.001
H  H12  1  0.09196501  0.31337215  0.56552129  1  0.062184  -8.1e-05  0.941335  0.0  0.084203  -2.7e-05  0.999321  0.0  0.08433  -4e-05  1.000869  0.0  0.089759  0.084132  -1.5e-05  0.998301  0.0
H  H13  1  0.52654009  0.18685036  0.43444167  1  0.061617  -5.9e-05  0.94193  0.0  0.083767  -3e-05  0.999674  0.0  0.083944  -4e-05  1.001158  0.0  0.089524  0.083661  -1.4e-05  0.998705  0.0
H  H14  1  0.90803295  0.68662768  0.43447842  1  0.062107  -8.8e-05  0.941318  0.0  0.084159  -2.7e-05  0.999278  0.0  0.084287  -4e-05  1.000825  0.0  0.089711  0.084089  -1.5e-05  0.998257  0.0
H  H15  1  0.47346272  0.81315415  0.56555675  1  0.061622  -7.4e-05  0.94192  0.0  0.083731  -3e-05  0.99971  0.0  0.083907  -4e-05  1.001196  0.0  0.089512  0.083624  -1.4e-05  0.998739  0.0
H  H16  1  0.31626003  0.25575760  0.57065122  1  0.057988  -4.4e-05  0.954783  0.0  0.077443  2.2e-05  1.018633  0.0  0.077805  -3e-06  1.019574  0.0  0.088658  0.076459  5.7e-05  1.019344  0.0
H  H17  1  0.74570153  0.24418351  0.42914737  1  0.057814  -5.4e-05  0.953832  0.0  0.077418  1.3e-05  1.017811  0.0  0.077787  -1.1e-05  1.018771  0.0  0.088608  0.076443  5e-05  1.018499  0.0
H  H18  1  0.68373933  0.74424221  0.42934967  1  0.057999  -5.2e-05  0.954769  0.0  0.077451  2.3e-05  1.018622  0.0  0.077813  -3e-06  1.019562  0.0  0.088656  0.076467  5.7e-05  1.019333  0.0
H  H19  1  0.25430485  0.75581632  0.57085070  1  0.057767  -5.7e-05  0.953896  0.0  0.077381  1.2e-05  1.01785  0.0  0.07775  -1.1e-05  1.018811  0.0  0.088553  0.076388  5e-05  1.018558  0.0
H  H20  1  0.12642244  0.49053785  0.43693697  1  0.057505  -6.9e-05  0.950635  0.0  0.078894  -5.9e-05  1.010306  0.0  0.078834  -6e-05  1.01175  0.0  0.088444  0.078518  -5.6e-05  1.010525  0.0
H  H21  1  0.68940729  0.00957533  0.56292274  1  0.057463  -7.4e-05  0.950622  0.0  0.078773  -5.3e-05  1.010447  0.0  0.078728  -5.6e-05  1.011865  0.0  0.088192  0.078376  -5e-05  1.010739  0.0
H  H22  1  0.87357942  0.50945963  0.56306303  1  0.057522  -8e-05  0.950629  0.0  0.07889  -5.9e-05  1.010325  0.0  0.078834  -6.1e-05  1.01177  0.0  0.088442  0.078517  -5.6e-05  1.010544  0.0
H  H23  1  0.31059645  0.99042567  0.43707416  1  0.057503  -5.7e-05  0.950578  0.0  0.078841  -5.4e-05  1.010378  0.0  0.078795  -5.6e-05  1.011798  0.0  0.088247  0.078445  -5e-05  1.010676  0.0
H  H24  1  0.34571684  0.42385682  0.43949832  1  0.062983  -0.000149  0.943434  0.0  0.081549  -0.000105  1.006563  0.0  0.082583  -0.000135  1.00641  0.0  0.089597  0.080763  -6.1e-05  1.006758  0.0
H  H25  1  0.90618072  0.07604854  0.56033178  1  0.063052  -0.000124  0.942975  0.0  0.081771  -7.2e-05  1.005885  0.0  0.082819  -0.000107  1.005691  0.0  0.089773  0.080988  -1.6e-05  1.006104  0.0
H  H26  1  0.65428532  0.57614299  0.56050404  1  0.063012  -0.000167  0.943398  0.0  0.081564  -0.000105  1.006536  0.0  0.082602  -0.000135  1.006384  0.0  0.08959  0.080778  -6.1e-05  1.006732  0.0
H  H27  1  0.09382301  0.92395245  0.43966773  1  0.063062  -0.000122  0.942966  0.0  0.081785  -7.2e-05  1.005891  0.0  0.082832  -0.000107  1.005696  0.0  0.089779  0.081004  -1.6e-05  1.006109  0.0
H  H28  1  0.95917608  0.22441685  0.30679077  1  0.108322  0.000313  0.955932  0.0  0.12184  0.00085  1.020284  0.001  0.124443  0.000568  1.018859  0.001  0.10351  0.119908  0.00113  1.021509  0.001
H  H29  1  0.65255921  0.27560010  0.69326576  1  0.109122  0.00033  0.955498  0.001  0.122191  0.00088  1.020358  0.001  0.124816  0.000589  1.018912  0.001  0.103641  0.120233  0.001168  1.021603  0.001
H  H30  1  0.04082997  0.77558062  0.69321101  1  0.108334  0.000308  0.955923  0.0  0.121864  0.00085  1.020269  0.001  0.124466  0.000568  1.018848  0.001  0.103511  0.119929  0.00113  1.021497  0.001
H  H31  1  0.34744281  0.72439856  0.30673281  1  0.109115  0.000329  0.955513  0.001  0.122178  0.00088  1.020356  0.001  0.12481  0.000589  1.018902  0.001  0.103645  0.120219  0.001168  1.0216  0.001
H  H32  1  0.17077600  0.14176525  0.32734840  1  0.112643  -0.000256  0.946247  0.0  0.125244  3.8e-05  1.012804  0.001  0.127504  -0.000136  1.01218  0.0  0.105888  0.122855  0.000221  1.014536  0.001
H  H33  1  0.84347213  0.35829982  0.67257807  1  0.112205  -0.000255  0.947205  0.0  0.125637  4.9e-05  1.012849  0.001  0.127904  -0.00013  1.012272  0.0  0.105896  0.123215  0.000244  1.014588  0.001
H  H34  1  0.82923022  0.85823340  0.67265196  1  0.112632  -0.000257  0.946181  0.0  0.12522  3.8e-05  1.012762  0.001  0.12748  -0.000136  1.012134  0.0  0.105864  0.122832  0.000221  1.014492  0.001
H  H35  1  0.15653019  0.64170116  0.32742288  1  0.112225  -0.000253  0.947185  0.0  0.125641  4.9e-05  1.012826  0.001  0.127906  -0.00013  1.012254  0.0  0.105914  0.12322  0.000244  1.014564  0.001
H  H36  1  0.48567719  0.78837418  0.94144155  1  0.427243  -0.000519  0.872767  0.001  0.395064  0.000568  0.942072  0.002  0.406752  0.000155  0.925415  0.002  0.300407  0.386733  0.000962  0.953879  0.003
H  H37  1  0.54414640  0.71161293  0.05861901  1  0.426875  -0.000508  0.873096  0.001  0.394896  0.000582  0.942368  0.002  0.406619  0.000164  0.925659  0.002  0.300321  0.38654  0.000972  0.954211  0.003
H  H38  1  0.51432358  0.21162564  0.05855877  1  0.427231  -0.000517  0.872785  0.001  0.395049  0.000568  0.942096  0.002  0.406737  0.000155  0.92544  0.002  0.300401  0.386719  0.000963  0.953904  0.003
H  H39  1  0.45585312  0.28838806  0.94138133  1  0.426898  -0.000508  0.873073  0.001  0.39493  0.000583  0.942321  0.002  0.406652  0.000164  0.925612  0.002  0.300327  0.386574  0.000972  0.954164  0.003
C  C40  1  0.54310919  0.04603631  0.18989510  1  0.727403  0.011163  3.789629  0.011  0.677902  0.018787  4.085352  0.017  0.713357  0.013864  4.077509  0.013  0.228873  0.652674  0.024294  4.090112  0.021
C  C41  1  0.35352317  0.45390867  0.81012695  1  0.728136  0.011315  3.791005  0.011  0.679299  0.018961  4.086189  0.017  0.71494  0.013993  4.07815  0.013  0.229111  0.653881  0.024579  4.091128  0.021
C  C42  1  0.45689298  0.95396351  0.81010466  1  0.727397  0.011166  3.789651  0.011  0.677817  0.018787  4.085479  0.017  0.713274  0.013865  4.077636  0.013  0.228839  0.65259  0.024294  4.09024  0.021
C  C43  1  0.64647495  0.54609232  0.18987395  1  0.728079  0.011332  3.791082  0.011  0.679198  0.018961  4.086315  0.017  0.714838  0.013992  4.07828  0.013  0.22905  0.653781  0.02458  4.091253  0.021
C  C44  1  0.32235704  0.49554802  0.68747747  1  -0.280945  0.000435  3.66786  0.0  -0.323464  0.001063  3.926367  0.001  -0.329836  0.00053  3.933742  0.0  -0.169974  -0.318764  0.001682  3.921207  0.001
C  C45  1  0.63467501  0.00442417  0.31248743  1  -0.280155  0.000433  3.669533  0.0  -0.321906  0.001126  3.926273  0.001  -0.32809  0.00058  3.933513  0.0  -0.169656  -0.317375  0.001739  3.92126  0.001
C  C46  1  0.67764092  0.50445181  0.31252225  1  -0.281017  0.000422  3.667937  0.0  -0.323512  0.001063  3.926456  0.001  -0.329882  0.000531  3.933828  0.0  -0.16999  -0.31881  0.001682  3.921294  0.001
C  C47  1  0.36532716  0.99557565  0.68751146  1  -0.280117  0.000421  3.669486  0.0  -0.32179  0.001126  3.926144  0.001  -0.327974  0.000582  3.933382  0.0  -0.169582  -0.317267  0.001739  3.921125  0.001
C  C48  1  0.22995387  0.35352996  0.56586228  1  -0.076987  0.000476  3.670596  0.0  -0.118292  0.001033  3.932068  0.001  -0.118655  0.000695  3.946535  0.001  -0.162193  -0.117532  0.001474  3.921938  0.001
C  C49  1  0.66412929  0.14653982  0.43404776  1  -0.076712  0.000439  3.669709  0.0  -0.118544  0.000997  3.93102  0.001  -0.119011  0.000668  3.945447  0.001  -0.162252  -0.117703  0.001423  3.920937  0.001
C  C50  1  0.77004549  0.64646986  0.43413861  1  -0.076937  0.000487  3.670538  0.0  -0.118247  0.001032  3.931984  0.001  -0.118605  0.000695  3.946449  0.001  -0.16216  -0.117489  0.001474  3.921852  0.001
C  C51  1  0.33587461  0.85346236  0.56595033  1  -0.076636  0.000464  3.66978  0.0  -0.118437  0.000998  3.931058  0.001  -0.118904  0.000666  3.945485  0.001  -0.162178  -0.117585  0.001423  3.92098  0.001
C  C52  1  0.20643925  0.38898999  0.44008963  1  -0.079418  8.8e-05  3.704712  0.0  -0.123268  0.000509  3.969403  0.001  -0.12288  0.000289  3.983042  0.0  -0.167228  -0.12329  0.00072  3.960063  0.001
C  C53  1  0.76638453  0.11108814  0.55981245  1  -0.07935  9.2e-05  3.703641  0.0  -0.122967  0.000467  3.967747  0.001  -0.122581  0.00026  3.981442  0.0  -0.167012  -0.123007  0.000669  3.958337  0.001
C  C54  1  0.79356276  0.61100866  0.55991069  1  -0.07944  0.00013  3.704748  0.0  -0.123274  0.000508  3.969439  0.001  -0.122898  0.000291  3.983083  0.0  -0.167205  -0.1233  0.00072  3.960106  0.001
C  C55  1  0.23361921  0.88891286  0.44018619  1  -0.079427  6e-05  3.703725  0.0  -0.123126  0.000468  3.967911  0.001  -0.122739  0.000258  3.981606  0.0  -0.167097  -0.123171  0.000669  3.958506  0.001
C  C56  1  0.10803864  0.25003612  0.31936880  1  -0.289525  0.00176  3.679695  0.002  -0.329645  0.002948  3.935039  0.002  -0.336303  0.002047  3.9425  0.002  -0.165992  -0.324239  0.003937  3.929568  0.003
C  C57  1  0.78880353  0.25004722  0.68061113  1  -0.289539  0.001764  3.681326  0.002  -0.330651  0.002954  3.937272  0.002  -0.33731  0.002034  3.944587  0.002  -0.166165  -0.325218  0.003939  3.931933  0.003
C  C58  1  0.89196617  0.74996252  0.68063212  1  -0.289579  0.001763  3.679714  0.002  -0.329675  0.002949  3.93503  0.002  -0.336347  0.002045  3.94254  0.002  -0.165986  -0.32427  0.003937  3.929559  0.003
C  C59  1  0.21119880  0.74995377  0.31938894  1  -0.289568  0.001774  3.681434  0.002  -0.330608  0.002954  3.937296  0.002  -0.337277  0.002036  3.944615  0.002  -0.166179  -0.325171  0.003939  3.931957  0.003
C  C60  1  0.11439328  0.26275930  0.19265270  1  0.76135  0.011146  3.749358  0.012  0.704277  0.02021  4.051563  0.019  0.741916  0.015121  4.042314  0.015  0.245208  0.677417  0.025052  4.056667  0.022
C  C61  1  0.92182650  0.23725665  0.80723938  1  0.760154  0.01114  3.75129  0.012  0.704102  0.020248  4.052358  0.019  0.741852  0.015134  4.042965  0.015  0.244802  0.677227  0.025103  4.057472  0.022
C  C62  1  0.88561029  0.73724051  0.80734997  1  0.76135  0.011142  3.749325  0.012  0.70427  0.02021  4.051547  0.019  0.741905  0.015119  4.042301  0.015  0.245206  0.677413  0.025052  4.056645  0.022
C  C63  1  0.07817162  0.76274434  0.19276152  1  0.760148  0.011145  3.751398  0.012  0.704107  0.020246  4.052411  0.019  0.74186  0.015131  4.043024  0.015  0.244843  0.677233  0.0251  4.057525  0.022
O  O64  1  0.36556695  0.02120072  0.13664613  1  -0.631111  0.032493  2.004516  0.023  -0.560664  0.039316  2.254666  0.027  -0.590988  0.034117  2.242805  0.022  -0.299211  -0.538523  0.044664  2.262604  0.032
O  O65  1  0.22930768  0.47880463  0.86347131  1  -0.631704  0.032541  2.007302  0.023  -0.561062  0.039347  2.25713  0.026  -0.591229  0.034154  2.244939  0.022  -0.299666  -0.539011  0.044782  2.265272  0.032
O  O66  1  0.63443506  0.97879793  0.86335419  1  -0.631092  0.032486  2.004593  0.023  -0.56063  0.039317  2.25479  0.027  -0.59095  0.034118  2.242925  0.022  -0.299205  -0.538492  0.044665  2.26273  0.032
O  O67  1  0.77068904  0.52119636  0.13652841  1  -0.631684  0.032527  2.007145  0.023  -0.561058  0.039349  2.257029  0.026  -0.591224  0.034156  2.244835  0.022  -0.299676  -0.539007  0.044784  2.265171  0.032
O  O68  1  0.59351397  0.75002473  0.00007336  1  -0.888945  0.047973  1.968062  0.027  -0.824222  0.067786  2.209708  0.041  -0.850403  0.060933  2.169851  0.036  -0.548689  -0.803667  0.073818  2.236973  0.046
O  O69  1  0.40648539  0.24997509  0.99992666  1  -0.888965  0.047974  1.968082  0.027  -0.824222  0.067787  2.209665  0.041  -0.850422  0.060935  2.169855  0.036  -0.548685  -0.803655  0.073818  2.236909  0.046
O  O70  1  0.65093773  0.10989928  0.14683392  1  -0.700476  0.02803  2.041857  0.014  -0.623188  0.036576  2.292664  0.02  -0.654311  0.032271  2.278403  0.016  -0.314309  -0.600098  0.040847  2.302244  0.023
O  O71  1  0.50440597  0.38998912  0.85306406  1  -0.700496  0.028054  2.043076  0.014  -0.62406  0.036693  2.294157  0.02  -0.655459  0.032384  2.280032  0.016  -0.314051  -0.600764  0.040943  2.303594  0.023
O  O72  1  0.34906304  0.89010055  0.85316467  1  -0.700494  0.028033  2.041825  0.014  -0.623184  0.036576  2.292665  0.02  -0.654308  0.03227  2.278402  0.016  -0.314306  -0.600082  0.040847  2.302216  0.023
O  O73  1  0.49559214  0.61001186  0.14693771  1  -0.700467  0.028055  2.043218  0.014  -0.623953  0.036691  2.294233  0.02  -0.655357  0.032383  2.280115  0.016  -0.314004  -0.600657  0.040941  2.303667  0.023
O  O74  1  0.01972656  0.12346197  0.80562998  1  -0.649053  0.037632  2.054345  0.025  -0.577704  0.046006  2.32269  0.03  -0.61009  0.039912  2.309406  0.024  -0.294152  -0.553302  0.052312  2.331338  0.036
O  O75  1  0.21392259  0.37641843  0.19413171  1  -0.649772  0.037667  2.055613  0.025  -0.577855  0.045972  2.324608  0.03  -0.609956  0.039898  2.310966  0.024  -0.294082  -0.553528  0.052279  2.333384  0.036
O  O76  1  0.98027561  0.87653785  0.19437065  1  -0.649014  0.037629  2.054476  0.025  -0.577674  0.046005  2.322829  0.03  -0.61006  0.039912  2.309536  0.024  -0.294122  -0.553282  0.052312  2.331486  0.036
O  O77  1  0.78607973  0.62358255  0.80586924  1  -0.649693  0.03767  2.055641  0.025  -0.577789  0.045971  2.324649  0.03  -0.60989  0.039899  2.311015  0.024  -0.294038  -0.553466  0.052278  2.333423  0.036
O  O78  1  0.02340838  0.15132019  0.08722973  1  -0.700864  0.060632  2.107636  0.037  -0.622923  0.07577  2.401432  0.046  -0.658532  0.067984  2.383376  0.039  -0.301972  -0.59565  0.083511  2.412925  0.053
O  O79  1  0.93638321  0.34865760  0.91275363  1  -0.700198  0.060704  2.107899  0.037  -0.62282  0.075861  2.401599  0.046  -0.658405  0.068057  2.383473  0.039  -0.301829  -0.595581  0.08366  2.413122  0.053
O  O80  1  0.97659409  0.84868195  0.91277414  1  -0.700894  0.060632  2.107497  0.037  -0.622991  0.075776  2.401382  0.046  -0.658598  0.067991  2.383326  0.039  -0.302015  -0.595715  0.083517  2.412865  0.053
O  O81  1  0.06361474  0.65134221  0.08724695  1  -0.700191  0.060695  2.107788  0.037  -0.622862  0.075864  2.401564  0.046  -0.658421  0.068057  2.383376  0.039  -0.30188  -0.595618  0.083662  2.413082  0.053
