# generated using pymatgen
data_ZnH22C22(NO)4
_symmetry_space_group_name_H-M   'P 1'
_cell_length_a   5.21956025
_cell_length_b   9.41812055
_cell_length_c   19.64936916
_cell_angle_alpha   96.91477919
_cell_angle_beta   90.00095396
_cell_angle_gamma   89.99999111
_symmetry_Int_Tables_number   1
_chemical_formula_structural   ZnH22C22(NO)4
_chemical_formula_sum   'Zn2 H44 C44 N8 O8'
_cell_volume   958.90660228
_cell_formula_units_Z   2
loop_
 _symmetry_equiv_pos_site_id
 _symmetry_equiv_pos_as_xyz
  1  'x, y, z'
loop_
 _atom_site_type_symbol
 _atom_site_label
 _atom_site_symmetry_multiplicity
 _atom_site_fract_x
 _atom_site_fract_y
 _atom_site_fract_z
 _atom_site_occupancy
 _atom_site_hle17_bader_spin_density
 _atom_site_hle17_ddec_charge
 _atom_site_hle17_ddec_spin_density
 _atom_site_hle17_ddec_sum_bond_order
 _atom_site_hle17_magmom
 _atom_site_hse06_10hf_bader_spin_density
 _atom_site_hse06_10hf_ddec_charge
 _atom_site_hse06_10hf_ddec_spin_density
 _atom_site_hse06_10hf_ddec_sum_bond_order
 _atom_site_hse06_10hf_magmom
 _atom_site_hse06_bader_spin_density
 _atom_site_hse06_ddec_charge
 _atom_site_hse06_ddec_spin_density
 _atom_site_hse06_ddec_sum_bond_order
 _atom_site_hse06_magmom
 _atom_site_pbe_bader_spin_density
 _atom_site_pbe_cm5_charge
 _atom_site_pbe_ddec_charge
 _atom_site_pbe_ddec_spin_density
 _atom_site_pbe_ddec_sum_bond_order
 _atom_site_pbe_magmom
Zn  Zn0  1  0.49999775  0.50000288  0.00000095  1  0  1.056847  0  1.763947  0  0  0.889436  0  2.203989  0  0  0.935387  0  2.153326  0  0  0.665639  0.857113  0  2.238808  0
Zn  Zn1  1  0.99999229  0.00000064  0.00000058  1  0  1.05692  0  1.763795  0  0  0.889565  0  2.203844  0  0  0.935519  0  2.153175  0  0  0.665686  0.857235  0  2.238701  0
H  H2  1  0.22778137  0.53539674  0.46222208  1  0  0.102071  0  0.952021  0  0  0.115294  0  1.008523  0  0  0.118119  0  1.007632  0  0  0.100577  0.113251  0  1.009266  0
H  H3  1  0.72776443  0.96460455  0.53777436  1  0  0.102112  0  0.951875  0  0  0.115228  0  1.008522  0  0  0.118051  0  1.007634  0  0  0.100557  0.113196  0  1.009244  0
H  H4  1  0.77224550  0.46459986  0.53778054  1  0  0.102131  0  0.951921  0  0  0.115284  0  1.008502  0  0  0.118105  0  1.007618  0  0  0.100595  0.113246  0  1.009232  0
H  H5  1  0.27225094  0.03539634  0.46222394  1  0  0.102099  0  0.95189  0  0  0.115195  0  1.008554  0  0  0.118017  0  1.007669  0  0  0.100565  0.113162  0  1.009271  0
H  H6  1  0.57746682  0.71335395  0.49013979  1  0  0.080152  0  0.982604  0  0  0.091803  0  1.047576  0  0  0.093903  0  1.047263  0  0  0.092625  0.09034  0  1.047755  0
H  H7  1  0.07744829  0.78664821  0.50986117  1  0  0.080149  0  0.982668  0  0  0.091805  0  1.047622  0  0  0.093906  0  1.047308  0  0  0.092633  0.090341  0  1.047798  0
H  H8  1  0.42255431  0.28664373  0.50985934  1  0  0.080141  0  0.982657  0  0  0.091798  0  1.047605  0  0  0.093898  0  1.047294  0  0  0.092627  0.090336  0  1.047785  0
H  H9  1  0.92256325  0.21334840  0.49013840  1  0  0.08012  0  0.982572  0  0  0.091771  0  1.047548  0  0  0.093872  0  1.047234  0  0  0.092623  0.090306  0  1.047728  0
H  H10  1  0.89269921  0.76433433  0.40158995  1  0  0.086527  0  0.983538  0  0  0.094783  0  1.050412  0  0  0.097055  0  1.050554  0  0  0.0915  0.0931  0  1.050498  0
H  H11  1  0.39269430  0.73566395  0.59841261  1  0  0.086451  0  0.983643  0  0  0.094737  0  1.050491  0  0  0.097009  0  1.050633  0  0  0.091462  0.093059  0  1.050574  0
H  H12  1  0.10731042  0.23566442  0.59840721  1  0  0.086507  0  0.983618  0  0  0.094763  0  1.050495  0  0  0.097035  0  1.050636  0  0  0.091492  0.093086  0  1.050579  0
H  H13  1  0.60731724  0.26433159  0.40158793  1  0  0.086375  0  0.983771  0  0  0.0947  0  1.05059  0  0  0.096979  0  1.05073  0  0  0.091452  0.09302  0  1.050675  0
H  H14  1  0.86890982  0.64086627  0.28329740  1  0  0.094948  0  0.955273  0  0  0.106562  0  1.016339  0  0  0.10889  0  1.015877  0  0  0.097763  0.10493  0  1.016634  0
H  H15  1  0.36889923  0.85913412  0.71670671  1  0  0.095054  0  0.955142  0  0  0.106625  0  1.01625  0  0  0.108954  0  1.015788  0  0  0.097802  0.104996  0  1.016544  0
H  H16  1  0.13109598  0.35913248  0.71670027  1  0  0.094983  0  0.955279  0  0  0.106602  0  1.016334  0  0  0.108929  0  1.015875  0  0  0.097785  0.104969  0  1.016624  0
H  H17  1  0.63111232  0.14086997  0.28329330  1  0  0.09502  0  0.955228  0  0  0.106579  0  1.016357  0  0  0.108912  0  1.015892  0  0  0.097758  0.104947  0  1.016653  0
H  H18  1  0.79362841  0.34881138  0.18654944  1  0  0.078145  0  0.947783  0  0  0.092811  0  1.016028  0  0  0.093743  0  1.015743  0  0  0.092212  0.092009  0  1.016393  0
H  H19  1  0.29362068  0.15118806  0.81345328  1  0  0.078208  0  0.947713  0  0  0.092858  0  1.015944  0  0  0.093788  0  1.015663  0  0  0.092224  0.092062  0  1.016305  0
H  H20  1  0.20636781  0.65119057  0.81345045  1  0  0.078182  0  0.94773  0  0  0.092825  0  1.016014  0  0  0.093758  0  1.015729  0  0  0.092196  0.09203  0  1.016376  0
H  H21  1  0.70637170  0.84881282  0.18654756  1  0  0.078164  0  0.947697  0  0  0.092854  0  1.0159  0  0  0.093787  0  1.015615  0  0  0.092224  0.092061  0  1.016261  0
H  H22  1  0.67898187  0.51197560  0.16374843  1  0  0.101038  0  0.947277  0  0  0.116304  0  1.010035  0  0  0.118791  0  1.00798  0  0  0.096791  0.114379  0  1.011703  0
H  H23  1  0.17897333  0.98802561  0.83625646  1  0  0.101071  0  0.947217  0  0  0.116336  0  1.009968  0  0  0.118822  0  1.007914  0  0  0.096832  0.114415  0  1.011641  0
H  H24  1  0.32101051  0.48802742  0.83625151  1  0  0.100976  0  0.947369  0  0  0.11632  0  1.010029  0  0  0.118805  0  1.007976  0  0  0.096811  0.114401  0  1.011695  0
H  H25  1  0.82102288  0.01197313  0.16374681  1  0  0.101048  0  0.94729  0  0  0.116301  0  1.010045  0  0  0.118787  0  1.007991  0  0  0.096814  0.114381  0  1.011719  0
H  H26  1  0.37621982  0.23430507  0.13099117  1  0  0.048427  0  0.927511  0  0  0.061745  0  0.98813  0  0  0.063407  0  0.986781  0  0  0.104963  0.060551  0  0.989256  0
H  H27  1  0.87621177  0.26569769  0.86900802  1  0  0.048449  0  0.927529  0  0  0.061801  0  0.98812  0  0  0.063458  0  0.986775  0  0  0.104985  0.060612  0  0.989238  0
H  H28  1  0.62377257  0.76569368  0.86900955  1  0  0.048353  0  0.927693  0  0  0.061711  0  0.988237  0  0  0.063372  0  0.986891  0  0  0.104945  0.060514  0  0.989369  0
H  H29  1  0.12378445  0.73430640  0.13099199  1  0  0.048481  0  0.927617  0  0  0.06181  0  0.988197  0  0  0.063473  0  0.986847  0  0  0.104992  0.060623  0  0.989316  0
H  H30  1  0.23278376  0.49993903  0.11788345  1  0  0.292962  0  0.889598  0  0  0.286654  0  0.942344  0  0  0.291768  0  0.939155  0  0  0.297861  0.282934  0  0.94482  0
H  H31  1  0.73277883  0.00006355  0.88211411  1  0  0.293019  0  0.889482  0  0  0.286709  0  0.942238  0  0  0.291823  0  0.93905  0  0  0.297874  0.282992  0  0.944718  0
H  H32  1  0.76721054  0.50006399  0.88211904  1  0  0.29295  0  0.889465  0  0  0.286625  0  0.942254  0  0  0.291741  0  0.939061  0  0  0.297834  0.282903  0  0.944737  0
H  H33  1  0.26720268  0.99994290  0.11788298  1  0  0.29294  0  0.889604  0  0  0.286621  0  0.942366  0  0  0.291736  0  0.939178  0  0  0.297864  0.282911  0  0.944843  0
H  H34  1  0.15076730  0.26178731  0.22927861  1  0  0.093488  0  0.969674  0  0  0.104564  0  1.033977  0  0  0.10725  0  1.031767  0  0  0.114446  0.102454  0  1.035967  0
H  H35  1  0.65076040  0.23820340  0.77071945  1  0  0.093522  0  0.969664  0  0  0.10459  0  1.033967  0  0  0.107277  0  1.03176  0  0  0.114486  0.10247  0  1.035963  0
H  H36  1  0.84923275  0.73821357  0.77072376  1  0  0.093529  0  0.969577  0  0  0.104593  0  1.033901  0  0  0.107279  0  1.031688  0  0  0.114445  0.10247  0  1.035908  0
H  H37  1  0.34924539  0.76179108  0.22927695  1  0  0.093526  0  0.969549  0  0  0.104596  0  1.033864  0  0  0.107283  0  1.03165  0  0  0.114473  0.102468  0  1.035875  0
H  H38  1  0.04040376  0.33990421  0.35096068  1  0  0.277159  0  0.932618  0  0  0.264785  0  0.988539  0  0  0.269797  0  0.98739  0  0  0.305435  0.261393  0  0.989228  0
H  H39  1  0.54039078  0.16008850  0.64903551  1  0  0.277132  0  0.932618  0  0  0.264699  0  0.988589  0  0  0.269712  0  0.98744  0  0  0.305419  0.261297  0  0.989284  0
H  H40  1  0.95960778  0.66009561  0.64904060  1  0  0.277239  0  0.932427  0  0  0.264804  0  0.988409  0  0  0.269819  0  0.987259  0  0  0.305417  0.26141  0  0.989103  0
H  H41  1  0.45961884  0.83990704  0.35096248  1  0  0.277151  0  0.932542  0  0  0.264711  0  0.988549  0  0  0.269719  0  0.987401  0  0  0.305384  0.261317  0  0.989243  0
H  H42  1  0.15160077  0.36486891  0.06078897  1  0  0.308613  0  0.913736  0  0  0.293112  0  0.977672  0  0  0.299272  0  0.973572  0  0  0.2949  0.288753  0  0.980561  0
H  H43  1  0.65160140  0.13513463  0.93920831  1  0  0.308608  0  0.913822  0  0  0.293113  0  0.977744  0  0  0.299273  0  0.973646  0  0  0.294907  0.28876  0  0.980628  0
H  H44  1  0.84838586  0.63513304  0.93921397  1  0  0.308566  0  0.91382  0  0  0.293072  0  0.977733  0  0  0.299233  0  0.973633  0  0  0.294929  0.288718  0  0.980614  0
H  H45  1  0.34838907  0.86487053  0.06079125  1  0  0.308597  0  0.91367  0  0  0.293109  0  0.977578  0  0  0.299268  0  0.973482  0  0  0.294939  0.288761  0  0.980465  0
C  C46  1  0.68984557  0.26556439  0.06562534  1  0  0.643954  0  3.85733  0  0  0.590471  0  4.164728  0  0  0.624392  0  4.156393  0  0  0.20796  0.567407  0  4.169709  0
C  C47  1  0.18983430  0.23444242  0.93437534  1  0  0.644033  0  3.856916  0  0  0.590466  0  4.164531  0  0  0.624392  0  4.156188  0  0  0.207944  0.567406  0  4.169509  0
C  C48  1  0.31014681  0.73443329  0.93437582  1  0  0.643903  0  3.857422  0  0  0.590439  0  4.164786  0  0  0.62436  0  4.15645  0  0  0.207947  0.56737  0  4.169774  0
C  C49  1  0.81015808  0.76556061  0.06562461  1  0  0.644242  0  3.856637  0  0  0.590625  0  4.164307  0  0  0.624551  0  4.155958  0  0  0.207988  0.567557  0  4.1693  0
C  C50  1  0.47987549  0.32690681  0.11556596  1  0  0.076761  0  3.618041  0  0  0.056799  0  3.864324  0  0  0.056416  0  3.876597  0  0  -0.000109  0.056915  0  3.855842  0
C  C51  1  0.97986858  0.17309822  0.88443633  1  0  0.076777  0  3.61785  0  0  0.05677  0  3.864236  0  0  0.056393  0  3.876507  0  0  -0.000137  0.056883  0  3.855755  0
C  C52  1  0.52011690  0.67309408  0.88443488  1  0  0.076713  0  3.618413  0  0  0.056783  0  3.864603  0  0  0.0564  0  3.87688  0  0  -0.000104  0.056898  0  3.856129  0
C  C53  1  0.02012572  0.82690374  0.11556508  1  0  0.076565  0  3.618172  0  0  0.056638  0  3.864451  0  0  0.056257  0  3.87672  0  0  -0.000136  0.056746  0  3.855977  0
C  C54  1  0.61642158  0.40772602  0.17794536  1  0  -0.173968  0  3.717175  0  0  -0.219962  0  3.963871  0  0  -0.220686  0  3.976628  0  0  -0.160755  -0.218964  0  3.954888  0
C  C55  1  0.11640493  0.09227213  0.82205298  1  0  -0.174088  0  3.716966  0  0  -0.219988  0  3.963632  0  0  -0.220717  0  3.97639  0  0  -0.160715  -0.219001  0  3.954668  0
C  C56  1  0.38357655  0.59227486  0.82205446  1  0  -0.173994  0  3.717204  0  0  -0.220044  0  3.963955  0  0  -0.220771  0  3.976715  0  0  -0.160775  -0.21906  0  3.954985  0
C  C57  1  0.88358746  0.90772662  0.17794570  1  0  -0.174077  0  3.717119  0  0  -0.220015  0  3.963735  0  0  -0.220742  0  3.976492  0  0  -0.160772  -0.219021  0  3.954767  0
C  C58  1  0.46489373  0.42490077  0.24300498  1  0  -0.046516  0  3.811297  0  0  -0.033677  0  4.070329  0  0  -0.038064  0  4.096756  0  0  -0.047669  -0.030786  0  4.052101  0
C  C59  1  0.96487655  0.07509676  0.75699478  1  0  -0.046422  0  3.811233  0  0  -0.033621  0  4.070369  0  0  -0.038003  0  4.096791  0  0  -0.047661  -0.030733  0  4.052147  0
C  C60  1  0.53510249  0.57510119  0.75699592  1  0  -0.046415  0  3.811151  0  0  -0.033632  0  4.070285  0  0  -0.038019  0  4.096715  0  0  -0.047657  -0.030734  0  4.052049  0
C  C61  1  0.03511967  0.92490199  0.24300492  1  0  -0.046423  0  3.811148  0  0  -0.033615  0  4.070275  0  0  -0.038001  0  4.096702  0  0  -0.047638  -0.030726  0  4.052051  0
C  C62  1  0.25580010  0.34611268  0.25979364  1  0  -0.012121  0  3.718292  0  0  -0.0597  0  3.991855  0  0  -0.053695  0  4.008549  0  0  4e-05  -0.06338  0  3.980563  0
C  C63  1  0.75578936  0.15388566  0.74020377  1  0  -0.01216  0  3.71829  0  0  -0.05973  0  3.991849  0  0  -0.053724  0  4.00854  0  0  -3e-05  -0.063408  0  3.980541  0
C  C64  1  0.74420187  0.65389142  0.74020688  1  0  -0.012064  0  3.718189  0  0  -0.059618  0  3.991721  0  0  -0.053611  0  4.008424  0  0  0.000107  -0.06329  0  3.980438  0
C  C65  1  0.24421260  0.84610988  0.25979523  1  0  -0.012095  0  3.718242  0  0  -0.059672  0  3.991815  0  0  -0.053673  0  4.008504  0  0  2.6e-05  -0.063339  0  3.980536  0
C  C66  1  0.35152393  0.48932998  0.35627142  1  0  0.180091  0  3.811945  0  0  0.171126  0  4.05738  0  0  0.177435  0  4.078857  0  0  0.089156  0.166817  0  4.043053  0
C  C67  1  0.85149928  0.01066313  0.64372863  1  0  0.17993  0  3.812142  0  0  0.171001  0  4.057541  0  0  0.177314  0  4.079011  0  0  0.089116  0.166664  0  4.043231  0
C  C68  1  0.64848762  0.51066984  0.64373037  1  0  0.180179  0  3.811714  0  0  0.171181  0  4.057164  0  0  0.177506  0  4.078625  0  0  0.089181  0.166858  0  4.042849  0
C  C69  1  0.14851034  0.98933455  0.35626999  1  0  0.179805  0  3.812368  0  0  0.170933  0  4.057697  0  0  0.177238  0  4.079165  0  0  0.089121  0.166628  0  4.043351  0
C  C70  1  0.36390838  0.55932259  0.42312652  1  0  -0.169669  0  3.786036  0  0  -0.185138  0  4.038929  0  0  -0.188855  0  4.058718  0  0  -0.103094  -0.182407  0  4.025456  0
C  C71  1  0.86388641  0.94067459  0.57687331  1  0  -0.169618  0  3.785829  0  0  -0.184995  0  4.038718  0  0  -0.188711  0  4.058504  0  0  -0.103087  -0.182265  0  4.02526  0
C  C72  1  0.63610891  0.44067295  0.57687401  1  0  -0.169724  0  3.785808  0  0  -0.185131  0  4.038742  0  0  -0.188851  0  4.058527  0  0  -0.103121  -0.182397  0  4.025276  0
C  C73  1  0.13611938  0.05932308  0.42312684  1  0  -0.169505  0  3.785911  0  0  -0.184884  0  4.038777  0  0  -0.188597  0  4.058561  0  0  -0.10303  -0.182155  0  4.025307  0
C  C74  1  0.56040622  0.65818149  0.43830718  1  0  -0.094514  0  3.8233  0  0  -0.111869  0  4.078495  0  0  -0.112354  0  4.099424  0  0  -0.112067  -0.111448  0  4.06415  0
C  C75  1  0.06038724  0.84181531  0.56169086  1  0  -0.0945  0  3.823181  0  0  -0.11185  0  4.078366  0  0  -0.112337  0  4.099294  0  0  -0.112046  -0.11142  0  4.064015  0
C  C76  1  0.43960916  0.34181726  0.56169201  1  0  -0.094431  0  3.823264  0  0  -0.111777  0  4.078425  0  0  -0.112263  0  4.099355  0  0  -0.11203  -0.111355  0  4.064085  0
C  C77  1  0.93961664  0.15817809  0.43830650  1  0  -0.094502  0  3.823236  0  0  -0.111859  0  4.078442  0  0  -0.112345  0  4.099372  0  0  -0.112072  -0.111435  0  4.064096  0
C  C78  1  0.73993880  0.68727168  0.38797045  1  0  -0.129123  0  3.825596  0  0  -0.142051  0  4.082059  0  0  -0.144804  0  4.101917  0  0  -0.117947  -0.140124  0  4.068423  0
C  C79  1  0.23992322  0.81273069  0.61203222  1  0  -0.129028  0  3.825706  0  0  -0.141973  0  4.082152  0  0  -0.144729  0  4.102021  0  0  -0.117857  -0.140053  0  4.068521  0
C  C80  1  0.26006891  0.31272707  0.61202722  1  0  -0.129155  0  3.825623  0  0  -0.142083  0  4.08208  0  0  -0.144835  0  4.10194  0  0  -0.117974  -0.140167  0  4.068455  0
C  C81  1  0.76007874  0.18727020  0.38796862  1  0  -0.128978  0  3.825791  0  0  -0.141959  0  4.082216  0  0  -0.144722  0  4.102089  0  0  -0.11787  -0.140038  0  4.068584  0
C  C82  1  0.72696044  0.61781696  0.32122086  1  0  -0.094146  0  3.752611  0  0  -0.115344  0  4.006657  0  0  -0.114219  0  4.024334  0  0  -0.0976  -0.115829  0  3.99428  0
C  C83  1  0.22695113  0.88218004  0.67878246  1  0  -0.094334  0  3.75266  0  0  -0.115474  0  4.006767  0  0  -0.11435  0  4.024449  0  0  -0.097673  -0.115964  0  3.994398  0
C  C84  1  0.27304344  0.38218393  0.67877795  1  0  -0.09423  0  3.752737  0  0  -0.115439  0  4.006785  0  0  -0.114315  0  4.024466  0  0  -0.097603  -0.115926  0  3.994405  0
C  C85  1  0.77305467  0.11781764  0.32121819  1  0  -0.094273  0  3.752711  0  0  -0.115419  0  4.006812  0  0  -0.114297  0  4.024497  0  0  -0.097643  -0.115907  0  3.994438  0
C  C86  1  0.53065221  0.51747250  0.30430664  1  0  -0.049746  0  3.815106  0  0  -0.038578  0  4.052773  0  0  -0.041289  0  4.077865  0  0  -0.028788  -0.036871  0  4.035884  0
C  C87  1  0.03062666  0.98252425  0.69569381  1  0  -0.049659  0  3.815061  0  0  -0.038583  0  4.052855  0  0  -0.041295  0  4.077947  0  0  -0.028813  -0.03687  0  4.035969  0
C  C88  1  0.46934975  0.48252731  0.69569261  1  0  -0.049772  0  3.81503  0  0  -0.038571  0  4.052707  0  0  -0.041287  0  4.0778  0  0  -0.028821  -0.03685  0  4.035803  0
C  C89  1  0.96937147  0.01747771  0.30430607  1  0  -0.049599  0  3.815089  0  0  -0.038515  0  4.052827  0  0  -0.041227  0  4.077921  0  0  -0.028762  -0.036798  0  4.035928  0
N  N90  1  0.18818743  0.38486858  0.32729823  1  0  -0.322102  0  3.488586  0  0  -0.261384  0  3.720044  0  0  -0.278935  0  3.739194  0  0  -0.400011  -0.249672  0  3.706835  0
N  N91  1  0.68817225  0.11512325  0.67269903  1  0  -0.32207  0  3.488661  0  0  -0.261269  0  3.720135  0  0  -0.278838  0  3.739306  0  0  -0.399953  -0.249509  0  3.706891  0
N  N92  1  0.81180687  0.61513017  0.67270402  1  0  -0.322339  0  3.488633  0  0  -0.261549  0  3.720167  0  0  -0.279101  0  3.739291  0  0  -0.400067  -0.249828  0  3.706961  0
N  N93  1  0.31182588  0.88487336  0.32729749  1  0  -0.32212  0  3.488868  0  0  -0.261351  0  3.720317  0  0  -0.278896  0  3.73948  0  0  -0.399981  -0.249632  0  3.707093  0
N  N94  1  0.30469675  0.42113173  0.08283682  1  0  -0.633347  0  3.092469  0  0  -0.585874  0  3.342975  0  0  -0.603135  0  3.33948  0  0  -0.616205  -0.573842  0  3.345235  0
N  N95  1  0.80469406  0.07887201  0.91716365  1  0  -0.633471  0  3.092507  0  0  -0.585986  0  3.343041  0  0  -0.603255  0  3.339551  0  0  -0.616229  -0.573951  0  3.345308  0
N  N96  1  0.69529181  0.57887023  0.91716510  1  0  -0.633188  0  3.092472  0  0  -0.585724  0  3.342968  0  0  -0.602983  0  3.339478  0  0  -0.616155  -0.573687  0  3.345223  0
N  N97  1  0.19529450  0.92113208  0.08283687  1  0  -0.63325  0  3.092455  0  0  -0.585755  0  3.342935  0  0  -0.603019  0  3.339444  0  0  -0.616201  -0.573725  0  3.345208  0
O  O98  1  0.79169564  0.14961838  0.07818989  1  0  -0.638939  0  2.016769  0  0  -0.584591  0  2.279935  0  0  -0.610477  0  2.268391  0  0  -0.323981  -0.566546  0  2.287479  0
O  O99  1  0.29169297  0.35039069  0.92181134  1  0  -0.638985  0  2.01646  0  0  -0.584612  0  2.279681  0  0  -0.610499  0  2.268134  0  0  -0.323998  -0.566562  0  2.287213  0
O  O100  1  0.20828908  0.85038250  0.92181044  1  0  -0.638923  0  2.016626  0  0  -0.584609  0  2.279766  0  0  -0.610497  0  2.268223  0  0  -0.323966  -0.566559  0  2.287313  0
O  O101  1  0.70830899  0.64960485  0.07818766  1  0  -0.639085  0  2.016313  0  0  -0.584695  0  2.279576  0  0  -0.610585  0  2.268028  0  0  -0.324015  -0.566634  0  2.287106  0
O  O102  1  0.75973872  0.33790418  0.01796772  1  0  -0.6286  0  2.056578  0  0  -0.55334  0  2.304547  0  0  -0.581398  0  2.294104  0  0  -0.310873  -0.533927  0  2.311218  0
O  O103  1  0.25973455  0.16210379  0.98203078  1  0  -0.628614  0  2.056542  0  0  -0.55346  0  2.304748  0  0  -0.581493  0  2.294244  0  0  -0.310872  -0.534043  0  2.311414  0
O  O104  1  0.24025367  0.66209885  0.98203274  1  0  -0.628586  0  2.056729  0  0  -0.553348  0  2.304705  0  0  -0.581405  0  2.294261  0  0  -0.310888  -0.53393  0  2.311379  0
O  O105  1  0.74025209  0.83789603  0.01797051  1  0  -0.628637  0  2.056487  0  0  -0.553485  0  2.30472  0  0  -0.581527  0  2.294234  0  0  -0.31088  -0.534064  0  2.31139  0
