# generated using pymatgen
data_CdH22C28(NO)4
_symmetry_space_group_name_H-M   'P 1'
_cell_length_a   10.48144066
_cell_length_b   10.46819464
_cell_length_c   10.93299068
_cell_angle_alpha   92.17856927
_cell_angle_beta   99.45863405
_cell_angle_gamma   93.19765160
_symmetry_Int_Tables_number   1
_chemical_formula_structural   CdH22C28(NO)4
_chemical_formula_sum   'Cd2 H44 C56 N8 O8'
_cell_volume   1180.07925856
_cell_formula_units_Z   2
loop_
 _symmetry_equiv_pos_site_id
 _symmetry_equiv_pos_as_xyz
  1  'x, y, z'
loop_
 _atom_site_type_symbol
 _atom_site_label
 _atom_site_symmetry_multiplicity
 _atom_site_fract_x
 _atom_site_fract_y
 _atom_site_fract_z
 _atom_site_occupancy
 _atom_site_hle17_bader_spin_density
 _atom_site_hle17_ddec_charge
 _atom_site_hle17_ddec_spin_density
 _atom_site_hle17_ddec_sum_bond_order
 _atom_site_hle17_magmom
 _atom_site_hse06_10hf_bader_spin_density
 _atom_site_hse06_10hf_ddec_charge
 _atom_site_hse06_10hf_ddec_spin_density
 _atom_site_hse06_10hf_ddec_sum_bond_order
 _atom_site_hse06_10hf_magmom
 _atom_site_hse06_bader_spin_density
 _atom_site_hse06_ddec_charge
 _atom_site_hse06_ddec_spin_density
 _atom_site_hse06_ddec_sum_bond_order
 _atom_site_hse06_magmom
 _atom_site_pbe_bader_spin_density
 _atom_site_pbe_cm5_charge
 _atom_site_pbe_ddec_charge
 _atom_site_pbe_ddec_spin_density
 _atom_site_pbe_ddec_sum_bond_order
 _atom_site_pbe_magmom
Cd  Cd0  1  0.65965589  0.62172230  0.54516439  1  0  1.149246  0  1.691364  0  0  0.961803  0  2.144137  0  0  1.018986  0  2.090905  0  0  0.782078  0.91783  0  2.183399  0
Cd  Cd1  1  0.34034590  0.37827733  0.45483403  1  0  1.149254  0  1.691348  0  0  0.961803  0  2.144135  0  0  1.018984  0  2.090901  0  0  0.782094  0.917829  0  2.183396  0
H  H2  1  0.86515175  0.41406139  0.66872261  1  0  0.110998  0  0.939138  0  0  0.119119  0  1.004798  0  0  0.121668  0  1.001574  0  0  0.140667  0.117024  0  1.007385  0
H  H3  1  0.13484822  0.58594015  0.33127649  1  0  0.11097  0  0.939171  0  0  0.1191  0  1.004832  0  0  0.121668  0  1.001586  0  0  0.140659  0.117007  0  1.007419  0
H  H4  1  0.71972345  0.41005858  0.00849963  1  0  0.121258  0  0.954468  0  0  0.134776  0  1.012293  0  0  0.137628  0  1.010875  0  0  0.12309  0.132701  0  1.013451  0
H  H5  1  0.28027639  0.58994104  0.99150030  1  0  0.121256  0  0.954457  0  0  0.134768  0  1.012288  0  0  0.13762  0  1.010871  0  0  0.123086  0.132693  0  1.013446  0
H  H6  1  0.89661762  0.18243865  0.73199113  1  0  0.105203  0  0.939896  0  0  0.117174  0  0.997618  0  0  0.119318  0  0.997865  0  0  0.108285  0.115595  0  0.99752  0
H  H7  1  0.10338332  0.81756289  0.26800722  1  0  0.105208  0  0.939944  0  0  0.117182  0  0.997657  0  0  0.119327  0  0.997903  0  0  0.108282  0.115604  0  0.997557  0
H  H8  1  0.06691144  0.04253328  0.81584275  1  0  0.086757  0  0.986575  0  0  0.09873  0  1.049188  0  0  0.100653  0  1.048982  0  0  0.100531  0.097336  0  1.04933  0
H  H9  1  0.93308744  0.95746634  0.18415702  1  0  0.086773  0  0.986584  0  0  0.098723  0  1.049216  0  0  0.100679  0  1.048975  0  0  0.100541  0.09733  0  1.049358  0
H  H10  1  0.12704126  0.26214444  0.16518131  1  0  0.10259  0  0.973635  0  0  0.111312  0  1.036222  0  0  0.113709  0  1.035767  0  0  0.104086  0.109657  0  1.036443  0
H  H11  1  0.87295749  0.73785326  0.83481928  1  0  0.102605  0  0.973633  0  0  0.111319  0  1.036234  0  0  0.113713  0  1.035777  0  0  0.104069  0.109663  0  1.036456  0
H  H12  1  0.95698091  0.40131428  0.08096128  1  0  0.10436  0  0.946442  0  0  0.11646  0  1.004479  0  0  0.119374  0  1.003361  0  0  0.105284  0.114494  0  1.005107  0
H  H13  1  0.04301991  0.59868535  0.91903789  1  0  0.10437  0  0.946429  0  0  0.116476  0  1.004452  0  0  0.119389  0  1.003338  0  0  0.10528  0.11451  0  1.005079  0
H  H14  1  0.23795002  0.96333747  0.87170693  1  0  0.087909  0  0.979669  0  0  0.09804  0  1.043632  0  0  0.099999  0  1.04375  0  0  0.097306  0.096666  0  1.04341  0
H  H15  1  0.76204879  0.03666119  0.12829462  1  0  0.087926  0  0.979653  0  0  0.098045  0  1.043625  0  0  0.100002  0  1.043748  0  0  0.097308  0.096674  0  1.043402  0
H  H16  1  0.40628655  0.82539338  0.96051576  1  0  0.103312  0  0.947575  0  0  0.118825  0  1.001454  0  0  0.12155  0  1.000635  0  0  0.105826  0.116846  0  1.002342  0
H  H17  1  0.59371324  0.17460529  0.03948504  1  0  0.103342  0  0.947531  0  0  0.118845  0  1.001424  0  0  0.121571  0  1.000602  0  0  0.105838  0.116872  0  1.002315  0
H  H18  1  0.39721283  0.99538716  0.32542225  1  0  0.110399  0  0.951083  0  0  0.123293  0  1.00865  0  0  0.126205  0  1.006784  0  0  0.109872  0.121189  0  1.010034  0
H  H19  1  0.60278302  0.00461054  0.67457879  1  0  0.110435  0  0.951076  0  0  0.123339  0  1.008631  0  0  0.126253  0  1.006764  0  0  0.109866  0.121235  0  1.010015  0
H  H20  1  0.22556289  0.12517781  0.24031518  1  0  0.116414  0  0.996253  0  0  0.126  0  1.056782  0  0  0.129734  0  1.053907  0  0  0.104834  0.123069  0  1.059403  0
H  H21  1  0.77443382  0.87481797  0.75968501  1  0  0.11641  0  0.996291  0  0  0.125999  0  1.056814  0  0  0.129734  0  1.053939  0  0  0.104841  0.123079  0  1.059425  0
H  H22  1  0.45021372  0.80147686  0.38402645  1  0  0.092176  0  0.970481  0  0  0.10012  0  1.037706  0  0  0.102313  0  1.034932  0  0  0.133584  0.098519  0  1.039443  0
H  H23  1  0.54978589  0.19851893  0.61597421  1  0  0.092204  0  0.970564  0  0  0.100154  0  1.037767  0  0  0.102343  0  1.035005  0  0  0.13359  0.098554  0  1.039504  0
H  H24  1  0.62322284  0.78400739  0.06066347  1  0  0.119302  0  0.982739  0  0  0.128086  0  1.047144  0  0  0.130671  0  1.046689  0  0  0.118502  0.126252  0  1.047444  0
H  H25  1  0.37677427  0.21599510  0.93933612  1  0  0.119291  0  0.982751  0  0  0.128093  0  1.047127  0  0  0.130658  0  1.046702  0  0  0.118501  0.126259  0  1.047422  0
H  H26  1  0.53446358  0.59212133  0.95111108  1  0  0.10381  0  0.976489  0  0  0.124549  0  1.040482  0  0  0.125723  0  1.040949  0  0  0.088116  0.123605  0  1.040287  0
H  H27  1  0.46553825  0.40787926  0.04889012  1  0  0.103848  0  0.976549  0  0  0.124584  0  1.040531  0  0  0.12576  0  1.040996  0  0  0.08813  0.12364  0  1.040336  0
H  H28  1  0.45932333  0.55713046  0.79351258  1  0  0.126167  0  0.966261  0  0  0.146774  0  1.025806  0  0  0.147674  0  1.026609  0  0  0.094788  0.146075  0  1.025264  0
H  H29  1  0.54067759  0.44287108  0.20648851  1  0  0.126165  0  0.966283  0  0  0.146771  0  1.025828  0  0  0.147673  0  1.026632  0  0  0.09478  0.146072  0  1.025288  0
H  H30  1  0.56850220  0.69308176  0.83086045  1  0  0.122671  0  0.943875  0  0  0.143242  0  1.005246  0  0  0.144259  0  1.005567  0  0  0.094741  0.142241  0  1.005381  0
H  H31  1  0.43149867  0.30691882  0.16913968  1  0  0.122674  0  0.943866  0  0  0.143244  0  1.005239  0  0  0.14426  0  1.005561  0  0  0.094731  0.142243  0  1.005375  0
H  H32  1  0.75703326  0.50871995  0.25675254  1  0  0.118829  0  0.950175  0  0  0.139748  0  1.011425  0  0  0.140814  0  1.011008  0  0  0.094511  0.139035  0  1.011406  0
H  H33  1  0.24296967  0.49128255  0.74324617  1  0  0.118884  0  0.950171  0  0  0.139792  0  1.01143  0  0  0.140861  0  1.011012  0  0  0.094534  0.139079  0  1.011409  0
H  H34  1  0.86526970  0.64128524  0.30643445  1  0  0.128768  0  0.94517  0  0  0.148811  0  1.004632  0  0  0.149865  0  1.004879  0  0  0.095619  0.147852  0  1.00463  0
H  H35  1  0.13473340  0.35872014  0.69356530  1  0  0.128788  0  0.945139  0  0  0.148834  0  1.004599  0  0  0.14989  0  1.004843  0  0  0.095614  0.147874  0  1.004596  0
H  H36  1  0.81007153  0.61011629  0.14397088  1  0  0.106556  0  0.97553  0  0  0.124024  0  1.042852  0  0  0.124677  0  1.044822  0  0  0.086513  0.123518  0  1.041478  0
H  H37  1  0.18992969  0.38989004  0.85602952  1  0  0.106475  0  0.975567  0  0  0.123926  0  1.042915  0  0  0.124577  0  1.044889  0  0  0.086483  0.12342  0  1.041542  0
H  H38  1  0.14454516  0.60564746  0.56270699  1  0  0.124972  0  0.963059  0  0  0.129929  0  1.033948  0  0  0.134479  0  1.029533  0  0  0.107371  0.126772  0  1.036951  0
H  H39  1  0.85545385  0.39435407  0.43729012  1  0  0.124956  0  0.963068  0  0  0.129905  0  1.033987  0  0  0.134459  0  1.02956  0  0  0.107376  0.126749  0  1.03699  0
H  H40  1  0.39348431  0.95178038  0.61323492  1  0  0.091501  0  0.973934  0  0  0.098755  0  1.042528  0  0  0.102395  0  1.039323  0  0  0.098598  0.096204  0  1.044695  0
H  H41  1  0.60651746  0.04821925  0.38676624  1  0  0.091559  0  0.973961  0  0  0.098818  0  1.042531  0  0  0.102457  0  1.039327  0  0  0.098609  0.096268  0  1.044696  0
H  H42  1  0.20290742  0.08089697  0.62809595  1  0  0.098297  0  0.954435  0  0  0.10684  0  1.015691  0  0  0.109627  0  1.015857  0  0  0.100932  0.104982  0  1.015411  0
H  H43  1  0.79709526  0.91910171  0.37190715  1  0  0.098293  0  0.95444  0  0  0.106822  0  1.01572  0  0  0.109636  0  1.015855  0  0  0.100928  0.104964  0  1.015441  0
H  H44  1  0.98320626  0.96669924  0.61764164  1  0  0.099039  0  0.957001  0  0  0.109117  0  1.018414  0  0  0.112526  0  1.016092  0  0  0.103311  0.106657  0  1.020056  0
H  H45  1  0.01679562  0.03330230  0.38236143  1  0  0.099036  0  0.956954  0  0  0.109106  0  1.018392  0  0  0.112514  0  1.01606  0  0  0.103293  0.106646  0  1.020033  0
C  C46  1  0.80341488  0.43275834  0.73699591  1  0  0.170144  0  3.650099  0  0  0.107428  0  3.918763  0  0  0.122315  0  3.930938  0  0  0.142094  0.097523  0  3.910579  0
C  C47  1  0.19658406  0.56724223  0.26300299  1  0  0.170159  0  3.650133  0  0  0.107412  0  3.918797  0  0  0.122285  0  3.930963  0  0  0.142101  0.097506  0  3.910612  0
C  C48  1  0.65828002  0.51447968  0.83473812  1  0  0.240194  0  3.775266  0  0  0.246432  0  4.035359  0  0  0.251373  0  4.058677  0  0  0.083556  0.243185  0  4.019197  0
C  C49  1  0.34172090  0.48552186  0.16526296  1  0  0.240181  0  3.775291  0  0  0.246419  0  4.035359  0  0  0.251358  0  4.058682  0  0  0.083511  0.243172  0  4.019196  0
C  C50  1  0.72795465  0.43572288  0.91501456  1  0  -0.141391  0  3.637406  0  0  -0.19221  0  3.900168  0  0  -0.192204  0  3.918169  0  0  -0.009105  -0.192173  0  3.88848  0
C  C51  1  0.27204526  0.56427770  0.08498541  1  0  -0.141381  0  3.637357  0  0  -0.192195  0  3.900111  0  0  -0.19219  0  3.918113  0  0  -0.009079  -0.192156  0  3.888422  0
C  C52  1  0.91667988  0.30155572  0.90068888  1  0  0.166285  0  3.802466  0  0  0.158201  0  4.052419  0  0  0.163399  0  4.074985  0  0  0.089068  0.154887  0  4.037026  0
C  C53  1  0.08332002  0.69844486  0.09931018  1  0  0.166259  0  3.802513  0  0  0.158175  0  4.052468  0  0  0.163375  0  4.075027  0  0  0.089075  0.15486  0  4.037077  0
C  C54  1  0.94911671  0.20097980  0.82624810  1  0  -0.1397  0  3.752944  0  0  -0.158732  0  4.004532  0  0  -0.162509  0  4.026324  0  0  -0.085236  -0.156277  0  3.989885  0
C  C55  1  0.05088410  0.79901982  0.17375198  1  0  -0.139665  0  3.752976  0  0  -0.158695  0  4.004556  0  0  -0.162473  0  4.026356  0  0  -0.085226  -0.156241  0  3.989912  0
C  C56  1  0.04585702  0.12230563  0.87445777  1  0  -0.082587  0  3.721075  0  0  -0.101745  0  3.966061  0  0  -0.103681  0  3.987964  0  0  -0.082483  -0.100454  0  3.951539  0
C  C57  1  0.95414186  0.87769399  0.12554200  1  0  -0.08266  0  3.721156  0  0  -0.101812  0  3.966139  0  0  -0.103773  0  3.988028  0  0  -0.082501  -0.10052  0  3.951619  0
C  C58  1  0.11305619  0.14108271  0.99683686  1  0  0.043738  0  3.763673  0  0  0.058395  0  3.994423  0  0  0.058078  0  4.018597  0  0  -0.007382  0.058693  0  3.978133  0
C  C59  1  0.88694155  0.85891403  0.00316354  1  0  0.043814  0  3.763778  0  0  0.058514  0  3.994481  0  0  0.058197  0  4.018661  0  0  -0.007349  0.058811  0  3.978192  0
C  C60  1  0.07785717  0.24290672  0.07001158  1  0  -0.088103  0  3.714669  0  0  -0.106494  0  3.961178  0  0  -0.108515  0  3.982649  0  0  -0.084687  -0.105098  0  3.946416  0
C  C61  1  0.92214063  0.75709098  0.92998795  1  0  -0.088154  0  3.714659  0  0  -0.106556  0  3.961169  0  0  -0.108572  0  3.982637  0  0  -0.084663  -0.10516  0  3.946409  0
C  C62  1  0.98102411  0.32202948  0.02306539  1  0  -0.148237  0  3.757494  0  0  -0.169488  0  4.012777  0  0  -0.172647  0  4.03256  0  0  -0.092373  -0.167213  0  3.99918  0
C  C63  1  0.01897579  0.67797110  0.97693458  1  0  -0.148251  0  3.757532  0  0  -0.169499  0  4.012819  0  0  -0.17266  0  4.032601  0  0  -0.092389  -0.167224  0  3.999221  0
C  C64  1  0.21614656  0.05712813  0.04766916  1  0  0.030443  0  3.782851  0  0  0.0452  0  4.01477  0  0  0.044321  0  4.039038  0  0  -0.012986  0.045706  0  3.998342  0
C  C65  1  0.78385414  0.94286958  0.95233175  1  0  0.030392  0  3.782924  0  0  0.045109  0  4.014878  0  0  0.044226  0  4.039149  0  0  -0.013043  0.045616  0  3.99845  0
C  C66  1  0.27038520  0.97055956  0.97179768  1  0  -0.093229  0  3.737801  0  0  -0.112324  0  3.987502  0  0  -0.113521  0  4.008398  0  0  -0.086847  -0.111283  0  3.973341  0
C  C67  1  0.72961356  0.02943815  0.02820200  1  0  -0.093223  0  3.737807  0  0  -0.112285  0  3.987487  0  0  -0.113484  0  4.008392  0  0  -0.086831  -0.111246  0  3.97333  0
C  C68  1  0.36696189  0.89195989  0.02154204  1  0  -0.151644  0  3.757421  0  0  -0.173523  0  4.014469  0  0  -0.177233  0  4.034633  0  0  -0.095317  -0.171357  0  4.001678  0
C  C69  1  0.63303698  0.10803973  0.97845864  1  0  -0.151694  0  3.75738  0  0  -0.173566  0  4.01443  0  0  -0.177277  0  4.034592  0  0  -0.095338  -0.17141  0  4.001651  0
C  C70  1  0.41250589  0.89854362  0.14945418  1  0  0.1764  0  3.794281  0  0  0.165548  0  4.048485  0  0  0.171399  0  4.071102  0  0  0.091222  0.16161  0  4.033672  0
C  C71  1  0.58749395  0.10145601  0.85054666  1  0  0.176428  0  3.794302  0  0  0.165591  0  4.04852  0  0  0.171442  0  4.071135  0  0  0.091202  0.161653  0  4.033707  0
C  C72  1  0.36132847  0.98518953  0.22606186  1  0  -0.145305  0  3.745199  0  0  -0.167895  0  4.00169  0  0  -0.172003  0  4.022254  0  0  -0.090764  -0.165191  0  3.987877  0
C  C73  1  0.63867034  0.01480913  0.77393969  1  0  -0.145406  0  3.745218  0  0  -0.168009  0  4.00171  0  0  -0.172115  0  4.022269  0  0  -0.090771  -0.165303  0  3.987898  0
C  C74  1  0.26439191  0.06215195  0.17582648  1  0  -0.087882  0  3.712447  0  0  -0.107745  0  3.958523  0  0  -0.109107  0  3.978163  0  0  -0.08568  -0.106545  0  3.945507  0
C  C75  1  0.73560787  0.93784672  0.82417432  1  0  -0.087818  0  3.712375  0  0  -0.107671  0  3.958452  0  0  -0.109029  0  3.978087  0  0  -0.085634  -0.106476  0  3.945428  0
C  C76  1  0.51515884  0.77499804  0.32144349  1  0  0.174405  0  3.672935  0  0  0.111616  0  3.942782  0  0  0.125854  0  3.955917  0  0  0.141043  0.102172  0  3.933623  0
C  C77  1  0.48484089  0.22499966  0.67855635  1  0  0.174369  0  3.673002  0  0  0.111596  0  3.942852  0  0  0.125833  0  3.955991  0  0  0.141009  0.102151  0  3.933696  0
C  C78  1  0.60516849  0.76192177  0.15233323  1  0  -0.144683  0  3.633259  0  0  -0.18927  0  3.889725  0  0  -0.189468  0  3.908411  0  0  -0.007332  -0.189257  0  3.877602  0
C  C79  1  0.39483045  0.23807881  0.84766658  1  0  -0.144633  0  3.633195  0  0  -0.189209  0  3.889655  0  0  -0.189397  0  3.908354  0  0  -0.007321  -0.189197  0  3.877533  0
C  C80  1  0.66961302  0.68837915  0.24169014  1  0  0.231491  0  3.773455  0  0  0.238507  0  4.030038  0  0  0.243047  0  4.053169  0  0  0.082683  0.235381  0  4.014511  0
C  C81  1  0.33038694  0.31162239  0.75830987  1  0  0.231448  0  3.773423  0  0  0.238474  0  4.029982  0  0  0.243016  0  4.053111  0  0  0.082676  0.235348  0  4.014454  0
C  C82  1  0.54904598  0.59332987  0.85420892  1  0  -0.359073  0  3.722814  0  0  -0.439432  0  3.953708  0  0  -0.441713  0  3.962426  0  0  -0.243166  -0.437471  0  3.947661  0
C  C83  1  0.45095495  0.40667167  0.14579125  1  0  -0.359116  0  3.72288  0  0  -0.439477  0  3.953768  0  0  -0.441755  0  3.962476  0  0  -0.243165  -0.437517  0  3.947722  0
C  C84  1  0.78158665  0.60822067  0.23599507  1  0  -0.359685  0  3.734452  0  0  -0.439191  0  3.968861  0  0  -0.441353  0  3.978223  0  0  -0.242513  -0.437298  0  3.962244  0
C  C85  1  0.21841645  0.39178471  0.76400376  1  0  -0.359654  0  3.734364  0  0  -0.439165  0  3.968824  0  0  -0.441317  0  3.978169  0  0  -0.242511  -0.437275  0  3.96221  0
C  C86  1  0.91777346  0.71712393  0.57708002  1  0  0.611561  0  3.966398  0  0  0.565043  0  4.253812  0  0  0.598743  0  4.248776  0  0  0.186171  0.542234  0  4.256083  0
C  C87  1  0.08222735  0.28287570  0.42292098  1  0  0.61159  0  3.966388  0  0  0.565068  0  4.253803  0  0  0.598766  0  4.248768  0  0  0.186178  0.542257  0  4.256078  0
C  C88  1  0.39955570  0.69744017  0.58206419  1  0  0.637575  0  3.947966  0  0  0.587158  0  4.239138  0  0  0.622207  0  4.23203  0  0  0.197411  0.563231  0  4.243055  0
C  C89  1  0.60044506  0.30255850  0.41793494  1  0  0.637621  0  3.947918  0  0  0.587198  0  4.239059  0  0  0.622248  0  4.231952  0  0  0.19739  0.563271  0  4.242979  0
C  C90  1  0.05178549  0.78073224  0.59058758  1  0  -0.066682  0  3.766445  0  0  -0.039039  0  3.995444  0  0  -0.048425  0  4.019097  0  0  -0.023137  -0.033183  0  3.979991  0
C  C91  1  0.94821446  0.21926930  0.40941426  1  0  -0.066776  0  3.766467  0  0  -0.03912  0  3.995476  0  0  -0.048506  0  4.019127  0  0  -0.023127  -0.033258  0  3.980017  0
C  C92  1  0.15878139  0.70922729  0.57998775  1  0  -0.085596  0  3.694846  0  0  -0.11948  0  3.938748  0  0  -0.116532  0  3.95714  0  0  -0.081422  -0.121232  0  3.926842  0
C  C93  1  0.84121749  0.29077233  0.42001110  1  0  -0.085546  0  3.694823  0  0  -0.119459  0  3.93872  0  0  -0.116513  0  3.95711  0  0  -0.08144  -0.121213  0  3.926815  0
C  C94  1  0.28233344  0.77146556  0.59061783  1  0  -0.087954  0  3.782533  0  0  -0.061605  0  4.015859  0  0  -0.071877  0  4.040141  0  0  -0.02867  -0.055165  0  4.000022  0
C  C95  1  0.71766550  0.22853502  0.40938107  1  0  -0.087806  0  3.782472  0  0  -0.061392  0  4.015716  0  0  -0.07166  0  4.039991  0  0  -0.028565  -0.054952  0  3.999882  0
C  C96  1  0.29712567  0.90540325  0.60777926  1  0  -0.060719  0  3.729989  0  0  -0.086996  0  3.977099  0  0  -0.084153  0  3.994947  0  0  -0.087963  -0.087988  0  3.964393  0
C  C97  1  0.70287412  0.09459542  0.39222062  1  0  -0.060954  0  3.729982  0  0  -0.087256  0  3.977094  0  0  -0.08442  0  3.994951  0  0  -0.088043  -0.088248  0  3.964389  0
C  C98  1  0.19068025  0.97681940  0.61721935  1  0  -0.079596  0  3.774358  0  0  -0.089971  0  4.030736  0  0  -0.093742  0  4.049865  0  0  -0.094109  -0.087505  0  4.017048  0
C  C99  1  0.80932345  0.02318024  0.38278303  1  0  -0.07946  0  3.774305  0  0  -0.089824  0  4.030667  0  0  -0.093617  0  4.049789  0  0  -0.094058  -0.08736  0  4.016983  0
C  C100  1  0.06862509  0.91411372  0.61063198  1  0  -0.068202  0  3.737655  0  0  -0.094387  0  3.985944  0  0  -0.091964  0  4.003769  0  0  -0.083351  -0.095214  0  3.973483  0
C  C101  1  0.93137668  0.08588591  0.38937009  1  0  -0.068164  0  3.737569  0  0  -0.094352  0  3.985862  0  0  -0.091924  0  4.003694  0  0  -0.083325  -0.095177  0  3.973399  0
N  N102  1  0.70721123  0.51125776  0.72428138  1  0  -0.429068  0  3.192803  0  0  -0.358033  0  3.471309  0  0  -0.38042  0  3.487754  0  0  -0.350268  -0.342857  0  3.459868  0
N  N103  1  0.29278862  0.48874186  0.27571764  1  0  -0.429038  0  3.192803  0  0  -0.357977  0  3.471287  0  0  -0.380364  0  3.48774  0  0  -0.350224  -0.342802  0  3.459846  0
N  N104  1  0.81933620  0.38395285  0.85203999  1  0  -0.089769  0  3.633884  0  0  -0.002042  0  3.85341  0  0  -0.016545  0  3.879  0  0  -0.227543  0.007355  0  3.83636  0
N  N105  1  0.18066371  0.61604773  0.14795998  1  0  -0.089755  0  3.633908  0  0  -0.002031  0  3.853444  0  0  -0.016533  0  3.879032  0  0  -0.227573  0.007365  0  3.836394  0
N  N106  1  0.50727639  0.81671941  0.20407454  1  0  -0.087377  0  3.629026  0  0  0.000183  0  3.847101  0  0  -0.014756  0  3.873205  0  0  -0.2284  0.009932  0  3.82971  0
N  N107  1  0.49272339  0.18327925  0.79592535  1  0  -0.087401  0  3.629052  0  0  9.9e-05  0  3.847201  0  0  -0.014838  0  3.873299  0  0  -0.228385  0.009847  0  3.829811  0
N  N108  1  0.61138122  0.69827493  0.34676292  1  0  -0.416269  0  3.170338  0  0  -0.345085  0  3.443941  0  0  -0.366699  0  3.460542  0  0  -0.347233  -0.330678  0  3.432953  0
N  N109  1  0.38861960  0.30172469  0.65323625  1  0  -0.416257  0  3.170317  0  0  -0.345068  0  3.443899  0  0  -0.366684  0  3.460507  0  0  -0.347219  -0.33066  0  3.432909  0
O  O110  1  0.89764397  0.60172190  0.53561926  1  0  -0.630467  0  1.957064  0  0  -0.574536  0  2.193216  0  0  -0.601021  0  2.184248  0  0  -0.328323  -0.555163  0  2.198061  0
O  O111  1  0.10235685  0.39827773  0.46437992  1  0  -0.630485  0  1.957034  0  0  -0.574552  0  2.193184  0  0  -0.601039  0  2.184221  0  0  -0.328363  -0.555177  0  2.198031  0
O  O112  1  0.82814085  0.78484327  0.60651589  1  0  -0.650121  0  1.986752  0  0  -0.590205  0  2.229173  0  0  -0.617974  0  2.219465  0  0  -0.337521  -0.569511  0  2.23618  0
O  O113  1  0.17186002  0.21515732  0.39348423  1  0  -0.650138  0  1.986751  0  0  -0.590221  0  2.229173  0  0  -0.617992  0  2.219459  0  0  -0.337513  -0.569526  0  2.236182  0
O  O114  1  0.38678490  0.57659804  0.56508454  1  0  -0.678016  0  2.079418  0  0  -0.614198  0  2.353074  0  0  -0.642282  0  2.339951  0  0  -0.338166  -0.593289  0  2.360539  0
O  O115  1  0.61321496  0.42340158  0.43491265  1  0  -0.678076  0  2.079394  0  0  -0.614252  0  2.353039  0  0  -0.642341  0  2.339914  0  0  -0.338166  -0.593343  0  2.360506  0
O  O116  1  0.50873858  0.76163570  0.59338588  1  0  -0.641426  0  1.992726  0  0  -0.575602  0  2.238725  0  0  -0.604248  0  2.228773  0  0  -0.32972  -0.554618  0  2.246254  0
O  O117  1  0.49126218  0.23836297  0.40661325  1  0  -0.641463  0  1.992683  0  0  -0.57567  0  2.238709  0  0  -0.604293  0  2.228698  0  0  -0.329749  -0.554685  0  2.246239  0
