# generated using pymatgen
data_MnH12C8(NO4)2
_symmetry_space_group_name_H-M   'P 1'
_cell_length_a   7.60005041
_cell_length_b   7.74959080
_cell_length_c   9.45940240
_cell_angle_alpha   90.00073494
_cell_angle_beta   89.99983788
_cell_angle_gamma   108.68020026
_symmetry_Int_Tables_number   1
_chemical_formula_structural   MnH12C8(NO4)2
_chemical_formula_sum   'Mn2 H24 C16 N4 O16'
_cell_volume   527.78387416
_cell_formula_units_Z   2
loop_
 _symmetry_equiv_pos_site_id
 _symmetry_equiv_pos_as_xyz
  1  'x, y, z'
loop_
 _atom_site_type_symbol
 _atom_site_label
 _atom_site_symmetry_multiplicity
 _atom_site_fract_x
 _atom_site_fract_y
 _atom_site_fract_z
 _atom_site_occupancy
 _atom_site_pbe_cm5_charge
 _atom_site_pbe_ddec_charge
 _atom_site_pbe_ddec_spin_density
 _atom_site_pbe_ddec_sum_bond_order
 _atom_site_pbe_magmom
Mn  Mn0  1  0.99999578  0.99999819  0.99999963  1  0.590462  1.101164  4.681246  2.284024  4.512
Mn  Mn1  1  0.49999941  0.00000163  0.49999931  1  0.590488  1.101154  4.681251  2.284034  4.512
H  H2  1  0.83953008  0.66409308  0.61452550  1  0.123099  0.126948  -4.6e-05  0.978703  0.0
H  H3  1  0.66047412  0.33591411  0.11452728  1  0.123122  0.126936  -4.6e-05  0.978676  0.0
H  H4  1  0.16047141  0.33590648  0.38547413  1  0.123093  0.126945  -4.6e-05  0.978672  0.0
H  H5  1  0.33952562  0.66408817  0.88547024  1  0.123126  0.126937  -4.6e-05  0.97865  0.0
H  H6  1  0.08432424  0.77314869  0.60824006  1  0.127569  0.137421  -0.000626  0.998573  0.0
H  H7  1  0.41567762  0.22685780  0.10824012  1  0.127544  0.137402  -0.000626  0.998563  0.0
H  H8  1  0.91567506  0.22685223  0.39175957  1  0.127575  0.137433  -0.000626  0.998562  0.0
H  H9  1  0.58432476  0.77314448  0.89175952  1  0.127553  0.13739  -0.000626  0.99855  0.0
H  H10  1  0.84784585  0.84895748  0.41451805  1  0.124369  0.135543  -3e-05  1.0046  0.001
H  H11  1  0.65215532  0.15103960  0.91452083  1  0.124392  0.135592  -3e-05  1.004513  0.001
H  H12  1  0.15215608  0.15104344  0.58548158  1  0.124396  0.135612  -3e-05  1.004552  0.001
H  H13  1  0.34784222  0.84895995  0.08548092  1  0.124396  0.135612  -3e-05  1.004489  0.001
H  H14  1  0.85778573  0.74428388  0.24951024  1  0.119521  0.113826  0.001023  1.030841  0.001
H  H15  1  0.64220459  0.25570233  0.74951414  1  0.119541  0.113851  0.001022  1.030772  0.001
H  H16  1  0.14221664  0.25571840  0.75048939  1  0.119505  0.113795  0.001022  1.030894  0.001
H  H17  1  0.35779293  0.74429313  0.25048655  1  0.119537  0.113839  0.001022  1.030773  0.001
H  H18  1  0.04690865  0.35656469  0.08816701  1  0.297439  0.390188  0.000574  0.941495  0.002
H  H19  1  0.45309141  0.64344011  0.58816687  1  0.297448  0.390229  0.000574  0.941431  0.002
H  H20  1  0.95309241  0.64343759  0.91183368  1  0.297442  0.39021  0.000574  0.94147  0.002
H  H21  1  0.54690613  0.35655944  0.41183382  1  0.297452  0.390223  0.000574  0.941447  0.002
H  H22  1  0.04095714  0.36538604  0.92011285  1  0.291584  0.374603  0.000932  0.973503  0.002
H  H23  1  0.45903909  0.63461462  0.42011391  1  0.291572  0.374612  0.000932  0.973511  0.002
H  H24  1  0.95904479  0.63461488  0.07988678  1  0.291592  0.374644  0.000932  0.973461  0.002
H  H25  1  0.54095756  0.36538221  0.57988783  1  0.291589  0.374638  0.000932  0.973457  0.002
C  C26  1  0.99812556  0.50678013  0.34844214  1  0.257464  0.467453  0.001036  4.060496  0.001
C  C27  1  0.50187858  0.49321724  0.84844568  1  0.257296  0.4673  0.001037  4.060624  0.001
C  C28  1  0.00187769  0.49322079  0.65155749  1  0.257442  0.467446  0.001036  4.060589  0.001
C  C29  1  0.49812115  0.50678095  0.15155607  1  0.257361  0.467247  0.001036  4.060642  0.001
C  C30  1  0.97093363  0.65060470  0.57534627  1  -0.047829  -0.198228  -1.9e-05  3.894294  0.0
C  C31  1  0.52907094  0.34939912  0.07534532  1  -0.047826  -0.198117  -1.9e-05  3.894196  0.0
C  C32  1  0.02906699  0.34939622  0.42465336  1  -0.047841  -0.198258  -1.9e-05  3.894301  0.0
C  C33  1  0.47093099  0.65060180  0.92465220  1  -0.047774  -0.19806  -1.9e-05  3.894241  0.0
C  C34  1  0.11567216  0.94814152  0.31820465  1  0.22696  0.633771  0.020384  4.145942  0.02
C  C35  1  0.38432258  0.05185748  0.81821326  1  0.226981  0.633777  0.020383  4.145964  0.02
C  C36  1  0.88432846  0.05185940  0.68179393  1  0.226975  0.633801  0.020385  4.14601  0.02
C  C37  1  0.61567365  0.94814207  0.18178849  1  0.227009  0.63376  0.020383  4.146019  0.02
C  C38  1  0.93428257  0.79297889  0.34710537  1  -0.062046  -0.233935  0.002176  3.861578  0.002
C  C39  1  0.56571804  0.20701572  0.84710893  1  -0.062072  -0.233923  0.002176  3.861395  0.002
C  C40  1  0.06571936  0.20702203  0.65289426  1  -0.062067  -0.234048  0.002176  3.861626  0.002
C  C41  1  0.43428082  0.79298383  0.15289070  1  -0.062087  -0.233961  0.002176  3.861372  0.002
N  N42  1  0.96522041  0.64036229  0.42160924  1  -0.262095  -0.049117  3.9e-05  3.669175  0.0
N  N43  1  0.53478253  0.35963626  0.92161024  1  -0.261974  -0.049102  3.9e-05  3.669364  0.0
N  N44  1  0.03478020  0.35963863  0.57839145  1  -0.26205  -0.049003  3.9e-05  3.669245  0.0
N  N45  1  0.46521808  0.64036466  0.07838728  1  -0.262055  -0.049088  3.9e-05  3.669228  0.0
O  O46  1  0.23500143  0.98361764  0.41659146  1  -0.317257  -0.594589  0.045966  2.375687  0.027
O  O47  1  0.26499389  0.01637616  0.91659363  1  -0.317258  -0.594631  0.045966  2.375828  0.027
O  O48  1  0.76499785  0.01637919  0.58340711  1  -0.317265  -0.594606  0.045967  2.375609  0.027
O  O49  1  0.73500011  0.98361658  0.08340494  1  -0.31727  -0.594629  0.045969  2.375847  0.027
O  O50  1  0.00208915  0.50493085  0.21483228  1  -0.293167  -0.520051  0.000784  2.246571  0.001
O  O51  1  0.49791681  0.49506513  0.71483049  1  -0.293148  -0.520099  0.000784  2.246469  0.001
O  O52  1  0.99792025  0.49507281  0.78516735  1  -0.293209  -0.520113  0.000784  2.246615  0.001
O  O53  1  0.50207940  0.50493034  0.28516597  1  -0.293189  -0.520021  0.000784  2.246596  0.001
O  O54  1  0.07713285  0.30161434  0.00056601  1  -0.576636  -0.775143  0.040857  2.126586  0.024
O  O55  1  0.42286530  0.69838768  0.50056758  1  -0.576637  -0.775212  0.040857  2.126513  0.024
O  O56  1  0.92286469  0.69838522  0.99943468  1  -0.576641  -0.775222  0.040859  2.126561  0.024
O  O57  1  0.57713224  0.30161187  0.49943311  1  -0.576649  -0.775197  0.040859  2.126558  0.024
O  O58  1  0.13331269  0.03548664  0.20321266  1  -0.304177  -0.559243  0.046323  2.305019  0.031
O  O59  1  0.36667965  0.96451186  0.70321397  1  -0.304237  -0.559251  0.046324  2.305015  0.031
O  O60  1  0.86668836  0.96451564  0.79678591  1  -0.3042  -0.559226  0.046324  2.305146  0.031
O  O61  1  0.63332053  0.03548770  0.29678566  1  -0.30424  -0.559229  0.046325  2.305072  0.031
