# generated using pymatgen
data_CdH10(C2N)4
_symmetry_space_group_name_H-M   'P 1'
_cell_length_a   15.75886322
_cell_length_b   15.75534483
_cell_length_c   15.74710416
_cell_angle_alpha   109.45381953
_cell_angle_beta   109.46214478
_cell_angle_gamma   109.49215408
_symmetry_Int_Tables_number   1
_chemical_formula_structural   CdH10(C2N)4
_chemical_formula_sum   'Cd6 H60 C48 N24'
_cell_volume   3009.96382621
_cell_formula_units_Z   6
loop_
 _symmetry_equiv_pos_site_id
 _symmetry_equiv_pos_as_xyz
  1  'x, y, z'
loop_
 _atom_site_type_symbol
 _atom_site_label
 _atom_site_symmetry_multiplicity
 _atom_site_fract_x
 _atom_site_fract_y
 _atom_site_fract_z
 _atom_site_occupancy
 _atom_site_pbe_bader_charge
 _atom_site_pbe_bader_spin_density
 _atom_site_pbe_cm5_charge
 _atom_site_pbe_ddec_charge
 _atom_site_pbe_ddec_spin_density
 _atom_site_pbe_ddec_sum_bond_order
 _atom_site_pbe_magmom
Cd  Cd0  1  0.50012048  0.75013378  0.25017306  1  1.122463  0  0.796459  0.72314  0  2.378076  0
Cd  Cd1  1  0.49964803  0.24999649  0.75007742  1  1.124379  0  0.796776  0.730143  0  2.361415  0
Cd  Cd2  1  0.24995521  0.49994451  0.75023031  1  1.123769  0  0.797144  0.727791  0  2.367298  0
Cd  Cd3  1  0.75007894  0.50036203  0.25040283  1  1.123518  0  0.795487  0.72336  0  2.377509  0
Cd  Cd4  1  0.74990740  0.24974488  0.50002655  1  1.124339  0  0.796762  0.729249  0  2.361854  0
Cd  Cd5  1  0.24992513  0.74974060  0.50002583  1  1.125229  0  0.796873  0.729513  0  2.3622  0
H  H6  1  0.76057699  0.89195252  0.40631617  1  0.081192  0  0.106593  0.100048  0  1.024453  0
H  H7  1  0.51476616  0.10774436  0.86861186  1  0.090757  0  0.106213  0.098565  0  1.027409  0
H  H8  1  0.23951191  0.64557741  0.13122503  1  0.069547  0  0.107132  0.101656  0  1.021853  0
H  H9  1  0.48524424  0.35367404  0.59325969  1  0.080795  0  0.106454  0.099908  0  1.026101  0
H  H10  1  0.40650268  0.76067908  0.89198752  1  0.080607  0  0.106625  0.099653  0  1.024802  0
H  H11  1  0.86854130  0.51428234  0.10813252  1  0.078516  0  0.107249  0.102703  0  1.020063  0
H  H12  1  0.13136664  0.23954809  0.64575320  1  0.071408  0  0.106577  0.100333  0  1.023605  0
H  H13  1  0.59317028  0.48539237  0.35409112  1  0.076118  0  0.106356  0.098689  0  1.027569  0
H  H14  1  0.89211696  0.40705995  0.76080553  1  0.083821  0  0.106817  0.09954  0  1.025925  0
H  H15  1  0.10814802  0.86862151  0.51446149  1  0.089722  0  0.106892  0.100675  0  1.02199  0
H  H16  1  0.64601233  0.13146576  0.23945490  1  0.071887  0  0.10627  0.099469  0  1.02631  0
H  H17  1  0.35407194  0.59340885  0.48552007  1  0.077284  0  0.106479  0.099026  0  1.026392  0
H  H18  1  0.40648920  0.89180170  0.76048808  1  0.081229  0  0.106566  0.100086  0  1.025333  0
H  H19  1  0.86856388  0.10795169  0.51449085  1  0.088582  0  0.106373  0.098969  0  1.026159  0
H  H20  1  0.13144673  0.64625424  0.23916787  1  0.071814  0  0.106678  0.099289  0  1.026727  0
H  H21  1  0.59361602  0.35415957  0.48558059  1  0.078184  0  0.107066  0.100889  0  1.022092  0
H  H22  1  0.89216538  0.76056929  0.40685311  1  0.085474  0  0.106738  0.100085  0  1.026223  0
H  H23  1  0.10797609  0.51487748  0.86867328  1  0.090287  0  0.106432  0.099359  0  1.026876  0
H  H24  1  0.64530891  0.23940110  0.13127264  1  0.069432  0  0.107031  0.101555  0  1.020848  0
H  H25  1  0.35421260  0.48558916  0.59376697  1  0.077125  0  0.106527  0.10006  0  1.02425  0
H  H26  1  0.76054899  0.40617874  0.89198528  1  0.082455  0  0.10734  0.101911  0  1.019612  0
H  H27  1  0.51453499  0.86865403  0.10808437  1  0.088729  0  0.106515  0.100052  0  1.025342  0
H  H28  1  0.23924586  0.13148813  0.64607311  1  0.072018  0  0.106581  0.099017  0  1.026753  0
H  H29  1  0.48554872  0.59374805  0.35434903  1  0.07355  0  0.106723  0.100475  0  1.024366  0
H  H30  1  0.52503580  0.06908561  0.38286905  1  0.056159  0  0.096309  0.142711  0  1.007959  0
H  H31  1  0.45583588  0.93054482  0.31309229  1  0.063508  0  0.096548  0.144053  0  1.006576  0
H  H32  1  0.50203383  0.00044396  0.25528605  1  0.048592  0  0.093659  0.133713  0  1.002348  0
H  H33  1  0.26563247  0.01802040  0.51039854  1  0.042223  0  0.093722  0.13329  0  1.003264  0
H  H34  1  0.29783871  0.92416000  0.45428554  1  0.047456  0  0.096022  0.141701  0  1.012308  0
H  H35  1  0.38869625  0.05933022  0.51860141  1  0.056625  0  0.097181  0.146179  0  0.99703  0
H  H36  1  0.49363146  0.75385664  0.50305965  1  0.037554  0  0.093882  0.133996  0  1.002011  0
H  H37  1  0.47801856  0.86425805  0.54265280  1  0.046026  0  0.097301  0.146092  0  1.001678  0
H  H38  1  0.54504075  0.85045272  0.47198030  1  0.071744  0  0.096137  0.142251  0  1.012109  0
H  H39  1  0.64972907  0.11660293  0.60871047  1  0.072734  0  0.097446  0.147022  0  0.987519  0
H  H40  1  0.64245527  0.17648095  0.72174727  1  0.058899  0  0.095874  0.139799  0  1.014546  0
H  H41  1  0.75665582  0.23685689  0.71640139  1  0.071842  0  0.094475  0.134945  0  1.005471  0
H  H42  1  0.24678506  0.49089926  0.97910595  1  0.036485  0  0.093999  0.13435  0  1.003259  0
H  H43  1  0.37196098  0.53083557  0.07672038  1  0.051436  0  0.096382  0.142718  0  1.011584  0
H  H44  1  0.33209154  0.46013119  0.94272545  1  0.053249  0  0.097064  0.145496  0  0.999015  0
H  H45  1  0.46393622  0.34335668  0.95224230  1  0.050261  0  0.097007  0.145654  0  0.992942  0
H  H46  1  0.53305547  0.36348320  0.07887276  1  0.067346  0  0.095981  0.14081  0  1.014052  0
H  H47  1  0.48417280  0.24401245  0.96693261  1  0.00926  0  0.094213  0.134651  0  1.004023  0
H  H48  1  0.54315659  0.47700977  0.86209976  1  0.063765  0  0.097041  0.144694  0  1.004042  0
H  H49  1  0.47298637  0.54494928  0.85281947  1  0.041168  0  0.096668  0.143817  0  1.007785  0
H  H50  1  0.50141215  0.49510665  0.75347471  1  0.046735  0  0.093873  0.134559  0  1.001127  0
H  H51  1  0.62007858  0.69203966  0.14715206  1  0.056945  0  0.096531  0.143624  0  1.007245  0
H  H52  1  0.68093613  0.61478972  0.13785756  1  0.058591  0  0.096922  0.14512  0  1.00255  0
H  H53  1  0.74786832  0.74154557  0.24643440  1  0.033251  0  0.0935  0.132948  0  1.002347  0
H  H54  1  0.93542360  0.32164353  0.45738808  1  0.053658  0  0.097345  0.146094  0  1.001872  0
H  H55  1  0.99062192  0.25081546  0.49697444  1  0.042363  0  0.093914  0.133947  0  1.001943  0
H  H56  1  0.07307982  0.37845883  0.52799882  1  0.072832  0  0.096143  0.142201  0  1.012096  0
H  H57  1  0.92080427  0.45490782  0.27836131  1  0.066553  0  0.095893  0.140069  0  1.014328  0
H  H58  1  0.04105014  0.50791656  0.39134147  1  0.053317  0  0.097508  0.147229  0  0.987171  0
H  H59  1  0.04031550  0.52051283  0.28360548  1  0.053842  0  0.09466  0.135404  0  1.005044  0
H  H60  1  0.84356907  0.46986226  0.54579996  1  0.058062  0  0.096062  0.141688  0  1.012165  0
H  H61  1  0.75526028  0.50759971  0.48963865  1  0.041651  0  0.093815  0.133434  0  1.003061  0
H  H62  1  0.87010564  0.54069493  0.48141475  1  0.049149  0  0.097091  0.146055  0  0.997142  0
H  H63  1  0.14271975  0.61750130  0.68703207  1  0.065541  0  0.096715  0.144499  0  1.006819  0
H  H64  1  0.14219557  0.68622287  0.61715326  1  0.067481  0  0.096369  0.142772  0  1.007585  0
H  H65  1  0.24667898  0.74512835  0.74474522  1  0.036491  0  0.093582  0.133509  0  1.002365  0
C  C66  1  0.73262134  0.94648489  0.40829528  1  0.375893  0  -0.034696  -0.073008  0  4.100243  0
C  C67  1  0.46186360  0.05333553  0.78610891  1  0.300247  0  -0.034319  -0.073361  0  4.104351  0
C  C68  1  0.26741945  0.67559171  0.21375356  1  0.416946  0  -0.034876  -0.072585  0  4.098825  0
C  C69  1  0.53797612  0.32395547  0.59150408  1  0.404507  0  -0.035946  -0.076157  0  4.1039  0
C  C70  1  0.40840615  0.73270883  0.94654665  1  0.325737  0  -0.033505  -0.07065  0  4.100069  0
C  C71  1  0.78603864  0.46177592  0.05357203  1  0.373502  0  -0.035706  -0.075508  0  4.10137  0
C  C72  1  0.21384612  0.26748523  0.67568354  1  0.425508  0  -0.034446  -0.071963  0  4.099777  0
C  C73  1  0.59149737  0.53818591  0.32437671  1  0.272865  0  -0.034481  -0.073467  0  4.10377  0
C  C74  1  0.94653556  0.40853488  0.73274250  1  0.328718  0  -0.034414  -0.073455  0  4.104449  0
C  C75  1  0.05360412  0.78610558  0.46196777  1  0.362934  0  -0.032981  -0.068416  0  4.098853  0
C  C76  1  0.67576399  0.21393813  0.26740494  1  0.414451  0  -0.035685  -0.074695  0  4.103622  0
C  C77  1  0.32430640  0.59163463  0.53826430  1  0.272781  0  -0.034627  -0.072548  0  4.102149  0
C  C78  1  0.40832349  0.94635957  0.73256004  1  0.374374  0  -0.035379  -0.074004  0  4.10171  0
C  C79  1  0.78608762  0.05344996  0.46178225  1  0.302684  0  -0.034346  -0.071919  0  4.10121  0
C  C80  1  0.21390800  0.67578375  0.26723552  1  0.291847  0  -0.034355  -0.074189  0  4.105341  0
C  C81  1  0.59157746  0.32413856  0.53811118  1  0.273387  0  -0.033501  -0.069366  0  4.09945  0
C  C82  1  0.94665791  0.73261603  0.40862150  1  0.318982  0  -0.036056  -0.07678  0  4.1034  0
C  C83  1  0.05347793  0.46198093  0.78619710  1  0.343432  0  -0.034772  -0.074032  0  4.103874  0
C  C84  1  0.67549369  0.26739572  0.21384747  1  0.294515  0  -0.034205  -0.071425  0  4.099998  0
C  C85  1  0.32428516  0.53814583  0.59179236  1  0.408572  0  -0.034285  -0.07197  0  4.100234  0
C  C86  1  0.73257746  0.40826067  0.94656819  1  0.323233  0  -0.033573  -0.069859  0  4.099821  0
C  C87  1  0.46189581  0.78617250  0.05354501  1  0.354046  0  -0.035203  -0.074449  0  4.101392  0
C  C88  1  0.26727498  0.21396843  0.67574123  1  0.290124  0  -0.034431  -0.072809  0  4.103007  0
C  C89  1  0.53810726  0.59173603  0.32440692  1  0.408947  0  -0.034989  -0.072927  0  4.100601  0
C  C90  1  0.52080153  0.00000205  0.32904342  1  -0.075452  0  -0.235924  -0.463936  0  3.968104  0
C  C91  1  0.62047077  0.99999569  0.37392212  1  0.981223  0  0.185287  0.366949  0  4.032091  0
C  C92  1  0.32913851  0.00031338  0.52087104  1  -0.050606  0  -0.235981  -0.463572  0  3.965633  0
C  C93  1  0.37359792  0.00002022  0.62049835  1  0.977431  0  0.186197  0.370325  0  4.026024  0
C  C94  1  0.47909744  0.80826547  0.47934576  1  -0.072343  0  -0.236943  -0.466288  0  3.96689  0
C  C95  1  0.37947173  0.75332248  0.37954411  1  0.978061  0  0.186147  0.370363  0  4.026079  0
C  C96  1  0.67119945  0.19165732  0.67081799  1  -0.109644  0  -0.234806  -0.463274  0  3.970389  0
C  C97  1  0.62712469  0.24764621  0.62720132  1  0.967662  0  0.185149  0.366793  0  4.032678  0
C  C98  1  0.32890479  0.52062172  0.99975743  1  -0.046479  0  -0.236604  -0.465897  0  3.966894  0
C  C99  1  0.37361787  0.62052554  0.00005636  1  0.978407  0  0.186235  0.369413  0  4.02738  0
C  C100  1  0.52045721  0.32878939  0.99963456  1  -0.03106  0  -0.235329  -0.463241  0  3.968294  0
C  C101  1  0.62046484  0.37314304  0.00007065  1  0.958674  0  0.185335  0.367527  0  4.031927  0
C  C102  1  0.47929092  0.47921620  0.80824532  1  -0.068953  0  -0.237106  -0.467089  0  3.966836  0
C  C103  1  0.37952135  0.37959050  0.75341688  1  0.978245  0  0.184977  0.36599  0  4.0352  0
C  C104  1  0.67099724  0.67091644  0.19173560  1  -0.052917  0  -0.236242  -0.463488  0  3.962276  0
C  C105  1  0.62612974  0.62618085  0.24667661  1  0.975541  0  0.186665  0.371879  0  4.022348  0
C  C106  1  0.99979908  0.32892558  0.52067392  1  -0.074196  0  -0.236848  -0.465931  0  3.966628  0
C  C107  1  0.99992488  0.37374976  0.62048717  1  0.977746  0  0.18669  0.370676  0  4.024926  0
C  C108  1  0.00046911  0.52093066  0.32924791  1  -0.075722  0  -0.234802  -0.46393  0  3.969618  0
C  C109  1  0.00007649  0.62056011  0.37290051  1  0.965606  0  0.185376  0.367547  0  4.031426  0
C  C110  1  0.80830100  0.47941796  0.47917805  1  -0.066488  0  -0.236459  -0.463712  0  3.965826  0
C  C111  1  0.75317052  0.37956123  0.37956035  1  0.978158  0  0.185754  0.369493  0  4.027644  0
C  C112  1  0.19174190  0.67096080  0.67102717  1  -0.074948  0  -0.236621  -0.464932  0  3.968423  0
C  C113  1  0.24654235  0.62604762  0.62617068  1  0.975995  0  0.185401  0.367338  0  4.032565  0
N  N114  1  0.62814409  0.91328203  0.35306787  1  -1.248533  0  -0.38974  -0.371212  0  3.542107  0
N  N115  1  0.43957143  0.08667239  0.71493675  1  -1.236578  0  -0.390199  -0.371815  0  3.535905  0
N  N116  1  0.37185877  0.72470332  0.28512731  1  -1.232857  0  -0.389362  -0.37152  0  3.541544  0
N  N117  1  0.56079009  0.27558543  0.64758895  1  -1.227976  0  -0.388604  -0.37134  0  3.542036  0
N  N118  1  0.35288628  0.62824790  0.91332725  1  -1.248221  0  -0.390418  -0.372102  0  3.539405  0
N  N119  1  0.71478449  0.43926750  0.08681348  1  -1.222908  0  -0.389283  -0.373386  0  3.545252  0
N  N120  1  0.28517141  0.37195422  0.72488578  1  -1.242907  0  -0.389557  -0.371811  0  3.542888  0
N  N121  1  0.64688510  0.56029961  0.27523840  1  -1.232713  0  -0.389899  -0.370359  0  3.538139  0
N  N122  1  0.91326076  0.35302857  0.62823064  1  -1.245458  0  -0.389761  -0.372671  0  3.538551  0
N  N123  1  0.08678442  0.71494236  0.43907051  1  -1.233338  0  -0.390724  -0.374649  0  3.541662  0
N  N124  1  0.72491116  0.28520910  0.37194735  1  -1.239787  0  -0.388705  -0.371825  0  3.540977  0
N  N125  1  0.27512630  0.64691280  0.56031599  1  -1.233735  0  -0.389439  -0.369902  0  3.539947  0
N  N126  1  0.35280637  0.91323576  0.62807962  1  -1.246349  0  -0.388713  -0.371777  0  3.540049  0
N  N127  1  0.71484830  0.08666714  0.43974217  1  -1.234746  0  -0.389354  -0.369781  0  3.539345  0
N  N128  1  0.28508013  0.72493360  0.37179205  1  -1.241615  0  -0.389902  -0.373  0  3.539953  0
N  N129  1  0.64766881  0.27588039  0.56099576  1  -1.23164  0  -0.390471  -0.374077  0  3.541195  0
N  N130  1  0.91341268  0.62819252  0.35255934  1  -1.248632  0  -0.388682  -0.369866  0  3.542936  0
N  N131  1  0.08664865  0.43969895  0.71488326  1  -1.236778  0  -0.389259  -0.371158  0  3.540679  0
N  N132  1  0.72447481  0.37185495  0.28510569  1  -1.233482  0  -0.390214  -0.372075  0  3.53859  0
N  N133  1  0.27503060  0.56017161  0.64705402  1  -1.233889  0  -0.389914  -0.372954  0  3.541538  0
N  N134  1  0.62815972  0.35250599  0.91332919  1  -1.251534  0  -0.390851  -0.37514  0  3.542547  0
N  N135  1  0.43958522  0.71488228  0.08677497  1  -1.235127  0  -0.388917  -0.370851  0  3.54154  0
N  N136  1  0.37175184  0.28517324  0.72490537  1  -1.239077  0  -0.389931  -0.370874  0  3.541158  0
N  N137  1  0.56030204  0.64706551  0.27521939  1  -1.231309  0  -0.389438  -0.371616  0  3.539298  0
