# generated using pymatgen
data_CdH14C14BrN2O5
_symmetry_space_group_name_H-M   'P 1'
_cell_length_a   8.36122385
_cell_length_b   10.16749605
_cell_length_c   11.15974912
_cell_angle_alpha   73.30220594
_cell_angle_beta   74.97451081
_cell_angle_gamma   66.42362154
_symmetry_Int_Tables_number   1
_chemical_formula_structural   CdH14C14BrN2O5
_chemical_formula_sum   'Cd2 H28 C28 Br2 N4 O10'
_cell_volume   821.53094564
_cell_formula_units_Z   2
loop_
 _symmetry_equiv_pos_site_id
 _symmetry_equiv_pos_as_xyz
  1  'x, y, z'
loop_
 _atom_site_type_symbol
 _atom_site_label
 _atom_site_symmetry_multiplicity
 _atom_site_fract_x
 _atom_site_fract_y
 _atom_site_fract_z
 _atom_site_occupancy
 _atom_site_hle17_bader_spin_density
 _atom_site_hle17_ddec_charge
 _atom_site_hle17_ddec_spin_density
 _atom_site_hle17_ddec_sum_bond_order
 _atom_site_hle17_magmom
 _atom_site_hse06_10hf_bader_spin_density
 _atom_site_hse06_10hf_ddec_charge
 _atom_site_hse06_10hf_ddec_spin_density
 _atom_site_hse06_10hf_ddec_sum_bond_order
 _atom_site_hse06_10hf_magmom
 _atom_site_hse06_bader_spin_density
 _atom_site_hse06_ddec_charge
 _atom_site_hse06_ddec_spin_density
 _atom_site_hse06_ddec_sum_bond_order
 _atom_site_hse06_magmom
 _atom_site_pbe_bader_spin_density
 _atom_site_pbe_cm5_charge
 _atom_site_pbe_ddec_charge
 _atom_site_pbe_ddec_spin_density
 _atom_site_pbe_ddec_sum_bond_order
 _atom_site_pbe_magmom
Cd  Cd0  1  0.34550428  0.92566393  0.44142096  1  0  1.197373  0  1.575924  0  0  1.017816  0  2.004  0  0  1.076335  0  1.950142  0  0  0.775952  0.972996  0  2.042757  0
Cd  Cd1  1  0.65449847  0.07433516  0.55858195  1  0  1.197356  0  1.575945  0  0  1.017798  0  2.004022  0  0  1.076319  0  1.950165  0  0  0.775957  0.972978  0  2.042781  0
H  H2  1  0.99995779  0.10319384  0.35288871  1  0  0.42244  0  0.88262  0  0  0.391063  0  0.947768  0  0  0.401898  0  0.932114  0  0  0.28604  0.383314  0  0.958978  0
H  H3  1  0.00004404  0.89680748  0.64711203  1  0  0.422419  0  0.882637  0  0  0.391038  0  0.947793  0  0  0.401876  0  0.932136  0  0  0.286043  0.38329  0  0.959003  0
H  H4  1  0.03753057  0.93959994  0.36871984  1  0  0.42579  0  0.873513  0  0  0.395328  0  0.937743  0  0  0.406115  0  0.922018  0  0  0.293339  0.387654  0  0.94889  0
H  H5  1  0.96247003  0.06040138  0.63128204  1  0  0.425785  0  0.873483  0  0  0.395327  0  0.937732  0  0  0.406114  0  0.922007  0  0  0.293341  0.387653  0  0.94888  0
H  H6  1  0.96734474  0.24967372  0.72893852  1  0  0.115314  0  0.941026  0  0  0.126374  0  1.002042  0  0  0.130072  0  0.999133  0  0  0.109312  0.123869  0  1.003899  0
H  H7  1  0.03265835  0.75032448  0.27105558  1  0  0.115311  0  0.941039  0  0  0.126402  0  1.00203  0  0  0.1301  0  0.999121  0  0  0.109311  0.123899  0  1.003884  0
H  H8  1  0.99030651  0.65872283  0.75264029  1  0  0.114767  0  0.938845  0  0  0.12603  0  0.998087  0  0  0.130122  0  0.994601  0  0  0.108067  0.123123  0  1.000596  0
H  H9  1  0.00968357  0.34127993  0.24735433  1  0  0.114841  0  0.938721  0  0  0.126139  0  0.997925  0  0  0.130216  0  0.994458  0  0  0.108087  0.123231  0  1.000437  0
H  H10  1  0.33860395  0.43076079  0.46056530  1  0  0.118236  0  0.935878  0  0  0.12517  0  1.000455  0  0  0.129641  0  0.996357  0  0  0.111208  0.121913  0  1.00349  0
H  H11  1  0.66139568  0.56924287  0.53942992  1  0  0.118259  0  0.935855  0  0  0.125156  0  1.000469  0  0  0.129628  0  0.99637  0  0  0.111206  0.121898  0  1.003504  0
H  H12  1  0.44450038  0.20100528  0.24766468  1  0  0.142137  0  0.959727  0  0  0.160911  0  1.019713  0  0  0.163237  0  1.018594  0  0  0.096657  0.159221  0  1.020536  0
H  H13  1  0.55549772  0.79899609  0.75233678  1  0  0.142135  0  0.959781  0  0  0.160899  0  1.019769  0  0  0.163234  0  1.018641  0  0  0.096651  0.159211  0  1.020588  0
H  H14  1  0.56102168  0.24000218  0.09145669  1  0  0.107636  0  0.979135  0  0  0.122041  0  1.05198  0  0  0.124347  0  1.050702  0  0  0.085154  0.120361  0  1.052871  0
H  H15  1  0.43897935  0.75999807  0.90854448  1  0  0.107648  0  0.979085  0  0  0.122087  0  1.051895  0  0  0.124395  0  1.050615  0  0  0.085173  0.120409  0  1.052787  0
H  H16  1  0.67461277  0.15777970  0.22355538  1  0  0.147081  0  0.930196  0  0  0.168171  0  0.98681  0  0  0.170795  0  0.985405  0  0  0.101396  0.166206  0  0.987982  0
H  H17  1  0.32538535  0.84222163  0.77644788  1  0  0.147086  0  0.930176  0  0  0.168161  0  0.986813  0  0  0.170783  0  0.985411  0  0  0.101389  0.166197  0  0.987984  0
H  H18  1  0.53773143  0.70140221  0.24588930  1  0  0.117079  0  0.956972  0  0  0.127981  0  1.013588  0  0  0.130746  0  1.011875  0  0  0.119016  0.126  0  1.014705  0
H  H19  1  0.46226670  0.29859910  0.75411487  1  0  0.117088  0  0.956953  0  0  0.127995  0  1.01357  0  0  0.130759  0  1.011858  0  0  0.118997  0.126011  0  1.014689  0
H  H20  1  0.74688114  0.75063846  0.00981154  1  0  0.107151  0  0.959484  0  0  0.116583  0  1.024033  0  0  0.119393  0  1.022501  0  0  0.115323  0.114259  0  1.025648  0
H  H21  1  0.25312004  0.24935840  0.99019492  1  0  0.107135  0  0.959475  0  0  0.11656  0  1.024033  0  0  0.119376  0  1.022486  0  0  0.115314  0.114234  0  1.025651  0
H  H22  1  0.71963017  0.14480955  0.93954674  1  0  0.063195  0  0.948446  0  0  0.077338  0  1.017072  0  0  0.077787  0  1.017205  0  0  0.103016  0.076837  0  1.017178  0
H  H23  1  0.28037311  0.85518519  0.06045624  1  0  0.063271  0  0.948462  0  0  0.077368  0  1.017116  0  0  0.077815  0  1.01725  0  0  0.103022  0.076869  0  1.017223  0
H  H24  1  0.76062311  0.99983442  0.86581686  1  0  0.091223  0  0.956658  0  0  0.104971  0  1.017801  0  0  0.106167  0  1.017388  0  0  0.108402  0.104022  0  1.018213  0
H  H25  1  0.23937722  0.00016145  0.13418642  1  0  0.091309  0  0.956623  0  0  0.105012  0  1.017798  0  0  0.106209  0  1.017383  0  0  0.108405  0.104062  0  1.018212  0
H  H26  1  0.03651041  0.85507217  0.96219095  1  0  0.06287  0  0.94847  0  0  0.077494  0  1.018081  0  0  0.078433  0  1.018067  0  0  0.083489  0.076699  0  1.01822  0
H  H27  1  0.96348950  0.14492475  0.03781395  1  0  0.062914  0  0.948457  0  0  0.077522  0  1.018099  0  0  0.07846  0  1.018088  0  0  0.083512  0.076727  0  1.018239  0
H  H28  1  0.03911597  0.01933420  0.85450453  1  0  0.073715  0  0.945394  0  0  0.092492  0  1.006574  0  0  0.09305  0  1.00719  0  0  0.093484  0.092039  0  1.006119  0
H  H29  1  0.96088394  0.98066272  0.14550036  1  0  0.073663  0  0.945425  0  0  0.092452  0  1.006608  0  0  0.093009  0  1.007229  0  0  0.093462  0.092001  0  1.006152  0
C  C30  1  0.24409316  0.67877336  0.54450041  1  0  0.637169  0  3.926972  0  0  0.587394  0  4.214869  0  0  0.621479  0  4.209535  0  0  0.19847  0.564442  0  4.217249  0
C  C31  1  0.75590820  0.32122910  0.45549836  1  0  0.637199  0  3.926788  0  0  0.58743  0  4.214665  0  0  0.621517  0  4.209336  0  0  0.19849  0.564474  0  4.217046  0
C  C32  1  0.23898566  0.19276419  0.53275606  1  0  0.655188  0  3.908506  0  0  0.598834  0  4.202102  0  0  0.633711  0  4.196725  0  0  0.20547  0.575121  0  4.204795  0
C  C33  1  0.76101871  0.80723391  0.46724140  1  0  0.655209  0  3.908314  0  0  0.598833  0  4.20194  0  0  0.633708  0  4.196566  0  0  0.205448  0.575121  0  4.20463  0
C  C34  1  0.16212606  0.32585340  0.58940794  1  0  -0.060148  0  3.761541  0  0  -0.031729  0  3.999806  0  0  -0.041956  0  4.024324  0  0  -0.014693  -0.025344  0  3.983794  0
C  C35  1  0.83787444  0.67414810  0.41058585  1  0  -0.060192  0  3.761729  0  0  -0.031778  0  3.999992  0  0  -0.042003  0  4.024508  0  0  -0.014672  -0.025397  0  3.983983  0
C  C36  1  0.02416011  0.33569534  0.69337234  1  0  -0.093725  0  3.695774  0  0  -0.13499  0  3.953222  0  0  -0.132473  0  3.971143  0  0  -0.08116  -0.13617  0  3.94079  0
C  C37  1  0.97583959  0.66430508  0.30662188  1  0  -0.093766  0  3.695926  0  0  -0.135067  0  3.953376  0  0  -0.132548  0  3.971292  0  0  -0.08122  -0.136263  0  3.940984  0
C  C38  1  0.96561608  0.45487913  0.75113487  1  0  0.089901  0  3.727368  0  0  0.109227  0  4.000501  0  0  0.109116  0  4.023888  0  0  -0.013569  0.108936  0  3.984909  0
C  C39  1  0.03438149  0.54512350  0.24885921  1  0  0.09  0  3.727314  0  0  0.109319  0  4.000459  0  0  0.109209  0  4.02384  0  0  -0.013543  0.109024  0  3.984867  0
C  C40  1  0.03640823  0.56630723  0.70627595  1  0  -0.110019  0  3.707851  0  0  -0.147854  0  3.957804  0  0  -0.146259  0  3.976367  0  0  -0.085932  -0.148272  0  3.945119  0
C  C41  1  0.96359230  0.43369423  0.29371964  1  0  -0.110237  0  3.707811  0  0  -0.148116  0  3.957767  0  0  -0.146505  0  3.976339  0  0  -0.08598  -0.148533  0  3.945078  0
C  C42  1  0.16934697  0.55830486  0.59913486  1  0  -0.043607  0  3.736519  0  0  -0.016232  0  3.972919  0  0  -0.025226  0  3.995828  0  0  -0.011569  -0.01081  0  3.957798  0
C  C43  1  0.83065142  0.44169881  0.40086060  1  0  -0.043585  0  3.736488  0  0  -0.016199  0  3.972856  0  0  -0.025201  0  3.99577  0  0  -0.011605  -0.010763  0  3.957713  0
C  C44  1  0.23279401  0.43754525  0.54189511  1  0  -0.048478  0  3.668682  0  0  -0.091204  0  3.923566  0  0  -0.087499  0  3.941174  0  0  -0.067844  -0.093174  0  3.912145  0
C  C45  1  0.76720233  0.56245736  0.45810101  1  0  -0.048406  0  3.668729  0  0  -0.091079  0  3.923568  0  0  -0.087377  0  3.941183  0  0  -0.067782  -0.093057  0  3.912159  0
C  C46  1  0.56685343  0.16071335  0.18227777  1  0  -0.402866  0  3.718843  0  0  -0.485129  0  3.960576  0  0  -0.489468  0  3.96582  0  0  -0.24094  -0.481954  0  3.956985  0
C  C47  1  0.43314592  0.83928798  0.81772436  1  0  -0.402866  0  3.718893  0  0  -0.485151  0  3.960609  0  0  -0.489498  0  3.965845  0  0  -0.240926  -0.481972  0  3.95702  0
C  C48  1  0.59099767  0.01377865  0.16582693  1  0  0.376782  0  3.678247  0  0  0.353602  0  3.94664  0  0  0.369996  0  3.961942  0  0  0.216798  0.342659  0  3.93586  0
C  C49  1  0.40900178  0.98621941  0.83417599  1  0  0.376741  0  3.678257  0  0  0.35359  0  3.946615  0  0  0.369983  0  3.961919  0  0  0.216746  0.342632  0  3.935857  0
C  C50  1  0.57737081  0.79482206  0.19607281  1  0  0.004415  0  3.787316  0  0  -0.03253  0  4.062  0  0  -0.029666  0  4.083077  0  0  -0.008381  -0.034617  0  4.04761  0
C  C51  1  0.42263057  0.20518036  0.80392775  1  0  0.004359  0  3.787122  0  0  -0.0326  0  4.061824  0  0  -0.029735  0  4.0829  0  0  -0.008423  -0.034684  0  4.047431  0
C  C52  1  0.67953933  0.81818213  0.08009097  1  0  -0.070539  0  3.701891  0  0  -0.115349  0  3.971706  0  0  -0.114684  0  3.991487  0  0  -0.009417  -0.115839  0  3.958832  0
C  C53  1  0.32045676  0.18181810  0.91991475  1  0  -0.070463  0  3.70167  0  0  -0.115268  0  3.971486  0  0  -0.114603  0  3.99127  0  0  -0.009333  -0.115759  0  3.958613  0
C  C54  1  0.78119655  0.02552244  0.94816487  1  0  -0.002309  0  3.634555  0  0  -0.062615  0  3.888433  0  0  -0.058768  0  3.900161  0  0  -0.060497  -0.064968  0  3.880375  0
C  C55  1  0.21880629  0.97447338  0.05183884  1  0  -0.002521  0  3.634857  0  0  -0.062725  0  3.888653  0  0  -0.058878  0  3.900379  0  0  -0.060485  -0.06508  0  3.880595  0
C  C56  1  0.97865905  0.97544986  0.94951851  1  0  -0.125253  0  3.690412  0  0  -0.166074  0  3.952196  0  0  -0.167574  0  3.966319  0  0  -0.168542  -0.164919  0  3.942373  0
C  C57  1  0.02134380  0.02454594  0.05048610  1  0  -0.125261  0  3.690616  0  0  -0.166121  0  3.952409  0  0  -0.167623  0  3.966539  0  0  -0.168594  -0.164965  0  3.942587  0
Br  Br58  1  0.78742591  0.46294555  0.89952400  1  0  -0.083372  0  1.193392  0  0  -0.066589  0  1.408803  0  0  -0.070564  0  1.401984  0  0  0.040384  -0.063536  0  1.413687  0
Br  Br59  1  0.21256629  0.53705504  0.10046895  1  0  -0.083366  0  1.193307  0  0  -0.066576  0  1.408719  0  0  -0.070551  0  1.401897  0  0  0.040393  -0.063517  0  1.413607  0
N  N60  1  0.52299902  0.91675967  0.24853347  1  0  -0.472397  0  3.220641  0  0  -0.397008  0  3.496655  0  0  -0.422285  0  3.515454  0  0  -0.365181  -0.379244  0  3.482955  0
N  N61  1  0.47699784  0.08324170  0.75146913  1  0  -0.472354  0  3.220627  0  0  -0.396976  0  3.496635  0  0  -0.422253  0  3.515436  0  0  -0.365155  -0.379208  0  3.482939  0
N  N62  1  0.68695162  0.95639047  0.06183344  1  0  -0.111187  0  3.517955  0  0  -0.018498  0  3.732538  0  0  -0.034045  0  3.758743  0  0  -0.243583  -0.008234  0  3.714719  0
N  N63  1  0.31304908  0.04360756  0.93817013  1  0  -0.111153  0  3.517992  0  0  -0.018479  0  3.732543  0  0  -0.034025  0  3.75875  0  0  -0.243573  -0.008212  0  3.714729  0
O  O64  1  0.20622032  0.77636576  0.60984731  1  0  -0.67447  0  2.005294  0  0  -0.603737  0  2.235092  0  0  -0.632711  0  2.223522  0  0  -0.333014  -0.582384  0  2.242833  0
O  O65  1  0.79377729  0.22363680  0.39015037  1  0  -0.674491  0  2.005226  0  0  -0.603755  0  2.235013  0  0  -0.632726  0  2.223445  0  0  -0.332978  -0.582399  0  2.242755  0
O  O66  1  0.33952056  0.68202305  0.43623397  1  0  -0.613444  0  1.924124  0  0  -0.557018  0  2.153064  0  0  -0.584469  0  2.145361  0  0  -0.317885  -0.537155  0  2.15703  0
O  O67  1  0.66048113  0.31798164  0.56376150  1  0  -0.613417  0  1.924024  0  0  -0.557022  0  2.153003  0  0  -0.584471  0  2.145302  0  0  -0.317906  -0.537161  0  2.156971  0
O  O68  1  0.15060451  0.10847651  0.55570883  1  0  -0.647939  0  2.04398  0  0  -0.575202  0  2.286329  0  0  -0.605021  0  2.276494  0  0  -0.314174  -0.553761  0  2.293222  0
O  O69  1  0.84939694  0.89152268  0.44429073  1  0  -0.647927  0  2.043862  0  0  -0.575181  0  2.286221  0  0  -0.604998  0  2.276384  0  0  -0.314162  -0.553746  0  2.293131  0
O  O70  1  0.39151902  0.16508832  0.46350221  1  0  -0.673449  0  2.032851  0  0  -0.601772  0  2.288052  0  0  -0.631712  0  2.276466  0  0  -0.32462  -0.579942  0  2.295036  0
O  O71  1  0.60848619  0.83491079  0.53649752  1  0  -0.673469  0  2.032707  0  0  -0.601791  0  2.28793  0  0  -0.631724  0  2.276332  0  0  -0.324624  -0.57996  0  2.294913  0
O  O72  1  0.09888337  0.01137936  0.33562404  1  0  -0.836269  0  1.864739  0  0  -0.775252  0  2.052804  0  0  -0.798033  0  2.020282  0  0  -0.589974  -0.759301  0  2.075534  0
O  O73  1  0.90111724  0.98862194  0.66437875  1  0  -0.836246  0  1.864741  0  0  -0.77524  0  2.052834  0  0  -0.79802  0  2.020312  0  0  -0.589986  -0.759288  0  2.075566  0
