# generated using pymatgen
data_Yb2H15C21S3NO14
_symmetry_space_group_name_H-M   'P 1'
_cell_length_a   11.38890333
_cell_length_b   17.13681973
_cell_length_c   17.22637254
_cell_angle_alpha   105.48416600
_cell_angle_beta   90.00021612
_cell_angle_gamma   90.00012098
_symmetry_Int_Tables_number   1
_chemical_formula_structural   Yb2H15C21S3NO14
_chemical_formula_sum   'Yb8 H60 C84 S12 N4 O56'
_cell_volume   3240.03538083
_cell_formula_units_Z   4
loop_
 _symmetry_equiv_pos_site_id
 _symmetry_equiv_pos_as_xyz
  1  'x, y, z'
loop_
 _atom_site_type_symbol
 _atom_site_label
 _atom_site_symmetry_multiplicity
 _atom_site_fract_x
 _atom_site_fract_y
 _atom_site_fract_z
 _atom_site_occupancy
 _atom_site_pbe_bader_charge
 _atom_site_pbe_bader_spin_density
 _atom_site_pbe_cm5_charge
 _atom_site_pbe_ddec_charge
 _atom_site_pbe_ddec_spin_density
 _atom_site_pbe_ddec_sum_bond_order
 _atom_site_pbe_magmom
Yb  Yb0  1  0.39248763  0.08048571  0.98879738  1  2.196997  0  1.61527  2.114632  0  2.171346  0
Yb  Yb1  1  0.89248490  0.41951346  0.51120018  1  2.197107  0  1.615309  2.114714  0  2.171238  0
Yb  Yb2  1  0.60751389  0.91950677  0.01119964  1  2.197104  0  1.615297  2.114764  0  2.171107  0
Yb  Yb3  1  0.10751925  0.58049360  0.48879325  1  2.19716  0  1.615299  2.114677  0  2.171192  0
Yb  Yb4  1  0.94125636  0.10922485  0.48143974  1  2.2117  0  1.618507  2.150519  0  2.152734  0
Yb  Yb5  1  0.44125826  0.39076513  0.01855469  1  2.211739  0  1.61852  2.150364  0  2.153039  0
Yb  Yb6  1  0.05874077  0.89077855  0.51855677  1  2.21172  0  1.618442  2.150469  0  2.152518  0
Yb  Yb7  1  0.55873887  0.60922007  0.98144268  1  2.211796  0  1.618389  2.150453  0  2.152757  0
H  H8  1  0.48771629  0.92610915  0.21427816  1  0.137591  0  0.101688  0.116953  0  1.07069  0
H  H9  1  0.98773335  0.57388780  0.28572056  1  0.137623  0  0.101651  0.116917  0  1.070789  0
H  H10  1  0.51227996  0.07388511  0.78572574  1  0.13754  0  0.101661  0.116885  0  1.07079  0
H  H11  1  0.01227168  0.42611563  0.71427073  1  0.137812  0  0.101657  0.116872  0  1.070857  0
H  H12  1  0.38859826  0.91607138  0.35173863  1  0.107593  0  0.116893  0.133443  0  0.973588  0
H  H13  1  0.88861369  0.58392722  0.14825100  1  0.107397  0  0.116911  0.133404  0  0.973695  0
H  H14  1  0.61139448  0.08392597  0.64825681  1  0.107612  0  0.116882  0.133401  0  0.973495  0
H  H15  1  0.11138871  0.41606592  0.85173692  1  0.107985  0  0.116886  0.133391  0  0.973706  0
H  H16  1  0.14737819  0.24307990  0.66265807  1  0.09351  0  0.108953  0.122784  0  1.000784  0
H  H17  1  0.64737681  0.25691140  0.83734604  1  0.093321  0  0.108938  0.1228  0  1.000935  0
H  H18  1  0.85263211  0.75694036  0.33735810  1  0.093432  0  0.108954  0.122841  0  1.000786  0
H  H19  1  0.35262383  0.74307319  0.16265233  1  0.093666  0  0.108973  0.122852  0  1.000836  0
H  H20  1  0.26521619  0.31293280  0.79706607  1  0.124391  0  0.107482  0.124814  0  1.030782  0
H  H21  1  0.76521646  0.18706789  0.70293217  1  0.124233  0  0.107465  0.12478  0  1.030926  0
H  H22  1  0.73480201  0.68707232  0.20294600  1  0.123714  0  0.107505  0.12482  0  1.030742  0
H  H23  1  0.23478945  0.81292947  0.29705921  1  0.12368  0  0.107513  0.124854  0  1.030729  0
H  H24  1  0.07572546  0.26168337  0.46661176  1  0.663164  0  0.304608  0.410385  0  0.917789  0
H  H25  1  0.57572228  0.23831424  0.03338847  1  0.663107  0  0.304606  0.410335  0  0.917859  0
H  H26  1  0.92428221  0.73832304  0.53338904  1  0.663188  0  0.304605  0.410358  0  0.917831  0
H  H27  1  0.42428011  0.76167703  0.96660706  1  0.663177  0  0.304577  0.410337  0  0.917854  0
H  H28  1  0.14832688  0.20938353  0.51366850  1  0.616525  0  0.324076  0.407401  0  0.887489  0
H  H29  1  0.64833260  0.29061264  0.98633287  1  0.616525  0  0.324076  0.40739  0  0.887494  0
H  H30  1  0.85167200  0.79061561  0.48632975  1  0.616334  0  0.324043  0.407416  0  0.887464  0
H  H31  1  0.35166891  0.70938588  0.01366870  1  0.616509  0  0.324053  0.407433  0  0.887443  0
H  H32  1  0.60118701  0.28767306  0.17147595  1  0.126778  0  0.113113  0.135109  0  1.005457  0
H  H33  1  0.10119363  0.21232279  0.32852503  1  0.126834  0  0.113076  0.135109  0  1.005446  0
H  H34  1  0.39881275  0.71232064  0.82851909  1  0.126844  0  0.113096  0.135046  0  1.005544  0
H  H35  1  0.89879998  0.78767633  0.67147786  1  0.126719  0  0.1131  0.135039  0  1.005556  0
H  H36  1  0.69863061  0.34405531  0.31637924  1  0.118503  0  0.099913  0.115294  0  1.061873  0
H  H37  1  0.19864413  0.15594742  0.18362327  1  0.11837  0  0.099935  0.115361  0  1.061966  0
H  H38  1  0.30136827  0.65594145  0.68361198  1  0.118305  0  0.099868  0.115265  0  1.061949  0
H  H39  1  0.80136002  0.84405411  0.81638201  1  0.118335  0  0.099901  0.115293  0  1.061932  0
H  H40  1  0.91969731  0.10635512  0.05747500  1  0.076352  0  0.109551  0.12011  0  1.004569  0
H  H41  1  0.41969902  0.39363965  0.44252067  1  0.076179  0  0.109494  0.120026  0  1.004663  0
H  H42  1  0.08030245  0.89364763  0.94252771  1  0.076231  0  0.109537  0.120145  0  1.004622  0
H  H43  1  0.58030162  0.60636553  0.55748154  1  0.076226  0  0.109531  0.120055  0  1.004581  0
H  H44  1  0.83885625  0.07526791  0.96584387  1  0.092674  0  0.104344  0.130879  0  1.018946  0
H  H45  1  0.33885309  0.42472635  0.53414178  1  0.093007  0  0.104327  0.130882  0  1.018903  0
H  H46  1  0.16114526  0.92473667  0.03415701  1  0.092731  0  0.104347  0.130912  0  1.018784  0
H  H47  1  0.66114404  0.57527521  0.46585713  1  0.092907  0  0.104302  0.13078  0  1.018783  0
H  H48  1  0.85489827  0.18082006  0.01572162  1  0.074939  0  0.104186  0.11914  0  0.979205  0
H  H49  1  0.35489822  0.31917396  0.48427369  1  0.074861  0  0.104155  0.119075  0  0.979177  0
H  H50  1  0.14510500  0.81918210  0.98427919  1  0.075011  0  0.104129  0.119075  0  0.979203  0
H  H51  1  0.64510330  0.68083304  0.51572901  1  0.074735  0  0.104144  0.118998  0  0.979198  0
H  H52  1  0.08496081  0.14746464  0.85531962  1  0.104516  0  0.107586  0.127551  0  1.033195  0
H  H53  1  0.58494810  0.35254169  0.64468434  1  0.104669  0  0.107649  0.127649  0  1.033246  0
H  H54  1  0.91504246  0.85253449  0.14468153  1  0.104577  0  0.107604  0.127589  0  1.033186  0
H  H55  1  0.41505254  0.64746351  0.35531671  1  0.104689  0  0.107624  0.127578  0  1.033194  0
H  H56  1  0.95468390  0.20536265  0.89024981  1  0.061284  0  0.105779  0.117579  0  0.973865  0
H  H57  1  0.45468076  0.29464571  0.60975563  1  0.060992  0  0.105822  0.117644  0  0.97391  0
H  H58  1  0.04531235  0.79463951  0.10975158  1  0.060957  0  0.105805  0.11761  0  0.973954  0
H  H59  1  0.54532603  0.70536067  0.39024923  1  0.060988  0  0.105805  0.117662  0  0.973928  0
H  H60  1  0.94310389  0.10076549  0.83739606  1  0.064882  0  0.094036  0.099809  0  1.047016  0
H  H61  1  0.44310401  0.39923562  0.66260041  1  0.064931  0  0.094066  0.099853  0  1.047185  0
H  H62  1  0.05689587  0.89923667  0.16260533  1  0.064905  0  0.094066  0.099847  0  1.04709  0
H  H63  1  0.55690365  0.60076230  0.33739984  1  0.064906  0  0.09402  0.099749  0  1.047123  0
H  H64  1  0.10506920  0.09065422  0.04200337  1  0.111762  0  0.130785  0.06075  0  1.002166  0
H  H65  1  0.60506548  0.40934164  0.45799704  1  0.111902  0  0.130736  0.060757  0  1.002021  0
H  H66  1  0.89493056  0.90934672  0.95799943  1  0.111875  0  0.130747  0.06079  0  1.002072  0
H  H67  1  0.39493252  0.59066716  0.54200789  1  0.112112  0  0.130742  0.060778  0  1.002062  0
C  C68  1  0.35388342  0.01086818  0.11762646  1  1.525782  0  0.204696  0.626357  0  4.20716  0
C  C69  1  0.85389181  0.48913431  0.38237230  1  1.525774  0  0.204735  0.626433  0  4.20737  0
C  C70  1  0.64611020  0.98913034  0.88237395  1  1.525753  0  0.204721  0.626401  0  4.207129  0
C  C71  1  0.14611585  0.51087334  0.61762361  1  1.526141  0  0.204615  0.626373  0  4.207393  0
C  C72  1  0.33189536  0.99062085  0.19380482  1  -0.184387  0  -0.024749  -0.129034  0  3.956199  0
C  C73  1  0.83191497  0.50938242  0.30619232  1  -0.184251  0  -0.024722  -0.12903  0  3.956222  0
C  C74  1  0.66809211  0.00938369  0.80620302  1  -0.184338  0  -0.024772  -0.129027  0  3.955881  0
C  C75  1  0.16809796  0.49062038  0.69380228  1  -0.184571  0  -0.024708  -0.129001  0  3.95574  0
C  C76  1  0.40242811  0.95066833  0.23654325  1  -0.033902  0  -0.090309  -0.091762  0  3.966219  0
C  C77  1  0.90244233  0.54933755  0.26345186  1  -0.034385  0  -0.09037  -0.091916  0  3.966201  0
C  C78  1  0.59756375  0.04933627  0.76345647  1  -0.034025  0  -0.090316  -0.09179  0  3.966247  0
C  C79  1  0.09756621  0.45065620  0.73653680  1  -0.034468  0  -0.09026  -0.091675  0  3.966149  0
C  C80  1  0.34947589  0.94506183  0.30890413  1  0.029552  0  -0.090841  -0.110535  0  3.985978  0
C  C81  1  0.84948971  0.55493970  0.19108794  1  0.029682  0  -0.090754  -0.110331  0  3.985976  0
C  C82  1  0.65052124  0.05494272  0.69110256  1  0.029694  0  -0.090768  -0.110347  0  3.985831  0
C  C83  1  0.15051619  0.44504920  0.80889941  1  0.02936  0  -0.090774  -0.110381  0  3.986218  0
C  C84  1  0.23955319  0.98138316  0.32087961  1  -0.224748  0  -0.01489  -0.113466  0  3.930872  0
C  C85  1  0.73956420  0.51862414  0.17911955  1  -0.224913  0  -0.014838  -0.11325  0  3.930478  0
C  C86  1  0.76045096  0.01861716  0.67912476  1  -0.225034  0  -0.014907  -0.113554  0  3.930633  0
C  C87  1  0.26043644  0.48136834  0.82087805  1  -0.224506  0  -0.014925  -0.113451  0  3.930941  0
C  C88  1  0.15489380  0.98753773  0.38785475  1  1.614984  0  0.225503  0.662329  0  4.197803  0
C  C89  1  0.65489211  0.51246756  0.11214482  1  1.615405  0  0.225537  0.66226  0  4.197878  0
C  C90  1  0.84511562  0.01246137  0.61215219  1  1.615225  0  0.225587  0.66242  0  4.197583  0
C  C91  1  0.34510238  0.48752310  0.88785230  1  1.616361  0  0.225608  0.662402  0  4.197615  0
C  C92  1  0.14842000  0.06753044  0.61052040  1  1.625833  0  0.223436  0.669065  0  4.196719  0
C  C93  1  0.64841158  0.43246206  0.88948694  1  1.626253  0  0.223479  0.669138  0  4.196271  0
C  C94  1  0.85156746  0.93248198  0.38948899  1  1.62622  0  0.223702  0.669526  0  4.196059  0
C  C95  1  0.35157765  0.56752128  0.11051806  1  1.625965  0  0.223549  0.668948  0  4.196042  0
C  C96  1  0.20500432  0.12687352  0.67856540  1  -0.306055  0  -0.02189  -0.127148  0  3.953032  0
C  C97  1  0.70499268  0.37312217  0.82143482  1  -0.305797  0  -0.021851  -0.126935  0  3.952751  0
C  C98  1  0.79499895  0.87313894  0.32143589  1  -0.30682  0  -0.021724  -0.126897  0  3.953084  0
C  C99  1  0.29499040  0.62686664  0.17856643  1  -0.306356  0  -0.0218  -0.126851  0  3.952599  0
C  C100  1  0.19781944  0.21091477  0.69817109  1  0.088875  0  -0.099853  -0.117413  0  3.999502  0
C  C101  1  0.69781357  0.28907605  0.80182953  1  0.088511  0  -0.099807  -0.117556  0  3.999438  0
C  C102  1  0.80219524  0.78910009  0.30183606  1  0.088994  0  -0.100077  -0.117798  0  3.999679  0
C  C103  1  0.30218180  0.71090917  0.19816379  1  0.088306  0  -0.099958  -0.117708  0  3.999714  0
C  C104  1  0.25884402  0.24811897  0.76961305  1  -0.044105  0  -0.09521  -0.100215  0  3.98522  0
C  C105  1  0.75884201  0.25187806  0.73038708  1  -0.043856  0  -0.095221  -0.100167  0  3.985354  0
C  C106  1  0.74117067  0.75188984  0.23039246  1  -0.042413  0  -0.095129  -0.100088  0  3.984991  0
C  C107  1  0.24115599  0.74811205  0.26960001  1  -0.042843  0  -0.09524  -0.100217  0  3.985215  0
C  C108  1  0.31074016  0.19208293  0.80399527  1  -0.20168  0  -0.023313  -0.143037  0  3.956578  0
C  C109  1  0.81073901  0.30791361  0.69600486  1  -0.201649  0  -0.023288  -0.142972  0  3.956306  0
C  C110  1  0.68927102  0.80792046  0.19600355  1  -0.203056  0  -0.023378  -0.143141  0  3.9566  0
C  C111  1  0.18925636  0.69208609  0.30400051  1  -0.201546  0  -0.023245  -0.14299  0  3.956308  0
C  C112  1  0.37603993  0.20921870  0.88079028  1  1.623801  0  0.233611  0.684227  0  4.178396  0
C  C113  1  0.87604268  0.29077256  0.61920452  1  1.623426  0  0.233695  0.684454  0  4.178356  0
C  C114  1  0.62396510  0.79076953  0.11920617  1  1.623715  0  0.233656  0.684374  0  4.178656  0
C  C115  1  0.12396235  0.70922840  0.38079423  1  1.623421  0  0.233697  0.684438  0  4.178533  0
C  C116  1  0.63829018  0.11520390  0.09359193  1  1.587031  0  0.222088  0.655492  0  4.185971  0
C  C117  1  0.13829955  0.38479443  0.40641329  1  1.587017  0  0.222081  0.655549  0  4.185945  0
C  C118  1  0.36169553  0.88478854  0.90641321  1  1.587468  0  0.222168  0.655816  0  4.185878  0
C  C119  1  0.86170285  0.61520590  0.59358876  1  1.587014  0  0.22212  0.655621  0  4.185709  0
C  C120  1  0.68001092  0.17070930  0.16900330  1  -0.206865  0  -0.027366  -0.14405  0  3.974293  0
C  C121  1  0.18001880  0.32929396  0.33100395  1  -0.207369  0  -0.027329  -0.143813  0  3.973769  0
C  C122  1  0.31997480  0.82928373  0.83100259  1  -0.207227  0  -0.027356  -0.143987  0  3.973583  0
C  C123  1  0.81998096  0.67071362  0.66900413  1  -0.207193  0  -0.027439  -0.144081  0  3.973888  0
C  C124  1  0.65429400  0.25213449  0.20199953  1  -0.021945  0  -0.094557  -0.100861  0  3.976558  0
C  C125  1  0.15430759  0.24786273  0.29799498  1  -0.021747  0  -0.094509  -0.100999  0  3.976175  0
C  C126  1  0.34570839  0.74785925  0.79799029  1  -0.021436  0  -0.094528  -0.100853  0  3.976331  0
C  C127  1  0.84571061  0.75213578  0.70200774  1  -0.021765  0  -0.094492  -0.100668  0  3.976717  0
C  C128  1  0.70573030  0.28233467  0.27843578  1  0.000733  0  -0.100855  -0.115359  0  4.002601  0
C  C129  1  0.20573633  0.21765965  0.22155692  1  0.000975  0  -0.100957  -0.115467  0  4.002916  0
C  C130  1  0.29426770  0.71765542  0.72155595  1  0.000477  0  -0.100824  -0.115294  0  4.002738  0
C  C131  1  0.79425904  0.78233712  0.77843372  1  0.001147  0  -0.10087  -0.115465  0  4.002653  0
C  C132  1  0.76869156  0.22367766  0.30272717  1  -0.23673  0  -0.021484  -0.13095  0  3.958845  0
C  C133  1  0.26868183  0.27632463  0.19727365  1  -0.236802  0  -0.021459  -0.130971  0  3.958876  0
C  C134  1  0.23132313  0.77632391  0.69727058  1  -0.236891  0  -0.021416  -0.13092  0  3.959037  0
C  C135  1  0.73130564  0.72367084  0.80273057  1  -0.237189  0  -0.021504  -0.13104  0  3.958626  0
C  C136  1  0.82965114  0.23278259  0.38021930  1  1.636547  0  0.237009  0.692519  0  4.170997  0
C  C137  1  0.32965937  0.26722528  0.11978492  1  1.636471  0  0.237207  0.692724  0  4.1704  0
C  C138  1  0.17034599  0.76722807  0.61977975  1  1.636315  0  0.237033  0.692543  0  4.170868  0
C  C139  1  0.67034478  0.73277142  0.88021673  1  1.636592  0  0.237217  0.692946  0  4.171079  0
C  C140  1  0.89884793  0.12149270  0.00105526  1  0.2383  0  -0.131417  -0.279686  0  3.909649  0
C  C141  1  0.39885869  0.37850447  0.49893695  1  0.237991  0  -0.131361  -0.279624  0  3.909782  0
C  C142  1  0.10114480  0.87850765  0.99894332  1  0.238202  0  -0.131372  -0.279732  0  3.909585  0
C  C143  1  0.60113931  0.62150314  0.50106534  1  0.238151  0  -0.131355  -0.279435  0  3.909652  0
C  C144  1  0.99687134  0.14575392  0.88019369  1  0.240189  0  -0.13057  -0.253457  0  3.873727  0
C  C145  1  0.49686317  0.35425335  0.61980749  1  0.240357  0  -0.130728  -0.253672  0  3.874141  0
C  C146  1  0.00313457  0.85424885  0.11980729  1  0.240509  0  -0.13067  -0.253552  0  3.874009  0
C  C147  1  0.50314538  0.64575791  0.38019405  1  0.240264  0  -0.130616  -0.253445  0  3.873648  0
C  C148  1  0.10954733  0.10539289  0.98354669  1  1.381358  0  0.186994  0.331134  0  4.064055  0
C  C149  1  0.60955333  0.39460378  0.51645820  1  1.381388  0  0.187033  0.331059  0  4.064286  0
C  C150  1  0.89045156  0.89460621  0.01645793  1  1.381446  0  0.186993  0.331086  0  4.064086  0
C  C151  1  0.39044994  0.60540020  0.48354368  1  1.381127  0  0.187014  0.331079  0  4.064447  0
S  S152  1  0.20179716  0.02230158  0.24367606  1  0.280148  0  0.125338  0.188316  0  2.94827  0
S  S153  1  0.70180480  0.47770963  0.25632875  1  0.280724  0  0.12533  0.188213  0  2.948077  0
S  S154  1  0.79819382  0.97769994  0.75633096  1  0.280264  0  0.125437  0.188403  0  2.948117  0
S  S155  1  0.29819584  0.52230277  0.74368296  1  0.280211  0  0.125346  0.188214  0  2.948038  0
S  S156  1  0.28527910  0.09408419  0.74817126  1  0.286052  0  0.13169  0.193108  0  2.9424  0
S  S157  1  0.78527155  0.40591346  0.75183724  1  0.28638  0  0.131599  0.19292  0  2.942425  0
S  S158  1  0.71472330  0.90591796  0.25183129  1  0.286855  0  0.131663  0.193053  0  2.942618  0
S  S159  1  0.21471679  0.59408560  0.24817551  1  0.286326  0  0.131637  0.192991  0  2.942436  0
S  S160  1  0.76528088  0.13151184  0.23226496  1  0.305207  0  0.115273  0.188908  0  2.882122  0
S  S161  1  0.26526921  0.36848983  0.26773742  1  0.305406  0  0.115264  0.188842  0  2.882246  0
S  S162  1  0.23471537  0.86848062  0.76773496  1  0.305376  0  0.115187  0.188782  0  2.882475  0
S  S163  1  0.73471826  0.63150990  0.73226563  1  0.30527  0  0.115249  0.188903  0  2.882163  0
N  N164  1  0.00638809  0.12412779  0.95619750  1  -1.212771  0  -0.275839  0.033706  0  3.705568  0
N  N165  1  0.50638365  0.37587657  0.54380051  1  -1.212654  0  -0.27586  0.033696  0  3.705678  0
N  N166  1  0.99360991  0.87587558  0.04380364  1  -1.212755  0  -0.275771  0.033738  0  3.705828  0
N  N167  1  0.49362050  0.62413285  0.45620343  1  -1.212559  0  -0.275872  0.033584  0  3.70573  0
O  O168  1  0.27248749  0.04482869  0.08781821  1  -1.179636  0  -0.37061  -0.636914  0  2.304574  0
O  O169  1  0.77248716  0.45517729  0.41217607  1  -1.179464  0  -0.370616  -0.636894  0  2.304534  0
O  O170  1  0.72751227  0.95516924  0.91218030  1  -1.179576  0  -0.370595  -0.636913  0  2.304461  0
O  O171  1  0.22751874  0.54483339  0.58782066  1  -1.179784  0  -0.370566  -0.636869  0  2.304587  0
O  O172  1  0.45452758  0.99830507  0.08207120  1  -1.218108  0  -0.433046  -0.746861  0  2.41696  0
O  O173  1  0.95453288  0.50169421  0.41793039  1  -1.2181  0  -0.433145  -0.746952  0  2.417076  0
O  O174  1  0.54546779  0.00168980  0.91793286  1  -1.218114  0  -0.433147  -0.746952  0  2.417037  0
O  O175  1  0.04548269  0.49831344  0.58206436  1  -1.218284  0  -0.433019  -0.746861  0  2.417077  0
O  O176  1  0.07035563  0.03715115  0.39180777  1  -1.187961  0  -0.414868  -0.685703  0  2.334851  0
O  O177  1  0.57036061  0.46285075  0.10818432  1  -1.188347  0  -0.414855  -0.685673  0  2.335136  0
O  O178  1  0.92964765  0.96285707  0.60819410  1  -1.188513  0  -0.414871  -0.68564  0  2.335116  0
O  O179  1  0.42964442  0.53713388  0.89180710  1  -1.189084  0  -0.414902  -0.685707  0  2.334765  0
O  O180  1  0.17135198  0.94254004  0.43456483  1  -1.177125  0  -0.396407  -0.664143  0  2.291072  0
O  O181  1  0.67135281  0.55746228  0.06543107  1  -1.177352  0  -0.396501  -0.664183  0  2.291114  0
O  O182  1  0.82864866  0.05746153  0.56543408  1  -1.176739  0  -0.39655  -0.664357  0  2.29062  0
O  O183  1  0.32863905  0.44252777  0.93456761  1  -1.177357  0  -0.396547  -0.664284  0  2.291003  0
O  O184  1  0.16755938  0.99293558  0.60215169  1  -1.156622  0  -0.390067  -0.645258  0  2.26658  0
O  O185  1  0.66754262  0.50706572  0.89784528  1  -1.15684  0  -0.390165  -0.645401  0  2.26627  0
O  O186  1  0.83243336  0.00708536  0.39785305  1  -1.157091  0  -0.390332  -0.645603  0  2.2664  0
O  O187  1  0.33245099  0.49292495  0.10215010  1  -1.156993  0  -0.390148  -0.645206  0  2.26675  0
O  O188  1  0.08192801  0.09646305  0.56525641  1  -1.224208  0  -0.433006  -0.729052  0  2.380739  0
O  O189  1  0.58191974  0.40353538  0.93474830  1  -1.224577  0  -0.433019  -0.729076  0  2.380906  0
O  O190  1  0.91806210  0.90354882  0.43474354  1  -1.2238  0  -0.433078  -0.729227  0  2.380536  0
O  O191  1  0.41807650  0.59646312  0.06525674  1  -1.224104  0  -0.433105  -0.72907  0  2.380165  0
O  O192  1  0.42401905  0.14878913  0.89930524  1  -1.205603  0  -0.438533  -0.704203  0  2.3342  0
O  O193  1  0.92401749  0.35119803  0.60068334  1  -1.205352  0  -0.438536  -0.704306  0  2.334264  0
O  O194  1  0.57597720  0.85119366  0.10068974  1  -1.205533  0  -0.43845  -0.704176  0  2.334256  0
O  O195  1  0.07597612  0.64880478  0.39931010  1  -1.205395  0  -0.438488  -0.704182  0  2.334374  0
O  O196  1  0.38079743  0.28173982  0.92288624  1  -1.204066  0  -0.404331  -0.671372  0  2.326012  0
O  O197  1  0.88079620  0.21825630  0.57710988  1  -1.203976  0  -0.404354  -0.671474  0  2.326099  0
O  O198  1  0.61921462  0.71825386  0.07711285  1  -1.204073  0  -0.404346  -0.671466  0  2.326186  0
O  O199  1  0.11920532  0.78174589  0.42288571  1  -1.204061  0  -0.404396  -0.671545  0  2.326009  0
O  O200  1  0.56546131  0.14176201  0.04958213  1  -1.198616  0  -0.385612  -0.670939  0  2.313466  0
O  O201  1  0.06545680  0.35823802  0.45041583  1  -1.198669  0  -0.385631  -0.671097  0  2.313457  0
O  O202  1  0.43454196  0.85823414  0.95041008  1  -1.198657  0  -0.385711  -0.671205  0  2.313456  0
O  O203  1  0.93454209  0.64176475  0.54958398  1  -1.198652  0  -0.385627  -0.67111  0  2.313417  0
O  O204  1  0.67572470  0.04275149  0.07753505  1  -1.189242  0  -0.409621  -0.670707  0  2.360944  0
O  O205  1  0.17572912  0.45724637  0.42246143  1  -1.189037  0  -0.409593  -0.670645  0  2.360742  0
O  O206  1  0.32426804  0.95723797  0.92245999  1  -1.189339  0  -0.40962  -0.670742  0  2.360926  0
O  O207  1  0.82427239  0.54275520  0.57753689  1  -1.188999  0  -0.409671  -0.67076  0  2.360979  0
O  O208  1  0.83994210  0.30292297  0.42719076  1  -1.202146  0  -0.418501  -0.674153  0  2.375834  0
O  O209  1  0.33996389  0.19707768  0.07280689  1  -1.202005  0  -0.418717  -0.674429  0  2.375273  0
O  O210  1  0.16003659  0.69708528  0.57280590  1  -1.201924  0  -0.418629  -0.674273  0  2.375602  0
O  O211  1  0.66004552  0.80291299  0.92718907  1  -1.201988  0  -0.418714  -0.674518  0  2.375749  0
O  O212  1  0.86704537  0.16787167  0.39454056  1  -1.197337  0  -0.436489  -0.683377  0  2.306595  0
O  O213  1  0.36705109  0.33212841  0.10546165  1  -1.197512  0  -0.436423  -0.683227  0  2.306903  0
O  O214  1  0.13295264  0.83213593  0.60546289  1  -1.1974  0  -0.436358  -0.683304  0  2.307088  0
O  O215  1  0.63294691  0.66786410  0.89453132  1  -1.197378  0  -0.43632  -0.683336  0  2.306915  0
O  O216  1  0.09003580  0.20587789  0.47172882  1  -1.262568  0  -0.624231  -0.842696  0  2.091872  0
O  O217  1  0.59003980  0.29412155  0.02827427  1  -1.262574  0  -0.624222  -0.842622  0  2.091934  0
O  O218  1  0.90996571  0.79412671  0.52826975  1  -1.262516  0  -0.624177  -0.842681  0  2.091965  0
O  O219  1  0.40996523  0.70587332  0.97172863  1  -1.262696  0  -0.624167  -0.842704  0  2.091933  0
O  O220  1  0.20525354  0.10399059  0.94726543  1  -1.171145  0  -0.373924  -0.549885  0  2.417187  0
O  O221  1  0.70525185  0.39600814  0.55273387  1  -1.171314  0  -0.373846  -0.549721  0  2.417588  0
O  O222  1  0.79474095  0.89600488  0.05273763  1  -1.171319  0  -0.373901  -0.549847  0  2.417064  0
O  O223  1  0.29475406  0.60399829  0.44726345  1  -1.171288  0  -0.37384  -0.549766  0  2.417553  0
