# generated using pymatgen
data_GdAgH6C12(NO2)4
_symmetry_space_group_name_H-M   'P 1'
_cell_length_a   8.05911474
_cell_length_b   10.08082245
_cell_length_c   18.50411869
_cell_angle_alpha   90.00004046
_cell_angle_beta   89.99991650
_cell_angle_gamma   95.66259357
_symmetry_Int_Tables_number   1
_chemical_formula_structural   GdAgH6C12(NO2)4
_chemical_formula_sum   'Gd4 Ag4 H24 C48 N16 O32'
_cell_volume   1495.98504640
_cell_formula_units_Z   4
loop_
 _symmetry_equiv_pos_site_id
 _symmetry_equiv_pos_as_xyz
  1  'x, y, z'
loop_
 _atom_site_type_symbol
 _atom_site_label
 _atom_site_symmetry_multiplicity
 _atom_site_fract_x
 _atom_site_fract_y
 _atom_site_fract_z
 _atom_site_occupancy
 _atom_site_hle17_bader_spin_density
 _atom_site_hle17_ddec_charge
 _atom_site_hle17_ddec_spin_density
 _atom_site_hle17_ddec_sum_bond_order
 _atom_site_hle17_magmom
 _atom_site_hse06_10hf_bader_spin_density
 _atom_site_hse06_10hf_ddec_charge
 _atom_site_hse06_10hf_ddec_spin_density
 _atom_site_hse06_10hf_ddec_sum_bond_order
 _atom_site_hse06_10hf_magmom
 _atom_site_hse06_bader_spin_density
 _atom_site_hse06_ddec_charge
 _atom_site_hse06_ddec_spin_density
 _atom_site_hse06_ddec_sum_bond_order
 _atom_site_hse06_magmom
 _atom_site_pbe_bader_spin_density
 _atom_site_pbe_cm5_charge
 _atom_site_pbe_ddec_charge
 _atom_site_pbe_ddec_spin_density
 _atom_site_pbe_ddec_sum_bond_order
 _atom_site_pbe_magmom
Gd  Gd0  1  0.25866548  0.14375537  0.10582449  1  0  2.070944  0  1.868729  0  0  1.948676  0  2.260443  0  0  2.008964  0  2.201091  0  0  1.424205  1.902879  0  2.306468  0
Gd  Gd1  1  0.24133333  0.85624347  0.60582413  1  0  2.07091  0  1.86879  0  0  1.948626  0  2.260526  0  0  2.008919  0  2.201168  0  0  1.42416  1.902835  0  2.306538  0
Gd  Gd2  1  0.74133567  0.85624472  0.89417653  1  0  2.07093  0  1.868724  0  0  1.948673  0  2.260418  0  0  2.008974  0  2.201044  0  0  1.424231  1.902891  0  2.306418  0
Gd  Gd3  1  0.75866510  0.14375463  0.39417635  1  0  2.070924  0  1.868691  0  0  1.948662  0  2.260366  0  0  2.008931  0  2.201046  0  0  1.424234  1.90287  0  2.306387  0
Ag  Ag4  1  0.60604893  0.65122420  0.07406452  1  0  0.611635  0  1.291066  0  0  0.476679  0  1.720065  0  0  0.506406  0  1.671216  0  0  0.484381  0.457513  0  1.753183  0
Ag  Ag5  1  0.89395150  0.34877381  0.57406441  1  0  0.611628  0  1.291103  0  0  0.476658  0  1.720093  0  0  0.506383  0  1.671244  0  0  0.484375  0.457489  0  1.753213  0
Ag  Ag6  1  0.39395210  0.34877489  0.92593434  1  0  0.611666  0  1.291077  0  0  0.476696  0  1.720084  0  0  0.506422  0  1.671235  0  0  0.484378  0.457529  0  1.753201  0
Ag  Ag7  1  0.10604941  0.65122428  0.42593391  1  0  0.611647  0  1.291079  0  0  0.476685  0  1.720074  0  0  0.506409  0  1.671226  0  0  0.484381  0.45752  0  1.753191  0
H  H8  1  0.61633763  0.35182051  0.08257500  1  0  0.114552  0  0.98341  0  0  0.116077  0  1.054883  0  0  0.120611  0  1.049663  0  0  0.125908  0.112632  0  1.058947  0
H  H9  1  0.88366142  0.64817652  0.58257609  1  0  0.114539  0  0.983414  0  0  0.116057  0  1.054909  0  0  0.120591  0  1.04969  0  0  0.125903  0.112611  0  1.058975  0
H  H10  1  0.38366352  0.64817959  0.91742440  1  0  0.114535  0  0.983421  0  0  0.116057  0  1.05489  0  0  0.12059  0  1.04967  0  0  0.125913  0.112614  0  1.058948  0
H  H11  1  0.11633849  0.35182357  0.41742494  1  0  0.114527  0  0.983421  0  0  0.116051  0  1.054897  0  0  0.120584  0  1.049679  0  0  0.125925  0.112608  0  1.058956  0
H  H12  1  0.81560825  0.17456401  0.09201280  1  0  0.097197  0  0.937673  0  0  0.104632  0  0.998934  0  0  0.106512  0  0.998879  0  0  0.127272  0.103101  0  0.999334  0
H  H13  1  0.68438977  0.82543502  0.59201300  1  0  0.097196  0  0.937677  0  0  0.104632  0  0.998946  0  0  0.106508  0  0.99889  0  0  0.127276  0.103101  0  0.999345  0
H  H14  1  0.18439166  0.82543608  0.90798660  1  0  0.097188  0  0.937708  0  0  0.104626  0  0.998962  0  0  0.106505  0  0.998907  0  0  0.12727  0.103094  0  0.999362  0
H  H15  1  0.31560890  0.17456507  0.40798748  1  0  0.097175  0  0.937695  0  0  0.10461  0  0.998965  0  0  0.106488  0  0.998909  0  0  0.127265  0.10308  0  0.999364  0
H  H16  1  0.01835594  0.64514918  0.08413706  1  0  0.11377  0  0.913882  0  0  0.121442  0  0.975209  0  0  0.12461  0  0.973164  0  0  0.128499  0.119134  0  0.976689  0
H  H17  1  0.48164282  0.35484863  0.58413635  1  0  0.113784  0  0.913831  0  0  0.121415  0  0.975208  0  0  0.124583  0  0.973164  0  0  0.128485  0.119118  0  0.976675  0
H  H18  1  0.98164533  0.35485191  0.91586234  1  0  0.113767  0  0.913938  0  0  0.121449  0  0.975243  0  0  0.124628  0  0.973185  0  0  0.128504  0.119123  0  0.976743  0
H  H19  1  0.51835685  0.64514946  0.41586251  1  0  0.1138  0  0.913877  0  0  0.121463  0  0.975203  0  0  0.124631  0  0.973159  0  0  0.128501  0.119144  0  0.976694  0
H  H20  1  0.80329623  0.79470964  0.35044674  1  0  0.11398  0  0.972368  0  0  0.115387  0  1.044142  0  0  0.119911  0  1.039739  0  0  0.123422  0.111798  0  1.047798  0
H  H21  1  0.69670368  0.20529166  0.85044508  1  0  0.114006  0  0.972329  0  0  0.115417  0  1.044112  0  0  0.119944  0  1.039703  0  0  0.123444  0.111827  0  1.047765  0
H  H22  1  0.19670492  0.20529045  0.64955212  1  0  0.113979  0  0.972393  0  0  0.115379  0  1.044178  0  0  0.119906  0  1.039772  0  0  0.123442  0.111792  0  1.047822  0
H  H23  1  0.30329499  0.79470843  0.14955433  1  0  0.114003  0  0.972353  0  0  0.115405  0  1.04414  0  0  0.119933  0  1.039731  0  0  0.123431  0.111816  0  1.047793  0
H  H24  1  0.76562068  0.63891580  0.24314683  1  0  0.095965  0  0.912466  0  0  0.104972  0  0.968682  0  0  0.108103  0  0.966915  0  0  0.125431  0.102642  0  0.970121  0
H  H25  1  0.73438058  0.36108340  0.74314574  1  0  0.095987  0  0.912443  0  0  0.104977  0  0.968693  0  0  0.108108  0  0.966925  0  0  0.125422  0.102658  0  0.970118  0
H  H26  1  0.23437935  0.36108529  0.75685204  1  0  0.095998  0  0.912394  0  0  0.10497  0  0.96866  0  0  0.108104  0  0.966891  0  0  0.125412  0.102656  0  0.970081  0
H  H27  1  0.26561549  0.63891569  0.25685312  1  0  0.095972  0  0.912409  0  0  0.104922  0  0.968707  0  0  0.108054  0  0.96694  0  0  0.12539  0.102598  0  0.970139  0
H  H28  1  0.61921215  0.94910973  0.11826987  1  0  0.089232  0  0.965288  0  0  0.095652  0  1.032989  0  0  0.098039  0  1.030589  0  0  0.125118  0.093658  0  1.035257  0
H  H29  1  0.88078963  0.05089033  0.61826857  1  0  0.089208  0  0.965284  0  0  0.095622  0  1.032988  0  0  0.098008  0  1.03059  0  0  0.125087  0.093628  0  1.035255  0
H  H30  1  0.38078416  0.05089135  0.88173007  1  0  0.089234  0  0.965275  0  0  0.095652  0  1.032991  0  0  0.098038  0  1.030593  0  0  0.12511  0.093658  0  1.035259  0
H  H31  1  0.11921425  0.94911176  0.38173246  1  0  0.089212  0  0.965293  0  0  0.09563  0  1.033001  0  0  0.098016  0  1.030602  0  0  0.125087  0.093635  0  1.035268  0
C  C32  1  0.75049135  0.37736246  0.08503388  1  0  0.106191  0  3.6035  0  0  0.075398  0  3.853526  0  0  0.081275  0  3.86684  0  0  0.066146  0.071236  0  3.845193  0
C  C33  1  0.74950657  0.62263557  0.58503396  1  0  0.106229  0  3.6035  0  0  0.075434  0  3.853535  0  0  0.081309  0  3.86685  0  0  0.066148  0.07127  0  3.845199  0
C  C34  1  0.24950968  0.62263664  0.91496553  1  0  0.106233  0  3.603509  0  0  0.075466  0  3.853515  0  0  0.081344  0  3.866826  0  0  0.066175  0.071303  0  3.845182  0
C  C35  1  0.25049198  0.37736352  0.41496599  1  0  0.106185  0  3.603485  0  0  0.075392  0  3.853524  0  0  0.081266  0  3.866839  0  0  0.066141  0.071229  0  3.84519  0
C  C36  1  0.86097826  0.27972045  0.09024509  1  0  0.125065  0  3.622618  0  0  0.100156  0  3.875016  0  0  0.101853  0  3.89171  0  0  0.073776  0.09872  0  3.864027  0
C  C37  1  0.63902088  0.72027759  0.59024474  1  0  0.125088  0  3.622547  0  0  0.100178  0  3.874953  0  0  0.101879  0  3.891646  0  0  0.073787  0.098742  0  3.863964  0
C  C38  1  0.13902289  0.72027965  0.90975377  1  0  0.125076  0  3.622604  0  0  0.100155  0  3.875009  0  0  0.101851  0  3.891704  0  0  0.073773  0.098719  0  3.864024  0
C  C39  1  0.36097767  0.27972150  0.40975520  1  0  0.125091  0  3.622633  0  0  0.100177  0  3.875039  0  0  0.101879  0  3.89173  0  0  0.073771  0.098741  0  3.864051  0
C  C40  1  0.08133092  0.44148602  0.09173801  1  0  0.051406  0  3.741784  0  0  0.064296  0  3.980982  0  0  0.059323  0  4.001994  0  0  0.119927  0.0671  0  3.967171  0
C  C41  1  0.41866769  0.55851080  0.59173796  1  0  0.051339  0  3.741937  0  0  0.06424  0  3.981095  0  0  0.059265  0  4.002109  0  0  0.119892  0.067082  0  3.967234  0
C  C42  1  0.91866899  0.55851406  0.90826247  1  0  0.051288  0  3.741904  0  0  0.064201  0  3.981088  0  0  0.059227  0  4.002106  0  0  0.119894  0.067046  0  3.967221  0
C  C43  1  0.58133186  0.44148630  0.40826198  1  0  0.051365  0  3.741884  0  0  0.064244  0  3.98106  0  0  0.059271  0  4.00207  0  0  0.119914  0.067073  0  3.967212  0
C  C44  1  0.97175731  0.53994703  0.08657079  1  0  0.076854  0  3.648264  0  0  0.036927  0  3.900937  0  0  0.04142  0  3.919333  0  0  0.059724  0.034127  0  3.888561  0
C  C45  1  0.52824184  0.46005100  0.58657041  1  0  0.076875  0  3.648345  0  0  0.036978  0  3.901003  0  0  0.041472  0  3.919402  0  0  0.059736  0.034157  0  3.888611  0
C  C46  1  0.02824259  0.46005306  0.91342915  1  0  0.076901  0  3.648319  0  0  0.036958  0  3.900996  0  0  0.041443  0  3.91939  0  0  0.059732  0.03416  0  3.888612  0
C  C47  1  0.47175919  0.53994810  0.41342953  1  0  0.076737  0  3.648348  0  0  0.036819  0  3.901024  0  0  0.041311  0  3.919419  0  0  0.059692  0.03402  0  3.888643  0
C  C48  1  0.26790764  0.47360353  0.09247401  1  0  0.628874  0  3.954512  0  0  0.574061  0  4.255831  0  0  0.609064  0  4.248257  0  0  0.211931  0.550465  0  4.260103  0
C  C49  1  0.23208960  0.52639230  0.59247353  1  0  0.62869  0  3.954652  0  0  0.573896  0  4.255938  0  0  0.6089  0  4.248365  0  0  0.211864  0.550288  0  4.260204  0
C  C50  1  0.73209214  0.52639557  0.90752701  1  0  0.628923  0  3.954582  0  0  0.574096  0  4.255915  0  0  0.609099  0  4.248342  0  0  0.211944  0.550488  0  4.260184  0
C  C51  1  0.76790970  0.47360281  0.40752587  1  0  0.628947  0  3.95444  0  0  0.574175  0  4.255704  0  0  0.609179  0  4.248128  0  0  0.212001  0.550572  0  4.259973  0
C  C52  1  0.66449003  0.99565856  0.23055027  1  0  0.052373  0  3.715983  0  0  0.058756  0  3.959692  0  0  0.055654  0  3.978139  0  0  0.126079  0.060453  0  3.947696  0
C  C53  1  0.83551286  0.00434361  0.73055006  1  0  0.052422  0  3.715941  0  0  0.058819  0  3.959612  0  0  0.055714  0  3.978063  0  0  0.126109  0.060516  0  3.947614  0
C  C54  1  0.33550739  0.00434153  0.76944967  1  0  0.052232  0  3.715948  0  0  0.05861  0  3.959725  0  0  0.055507  0  3.978174  0  0  0.126043  0.06031  0  3.947728  0
C  C55  1  0.16449361  0.99565948  0.26945042  1  0  0.052226  0  3.716144  0  0  0.058604  0  3.959904  0  0  0.055499  0  3.978354  0  0  0.12606  0.060303  0  3.947907  0
C  C56  1  0.76056993  0.82863898  0.29836430  1  0  0.089541  0  3.6501  0  0  0.062501  0  3.909353  0  0  0.064001  0  3.926358  0  0  0.059161  0.061141  0  3.898717  0
C  C57  1  0.73943287  0.17136426  0.79836368  1  0  0.089552  0  3.64979  0  0  0.062479  0  3.909098  0  0  0.063978  0  3.926102  0  0  0.059149  0.061114  0  3.898475  0
C  C58  1  0.23942998  0.17136111  0.70163456  1  0  0.089576  0  3.64999  0  0  0.062537  0  3.909226  0  0  0.064039  0  3.926226  0  0  0.059107  0.061171  0  3.898608  0
C  C59  1  0.26056977  0.82863783  0.20163627  1  0  0.089535  0  3.649978  0  0  0.06249  0  3.909232  0  0  0.063989  0  3.926234  0  0  0.059187  0.061125  0  3.898609  0
C  C60  1  0.74094247  0.74319365  0.23884511  1  0  0.077898  0  3.665876  0  0  0.048961  0  3.921497  0  0  0.052266  0  3.937885  0  0  0.057912  0.046628  0  3.910883  0
C  C61  1  0.75906115  0.25680454  0.73884234  1  0  0.077902  0  3.665792  0  0  0.048973  0  3.921459  0  0  0.052275  0  3.937849  0  0  0.057946  0.04663  0  3.910838  0
C  C62  1  0.25905743  0.25680643  0.76115375  1  0  0.077939  0  3.665999  0  0  0.049038  0  3.92158  0  0  0.052326  0  3.937996  0  0  0.058026  0.046693  0  3.910958  0
C  C63  1  0.24094012  0.74319655  0.26115706  1  0  0.077958  0  3.665928  0  0  0.049061  0  3.921584  0  0  0.052364  0  3.937977  0  0  0.05793  0.046725  0  3.910965  0
C  C64  1  0.65671992  0.91258531  0.17029827  1  0  0.100767  0  3.660816  0  0  0.064046  0  3.916445  0  0  0.068964  0  3.931967  0  0  0.065007  0.060576  0  3.906827  0
C  C65  1  0.84328181  0.08741580  0.67029755  1  0  0.100756  0  3.660862  0  0  0.06405  0  3.916461  0  0  0.068968  0  3.931987  0  0  0.065019  0.06058  0  3.90684  0
C  C66  1  0.34328011  0.08741578  0.82970168  1  0  0.100844  0  3.660657  0  0  0.064102  0  3.916314  0  0  0.06902  0  3.931837  0  0  0.065017  0.060632  0  3.906694  0
C  C67  1  0.15671958  0.91258628  0.32970240  1  0  0.100833  0  3.660805  0  0  0.064114  0  3.916453  0  0  0.069032  0  3.931978  0  0  0.065001  0.060644  0  3.906835  0
C  C68  1  0.60177496  0.13200963  0.22830684  1  0  0.682606  0  3.892264  0  0  0.634524  0  4.190555  0  0  0.669905  0  4.180256  0  0  0.232311  0.610524  0  4.196667  0
C  C69  1  0.89822546  0.86799254  0.72830693  1  0  0.682541  0  3.892261  0  0  0.634447  0  4.190562  0  0  0.669829  0  4.180268  0  0  0.232264  0.610447  0  4.19667  0
C  C70  1  0.39822631  0.86799146  0.77169796  1  0  0.682791  0  3.891961  0  0  0.634641  0  4.190386  0  0  0.670021  0  4.18009  0  0  0.232344  0.610636  0  4.196504  0
C  C71  1  0.10177345  0.13200954  0.27169788  1  0  0.682803  0  3.892098  0  0  0.634661  0  4.190497  0  0  0.670042  0  4.180201  0  0  0.232366  0.610659  0  4.196611  0
C  C72  1  0.45587888  0.93168998  0.01207572  1  0  0.540794  0  3.935474  0  0  0.49558  0  4.240302  0  0  0.525915  0  4.231267  0  0  0.207365  0.474889  0  4.245718  0
C  C73  1  0.04411314  0.06831173  0.51207356  1  0  0.540598  0  3.935685  0  0  0.495471  0  4.240341  0  0  0.525804  0  4.231307  0  0  0.207289  0.474778  0  4.245756  0
C  C74  1  0.54411991  0.06831110  0.98792476  1  0  0.540798  0  3.935507  0  0  0.495591  0  4.240313  0  0  0.525927  0  4.231277  0  0  0.207384  0.4749  0  4.245729  0
C  C75  1  0.95587732  0.93169233  0.48792476  1  0  0.540817  0  3.93558  0  0  0.495605  0  4.240338  0  0  0.525937  0  4.231305  0  0  0.20737  0.474914  0  4.245753  0
C  C76  1  0.95709724  0.96127846  0.03240456  1  0  0.563276  0  3.910176  0  0  0.522528  0  4.209637  0  0  0.552764  0  4.200936  0  0  0.209451  0.502186  0  4.21427  0
C  C77  1  0.54290469  0.03872052  0.53240131  1  0  0.563329  0  3.91024  0  0  0.522581  0  4.209705  0  0  0.552823  0  4.20099  0  0  0.209453  0.502237  0  4.214336  0
C  C78  1  0.04290503  0.03872064  0.96759809  1  0  0.563386  0  3.910087  0  0  0.522617  0  4.209573  0  0  0.552873  0  4.200852  0  0  0.209446  0.502274  0  4.214205  0
C  C79  1  0.45709894  0.96127958  0.46759486  1  0  0.56339  0  3.910124  0  0  0.522596  0  4.209651  0  0  0.55286  0  4.200905  0  0  0.20945  0.502253  0  4.214283  0
N  N80  1  0.02563486  0.31116690  0.09277237  1  0  -0.320073  0  3.23287  0  0  -0.278838  0  3.484865  0  0  -0.287856  0  3.504013  0  0  -0.327978  -0.272164  0  3.471975  0
N  N81  1  0.47436263  0.68883092  0.59277125  1  0  -0.320054  0  3.232818  0  0  -0.278828  0  3.484805  0  0  -0.287846  0  3.503954  0  0  -0.327959  -0.272167  0  3.4719  0
N  N82  1  0.97436517  0.68883418  0.90722865  1  0  -0.320005  0  3.23284  0  0  -0.278774  0  3.484824  0  0  -0.287796  0  3.503976  0  0  -0.327939  -0.272114  0  3.471921  0
N  N83  1  0.52563580  0.31116718  0.40722869  1  0  -0.320052  0  3.232897  0  0  -0.278823  0  3.484895  0  0  -0.28784  0  3.504043  0  0  -0.327953  -0.272157  0  3.471996  0
N  N84  1  0.80613695  0.50736655  0.08238258  1  0  -0.270004  0  3.275305  0  0  -0.199131  0  3.567123  0  0  -0.214372  0  3.581206  0  0  -0.315703  -0.189114  0  3.557639  0
N  N85  1  0.69386222  0.49263147  0.58238319  1  0  -0.270024  0  3.275347  0  0  -0.199148  0  3.567149  0  0  -0.214389  0  3.581232  0  0  -0.315692  -0.189131  0  3.557668  0
N  N86  1  0.19386420  0.49263354  0.91761628  1  0  -0.270048  0  3.275343  0  0  -0.199194  0  3.567185  0  0  -0.214436  0  3.58127  0  0  -0.315754  -0.189177  0  3.557697  0
N  N87  1  0.30613757  0.50736762  0.41761621  1  0  -0.269918  0  3.275243  0  0  -0.19905  0  3.567041  0  0  -0.214288  0  3.581124  0  0  -0.315706  -0.189033  0  3.557554  0
N  N88  1  0.72357749  0.95525473  0.29385291  1  0  -0.317544  0  3.218343  0  0  -0.274809  0  3.470926  0  0  -0.284175  0  3.489825  0  0  -0.330501  -0.268127  0  3.458537  0
N  N89  1  0.77642395  0.04474751  0.79385275  1  0  -0.31755  0  3.218138  0  0  -0.274809  0  3.470732  0  0  -0.284179  0  3.489633  0  0  -0.33052  -0.268128  0  3.45834  0
N  N90  1  0.27642229  0.04474437  0.70614649  1  0  -0.317506  0  3.218181  0  0  -0.27476  0  3.470765  0  0  -0.284126  0  3.489661  0  0  -0.330489  -0.268079  0  3.458372  0
N  N91  1  0.22358128  0.95525558  0.20614827  1  0  -0.317453  0  3.218282  0  0  -0.274693  0  3.470853  0  0  -0.284059  0  3.489754  0  0  -0.330459  -0.268011  0  3.458462  0
N  N92  1  0.69282307  0.78614745  0.17428221  1  0  -0.250628  0  3.23772  0  0  -0.190765  0  3.529109  0  0  -0.202044  0  3.539889  0  0  -0.309038  -0.183446  0  3.522313  0
N  N93  1  0.80717852  0.21385266  0.67428048  1  0  -0.25066  0  3.237838  0  0  -0.190788  0  3.529212  0  0  -0.202067  0  3.539992  0  0  -0.309057  -0.183469  0  3.522417  0
N  N94  1  0.30717459  0.21385463  0.82571665  1  0  -0.250765  0  3.237869  0  0  -0.190872  0  3.529234  0  0  -0.202149  0  3.540011  0  0  -0.30909  -0.183553  0  3.522442  0
N  N95  1  0.19282163  0.78614942  0.32571893  1  0  -0.250745  0  3.237869  0  0  -0.190874  0  3.529251  0  0  -0.202153  0  3.54003  0  0  -0.309053  -0.183555  0  3.522457  0
O  O96  1  0.35336386  0.37359413  0.09149094  1  0  -0.697087  0  2.087684  0  0  -0.649212  0  2.35382  0  0  -0.675116  0  2.338381  0  0  -0.378777  -0.630618  0  2.363824  0
O  O97  1  0.14663500  0.62640468  0.59149109  1  0  -0.697015  0  2.087701  0  0  -0.649136  0  2.353812  0  0  -0.675042  0  2.338374  0  0  -0.378781  -0.630542  0  2.363815  0
O  O98  1  0.64663605  0.62640596  0.90850954  1  0  -0.697033  0  2.087697  0  0  -0.649164  0  2.35383  0  0  -0.67507  0  2.338391  0  0  -0.378744  -0.630574  0  2.363839  0
O  O99  1  0.85336479  0.37359441  0.40850777  1  0  -0.697045  0  2.087637  0  0  -0.649203  0  2.353745  0  0  -0.675105  0  2.338307  0  0  -0.378796  -0.630617  0  2.363767  0
O  O100  1  0.32349382  0.59492976  0.09200926  1  0  -0.588765  0  2.052864  0  0  -0.527341  0  2.322517  0  0  -0.555501  0  2.3102  0  0  -0.308065  -0.507538  0  2.330222  0
O  O101  1  0.17650367  0.40506806  0.59200768  1  0  -0.588651  0  2.052924  0  0  -0.527234  0  2.32255  0  0  -0.555395  0  2.310234  0  0  -0.307997  -0.507434  0  2.33026  0
O  O102  1  0.67650473  0.40506933  0.90798961  1  0  -0.588847  0  2.052896  0  0  -0.527409  0  2.322563  0  0  -0.55557  0  2.310248  0  0  -0.30811  -0.507606  0  2.33027  0
O  O103  1  0.82349724  0.59493004  0.40799010  1  0  -0.58882  0  2.052848  0  0  -0.527398  0  2.322495  0  0  -0.555558  0  2.310179  0  0  -0.308089  -0.507595  0  2.330203  0
O  O104  1  0.64425916  0.20919147  0.28043740  1  0  -0.661518  0  1.995746  0  0  -0.622184  0  2.228437  0  0  -0.647216  0  2.217866  0  0  -0.366321  -0.604306  0  2.235155  0
O  O105  1  0.85573861  0.79081075  0.78043694  1  0  -0.661529  0  1.995636  0  0  -0.622196  0  2.22834  0  0  -0.647233  0  2.217769  0  0  -0.366333  -0.60432  0  2.235057  0
O  O106  1  0.35574187  0.79080763  0.71956362  1  0  -0.66166  0  1.995448  0  0  -0.622295  0  2.22818  0  0  -0.647331  0  2.217609  0  0  -0.366378  -0.604415  0  2.234899  0
O  O107  1  0.14425794  0.20919233  0.21956354  1  0  -0.66166  0  1.995472  0  0  -0.622307  0  2.228199  0  0  -0.647342  0  2.217627  0  0  -0.366385  -0.604427  0  2.234918  0
O  O108  1  0.51016755  0.15669739  0.17522302  1  0  -0.705387  0  2.053533  0  0  -0.662538  0  2.3107  0  0  -0.691058  0  2.301163  0  0  -0.37741  -0.641904  0  2.316782  0
O  O109  1  0.98983577  0.84330672  0.67522357  1  0  -0.705315  0  2.053551  0  0  -0.662471  0  2.310737  0  0  -0.690987  0  2.301187  0  0  -0.377376  -0.641839  0  2.316815  0
O  O110  1  0.48983112  0.84330270  0.82477855  1  0  -0.705424  0  2.053598  0  0  -0.662529  0  2.310736  0  0  -0.691054  0  2.301209  0  0  -0.377403  -0.641899  0  2.31682  0
O  O111  1  0.01016959  0.15669737  0.32477799  1  0  -0.705389  0  2.053644  0  0  -0.662516  0  2.310823  0  0  -0.691028  0  2.301282  0  0  -0.377401  -0.641884  0  2.316907  0
O  O112  1  0.51167161  0.82893017  0.98553680  1  0  -0.634492  0  2.144549  0  0  -0.576431  0  2.406248  0  0  -0.602184  0  2.395937  0  0  -0.344827  -0.558413  0  2.412878  0
O  O113  1  0.98832999  0.17106828  0.48553649  1  0  -0.634448  0  2.144847  0  0  -0.576332  0  2.406346  0  0  -0.602071  0  2.396028  0  0  -0.344806  -0.558313  0  2.412978  0
O  O114  1  0.48832818  0.17106892  0.01446368  1  0  -0.634506  0  2.144615  0  0  -0.576417  0  2.406277  0  0  -0.602168  0  2.395965  0  0  -0.344827  -0.558398  0  2.412908  0
O  O115  1  0.01166968  0.82892982  0.51446508  1  0  -0.63452  0  2.144571  0  0  -0.57641  0  2.406157  0  0  -0.602158  0  2.395843  0  0  -0.344815  -0.55839  0  2.412787  0
O  O116  1  0.33727472  0.93445100  0.05666313  1  0  -0.642602  0  2.100649  0  0  -0.602633  0  2.352967  0  0  -0.627532  0  2.34533  0  0  -0.358043  -0.584873  0  2.357797  0
O  O117  1  0.16272809  0.06554879  0.55666360  1  0  -0.642539  0  2.100471  0  0  -0.602617  0  2.352748  0  0  -0.627522  0  2.345117  0  0  -0.35801  -0.584856  0  2.357577  0
O  O118  1  0.66272507  0.06554810  0.94333681  1  0  -0.64261  0  2.100645  0  0  -0.60265  0  2.35296  0  0  -0.627552  0  2.345322  0  0  -0.358067  -0.58489  0  2.357789  0
O  O119  1  0.83727554  0.93445131  0.44333851  1  0  -0.642571  0  2.100663  0  0  -0.602642  0  2.353012  0  0  -0.627537  0  2.345378  0  0  -0.358055  -0.584885  0  2.357845  0
O  O120  1  0.99988930  0.00181396  0.09513688  1  0  -0.64795  0  2.067306  0  0  -0.611362  0  2.311638  0  0  -0.636413  0  2.305901  0  0  -0.370484  -0.593388  0  2.315057  0
O  O121  1  0.50011095  0.99818308  0.59513564  1  0  -0.647927  0  2.067156  0  0  -0.61134  0  2.31149  0  0  -0.636386  0  2.30573  0  0  -0.37043  -0.593366  0  2.314906  0
O  O122  1  0.00011049  0.99818513  0.90486577  1  0  -0.647959  0  2.067214  0  0  -0.611366  0  2.311551  0  0  -0.6364  0  2.305754  0  0  -0.370426  -0.593394  0  2.314968  0
O  O123  1  0.49988996  0.00181502  0.40486376  1  0  -0.647959  0  2.0673  0  0  -0.611369  0  2.311676  0  0  -0.63642  0  2.305914  0  0  -0.370481  -0.593397  0  2.315094  0
O  O124  1  0.84990589  0.86508420  0.01692532  1  0  -0.666871  0  2.117684  0  0  -0.626019  0  2.378087  0  0  -0.652113  0  2.370338  0  0  -0.365889  -0.607519  0  2.382572  0
O  O125  1  0.65009212  0.13491276  0.51692473  1  0  -0.666892  0  2.117858  0  0  -0.626039  0  2.378242  0  0  -0.652131  0  2.370491  0  0  -0.365876  -0.607539  0  2.382727  0
O  O126  1  0.15009513  0.13491490  0.98307571  1  0  -0.666932  0  2.117729  0  0  -0.626068  0  2.378122  0  0  -0.652164  0  2.370364  0  0  -0.365893  -0.607566  0  2.382606  0
O  O127  1  0.34990222  0.86508234  0.48307413  1  0  -0.666979  0  2.117609  0  0  -0.626107  0  2.378014  0  0  -0.652208  0  2.370253  0  0  -0.365888  -0.607605  0  2.382497  0
