# generated using pymatgen
data_ZnH23C30N6O5
_symmetry_space_group_name_H-M   'P 1'
_cell_length_a   10.17268990
_cell_length_b   12.46277587
_cell_length_c   12.85600000
_cell_angle_alpha   114.56504468
_cell_angle_beta   100.73376951
_cell_angle_gamma   92.36858739
_symmetry_Int_Tables_number   1
_chemical_formula_structural   ZnH23C30N6O5
_chemical_formula_sum   'Zn2 H46 C60 N12 O10'
_cell_volume   1443.50660639
_cell_formula_units_Z   2
loop_
 _symmetry_equiv_pos_site_id
 _symmetry_equiv_pos_as_xyz
  1  'x, y, z'
loop_
 _atom_site_type_symbol
 _atom_site_label
 _atom_site_symmetry_multiplicity
 _atom_site_fract_x
 _atom_site_fract_y
 _atom_site_fract_z
 _atom_site_occupancy
 _atom_site_hle17_bader_spin_density
 _atom_site_hle17_ddec_charge
 _atom_site_hle17_ddec_spin_density
 _atom_site_hle17_ddec_sum_bond_order
 _atom_site_hle17_magmom
 _atom_site_hse06_10hf_bader_spin_density
 _atom_site_hse06_10hf_ddec_charge
 _atom_site_hse06_10hf_ddec_spin_density
 _atom_site_hse06_10hf_ddec_sum_bond_order
 _atom_site_hse06_10hf_magmom
 _atom_site_hse06_bader_spin_density
 _atom_site_hse06_ddec_charge
 _atom_site_hse06_ddec_spin_density
 _atom_site_hse06_ddec_sum_bond_order
 _atom_site_hse06_magmom
 _atom_site_pbe_bader_charge
 _atom_site_pbe_bader_spin_density
 _atom_site_pbe_cm5_charge
 _atom_site_pbe_ddec_charge
 _atom_site_pbe_ddec_spin_density
 _atom_site_pbe_ddec_sum_bond_order
 _atom_site_pbe_magmom
Zn  Zn0  1  0.51623907  0.73110959  0.16237701  1  0  0.996767  0  1.873593  0  0  0.808488  0  2.343995  0  0  0.856254  0  2.289741  0  1.259998  0  0.6883  0.771486  0  2.384949  0
Zn  Zn1  1  0.48376027  0.26888992  0.83762270  1  0  0.996784  0  1.873592  0  0  0.808497  0  2.343985  0  0  0.856254  0  2.289732  0  1.260007  0  0.688302  0.771495  0  2.38494  0
H  H2  1  0.01929465  0.76304682  0.17713425  1  0  0.107276  0  0.957727  0  0  0.113345  0  1.027433  0  0  0.118184  0  1.022748  0  0.106572  0  0.103766  0.109912  0  1.030981  0
H  H3  1  0.98070582  0.23695359  0.82286598  1  0  0.107254  0  0.957757  0  0  0.113324  0  1.027464  0  0  0.118164  0  1.022779  0  0.10656  0  0.103768  0.109892  0  1.031011  0
H  H4  1  0.78720553  0.44894773  0.14395756  1  0  0.117957  0  0.959346  0  0  0.122796  0  1.029435  0  0  0.126631  0  1.027116  0  0.095972  0  0.104806  0.120068  0  1.031115  0
H  H5  1  0.21279394  0.55105268  0.85604252  1  0  0.117979  0  0.959305  0  0  0.122825  0  1.029386  0  0  0.126659  0  1.027067  0  0.095979  0  0.104816  0.120096  0  1.031068  0
H  H6  1  0.20800610  0.44956192  0.13038875  1  0  0.102736  0  0.981366  0  0  0.108888  0  1.054491  0  0  0.112405  0  1.051892  0  0.088055  0  0.102741  0.106207  0  1.056622  0
H  H7  1  0.79199324  0.55043759  0.86961173  1  0  0.102742  0  0.981357  0  0  0.108895  0  1.054485  0  0  0.11241  0  1.051889  0  0.088055  0  0.10275  0.106221  0  1.056607  0
H  H8  1  0.17540385  0.28241911  0.15946914  1  0  0.052782  0  0.954655  0  0  0.062789  0  1.026364  0  0  0.06251  0  1.027402  0  0.054084  0  0.095041  0.062941  0  1.025766  0
H  H9  1  0.82459536  0.71757951  0.84053019  1  0  0.052815  0  0.954628  0  0  0.062817  0  1.026334  0  0  0.062539  0  1.027371  0  0.054073  0  0.095045  0.062968  0  1.025734  0
H  H10  1  0.12063838  0.26616521  0.01223650  1  0  0.067984  0  0.941876  0  0  0.081995  0  1.006461  0  0  0.081598  0  1.006452  0  0.091443  0  0.102591  0.082133  0  1.006681  0
H  H11  1  0.87936083  0.73383341  0.98776283  1  0  0.068003  0  0.941855  0  0  0.081998  0  1.006435  0  0  0.081603  0  1.006425  0  0.091406  0  0.102588  0.082124  0  1.006667  0
H  H12  1  0.65553047  0.16182602  0.01834925  1  0  0.106434  0  0.912492  0  0  0.118158  0  0.967666  0  0  0.120082  0  0.965746  0  0.141401  0  0.145303  0.116626  0  0.969196  0
H  H13  1  0.34446774  0.83817261  0.98164993  1  0  0.106413  0  0.912457  0  0  0.118138  0  0.96763  0  0  0.12006  0  0.965711  0  0.141393  0  0.145298  0.116607  0  0.96916  0
H  H14  1  0.43147133  0.45207656  0.08641242  1  0  0.127  0  0.943589  0  0  0.135801  0  1.006067  0  0  0.138995  0  1.002156  0  0.215889  0  0.146439  0.133196  0  1.009313  0
H  H15  1  0.56852802  0.54792296  0.91358729  1  0  0.126983  0  0.943615  0  0  0.135787  0  1.006088  0  0  0.138985  0  1.002166  0  0.215882  0  0.146427  0.133182  0  1.009336  0
H  H16  1  0.52530090  0.55271456  0.31186022  1  0  0.10828  0  0.913824  0  0  0.122163  0  0.975707  0  0  0.123634  0  0.974345  0  0.113789  0  0.122706  0.120894  0  0.977079  0
H  H17  1  0.47470057  0.44728584  0.68813938  1  0  0.108283  0  0.913803  0  0  0.122166  0  0.975698  0  0  0.123636  0  0.974336  0  0.1138  0  0.1227  0.120896  0  0.97707  0
H  H18  1  0.63468054  0.47573284  0.37352115  1  0  0.100244  0  0.919281  0  0  0.114121  0  0.981403  0  0  0.114798  0  0.981988  0  0.085055  0  0.119496  0.113453  0  0.981263  0
H  H19  1  0.36531880  0.52426667  0.62647778  1  0  0.100257  0  0.919284  0  0  0.114128  0  0.981422  0  0  0.114804  0  0.982006  0  0.085039  0  0.119498  0.113459  0  0.981281  0
H  H20  1  0.31107432  0.56955596  0.35954605  1  0  0.091601  0  0.966474  0  0  0.102308  0  1.029382  0  0  0.104643  0  1.028819  0  0.046055  0  0.098831  0.100567  0  1.029967  0
H  H21  1  0.68892643  0.43044623  0.64045494  1  0  0.091506  0  0.966569  0  0  0.102249  0  1.029443  0  0  0.104585  0  1.028879  0  0.046087  0  0.09881  0.10051  0  1.030027  0
H  H22  1  0.76617616  0.92923184  0.35122245  1  0  0.124881  0  0.935875  0  0  0.136228  0  0.993716  0  0  0.138688  0  0.9902  0  0.206015  0  0.148813  0.134223  0  0.995976  0
H  H23  1  0.23382505  0.07076678  0.64877796  1  0  0.124902  0  0.935861  0  0  0.13625  0  0.993701  0  0  0.138707  0  0.990184  0  0.206033  0  0.148823  0.134244  0  0.995962  0
H  H24  1  0.35046788  0.95112565  0.29157441  1  0  0.110829  0  0.944424  0  0  0.123151  0  0.99823  0  0  0.125464  0  0.995762  0  0.195809  0  0.140276  0.121209  0  1.000238  0
H  H25  1  0.64953246  0.04887386  0.70842389  1  0  0.110805  0  0.944469  0  0  0.123126  0  0.998273  0  0  0.125437  0  0.995808  0  0.195835  0  0.140279  0.121197  0  1.000263  0
H  H26  1  0.78360727  0.12713293  0.60277664  1  0  0.091859  0  0.916842  0  0  0.106723  0  0.979413  0  0  0.107268  0  0.978003  0  0.078858  0  0.118063  0.106306  0  0.979629  0
H  H27  1  0.21639321  0.87286748  0.39722360  1  0  0.091884  0  0.91689  0  0  0.106754  0  0.979433  0  0  0.107297  0  0.978016  0  0.078856  0  0.118098  0.106338  0  0.979648  0
H  H28  1  0.68680877  0.23125582  0.57570715  1  0  0.102201  0  0.91174  0  0  0.117392  0  0.974202  0  0  0.119009  0  0.971354  0  0.098899  0  0.123729  0.116081  0  0.975793  0
H  H29  1  0.31319144  0.76874281  0.42429155  1  0  0.102216  0  0.91173  0  0  0.117372  0  0.974223  0  0  0.118988  0  0.971368  0  0.098875  0  0.12371  0.116063  0  0.975811  0
H  H30  1  0.01241465  0.15531378  0.60973299  1  0  0.091684  0  0.962787  0  0  0.1027  0  1.024773  0  0  0.105158  0  1.02404  0  0.071168  0  0.099923  0.10086  0  1.025513  0
H  H31  1  0.98758669  0.84468574  0.39026702  1  0  0.091718  0  0.96275  0  0  0.102688  0  1.02478  0  0  0.105145  0  1.024048  0  0.071161  0  0.099924  0.100849  0  1.025517  0
H  H32  1  0.20548284  0.23482171  0.55863851  1  0  0.089888  0  0.9565  0  0  0.100941  0  1.018281  0  0  0.103517  0  1.017424  0  0.072909  0  0.098582  0.099075  0  1.019015  0
H  H33  1  0.79451877  0.76517959  0.44136303  1  0  0.089826  0  0.956465  0  0  0.100889  0  1.018236  0  0  0.103476  0  1.017371  0  0.072929  0  0.098549  0.099025  0  1.018971  0
H  H34  1  0.92836003  0.32912816  0.32220873  1  0  0.104218  0  0.951887  0  0  0.110626  0  1.018095  0  0  0.114539  0  1.01558  0  0.09309  0  0.103515  0.107565  0  1.020365  0
H  H35  1  0.07164159  0.67087313  0.67779203  1  0  0.104199  0  0.951911  0  0  0.110609  0  1.018113  0  0  0.114521  0  1.0156  0  0.093138  0  0.103507  0.107548  0  1.020383  0
H  H36  1  0.73707291  0.25323241  0.37501832  1  0  0.090897  0  0.967987  0  0  0.095661  0  1.041797  0  0  0.099404  0  1.038887  0  0.079422  0  0.097054  0.094002  0  1.04214  0
H  H37  1  0.26292744  0.74676711  0.62498154  1  0  0.09092  0  0.967997  0  0  0.095685  0  1.041798  0  0  0.099428  0  1.03889  0  0.079404  0  0.097065  0.094027  0  1.042143  0
H  H38  1  0.31240984  0.19227138  0.40260385  1  0  0.086753  0  0.977377  0  0  0.094178  0  1.045416  0  0  0.097176  0  1.043827  0  0.073654  0  0.096318  0.09197  0  1.046847  0
H  H39  1  0.68758977  0.80772992  0.59739583  1  0  0.086719  0  0.977403  0  0  0.09414  0  1.045443  0  0  0.097138  0  1.043855  0  0.073623  0  0.096293  0.091932  0  1.046873  0
H  H40  1  0.50508352  0.26631387  0.34985688  1  0  0.090426  0  0.968081  0  0  0.096418  0  1.039484  0  0  0.09973  0  1.037242  0  0.080974  0  0.096624  0.094994  0  1.039446  0
H  H41  1  0.49491509  0.73368743  0.65014266  1  0  0.090408  0  0.968088  0  0  0.096403  0  1.039499  0  0  0.099716  0  1.037257  0  0.081631  0  0.096612  0.094995  0  1.039447  0
H  H42  1  0.11534840  0.49502478  0.41138179  1  0  0.095348  0  0.954873  0  0  0.106411  0  1.01569  0  0  0.108451  0  1.016317  0  0.073503  0  0.101492  0.104869  0  1.015374  0
H  H43  1  0.88465261  0.50497918  0.58862074  1  0  0.095376  0  0.954854  0  0  0.106427  0  1.015682  0  0  0.108467  0  1.016308  0  0.074307  0  0.101515  0.104886  0  1.015367  0
H  H44  1  0.86212173  0.12231907  0.92237402  1  0  0.106527  0  0.98569  0  0  0.113253  0  1.054318  0  0  0.117229  0  1.051081  0  0.120577  0  0.096647  0.110349  0  1.056723  0
H  H45  1  0.13787561  0.87768045  0.07762617  1  0  0.1065  0  0.98573  0  0  0.11327  0  1.054296  0  0  0.117228  0  1.051081  0  0.12061  0  0.096662  0.110366  0  1.056701  0
H  H46  1  0.21181233  0.09555443  0.15230561  1  0  0.080709  0  0.96842  0  0  0.090791  0  1.031206  0  0  0.093262  0  1.031029  0  0.047276  0  0.090185  0.089049  0  1.031289  0
H  H47  1  0.78818488  0.90444420  0.84769420  1  0  0.080736  0  0.968358  0  0  0.090782  0  1.031188  0  0  0.09326  0  1.031004  0  0.047242  0  0.090169  0.08904  0  1.031272  0
C  C48  1  0.25729423  0.67699549  0.16190309  1  0  0.629897  0  3.922855  0  0  0.581991  0  4.212787  0  0  0.615395  0  4.206557  0  1.535591  0  0.19608  0.558921  0  4.216687  0
C  C49  1  0.74270611  0.32300402  0.83809676  1  0  0.629931  0  3.922839  0  0  0.582018  0  4.212782  0  0  0.615422  0  4.206552  0  1.535677  0  0.196092  0.558948  0  4.216682  0
C  C50  1  0.12705096  0.61269378  0.15627653  1  0  -0.048242  0  3.800997  0  0  -0.021154  0  4.032897  0  0  -0.028816  0  4.056846  0  -0.026793  0  -0.024456  -0.016376  0  4.017664  0
C  C51  1  0.87294852  0.38730663  0.84372434  1  0  -0.048268  0  3.801037  0  0  -0.021179  0  4.032941  0  0  -0.028842  0  4.056888  0  -0.026841  0  -0.024447  -0.0164  0  4.017709  0
C  C52  1  0.01355800  0.67173746  0.16689532  1  0  -0.104762  0  3.740815  0  0  -0.146313  0  3.997843  0  0  -0.145332  0  4.0171  0  -0.024035  0  -0.093748  -0.147406  0  3.986212  0
C  C53  1  0.98644121  0.32826117  0.83310479  1  0  -0.104761  0  3.740802  0  0  -0.146314  0  3.997843  0  0  -0.145331  0  4.017096  0  -0.023495  0  -0.093767  -0.14741  0  3.986213  0
C  C54  1  0.89123105  0.61327860  0.16340867  1  0  -0.051414  0  3.798462  0  0  -0.025328  0  4.032783  0  0  -0.033043  0  4.056433  0  -0.001179  0  -0.02409  -0.020429  0  4.017584  0
C  C55  1  0.10876916  0.38672003  0.83659003  1  0  -0.051382  0  3.798473  0  0  -0.025308  0  4.032805  0  0  -0.033025  0  4.056455  0  -0.00171  0  -0.024102  -0.020408  0  4.017605  0
C  C56  1  0.77139611  0.67969350  0.17220072  1  0  0.621232  0  3.939205  0  0  0.577632  0  4.225027  0  0  0.610521  0  4.219154  0  1.529638  0  0.191259  0.554926  0  4.228605  0
C  C57  1  0.22860537  0.32030691  0.82780044  1  0  0.621123  0  3.939285  0  0  0.577522  0  4.225109  0  0  0.610413  0  4.219233  0  1.529601  0  0.191218  0.554816  0  4.228686  0
C  C58  1  0.88235779  0.49538262  0.14818525  1  0  -0.155362  0  3.660191  0  0  -0.191185  0  3.913735  0  0  -0.191305  0  3.92928  0  0.004305  0  -0.091936  -0.190085  0  3.902794  0
C  C59  1  0.11764155  0.50461690  0.85181446  1  0  -0.15534  0  3.66015  0  0  -0.191157  0  3.913686  0  0  -0.191278  0  3.929236  0  0.004314  0  -0.091913  -0.190057  0  3.902745  0
C  C60  1  0.99582276  0.43487199  0.13439958  1  0  0.2679  0  3.816861  0  0  0.262259  0  4.0786  0  0  0.271446  0  4.094548  0  0.420519  0  0.083901  0.255616  0  4.067304  0
C  C61  1  0.00417758  0.56512752  0.86560028  1  0  0.267918  0  3.816864  0  0  0.262271  0  4.078623  0  0  0.271457  0  4.09457  0  0.420563  0  0.083914  0.255626  0  4.06733  0
C  C62  1  0.11847168  0.49403317  0.13959506  1  0  -0.191988  0  3.732989  0  0  -0.225455  0  3.984284  0  0  -0.227436  0  4.004109  0  -0.016934  0  -0.100161  -0.223088  0  3.970553  0
C  C63  1  0.88152879  0.50596724  0.86040518  1  0  -0.192007  0  3.733018  0  0  -0.225477  0  3.984332  0  0  -0.227455  0  4.004157  0  -0.016983  0  -0.100185  -0.223114  0  3.970596  0
C  C64  1  0.08904939  0.25147261  0.08346916  1  0  0.051661  0  3.62631  0  0  -0.011742  0  3.886585  0  0  -0.002711  0  3.890618  0  0.400027  0  -0.06273  -0.017831  0  3.88367  0
C  C65  1  0.91094896  0.74852691  0.91653040  1  0  0.051544  0  3.626317  0  0  -0.011804  0  3.886539  0  0  -0.002775  0  3.890578  0  0.40012  0  -0.062758  -0.017883  0  3.883626  0
C  C66  1  0.04143669  0.12219890  0.04216409  1  0  0.069977  0  3.760116  0  0  0.08854  0  3.996464  0  0  0.087671  0  4.020607  0  -0.081474  0  -0.016818  0.08909  0  3.979999  0
C  C67  1  0.95856065  0.87780062  0.95783688  1  0  0.069964  0  3.760192  0  0  0.088503  0  3.996549  0  0  0.087637  0  4.020689  0  -0.081649  0  -0.016841  0.089053  0  3.980084  0
C  C68  1  0.60661092  0.23823716  0.06314310  1  0  0.21178  0  3.689076  0  0  0.157879  0  3.976227  0  0  0.17012  0  3.987887  0  1.022743  0  0.154826  0.1498  0  3.968039  0
C  C69  1  0.39338729  0.76176146  0.93685608  1  0  0.21177  0  3.689003  0  0  0.157873  0  3.976161  0  0  0.170117  0  3.987818  0  1.022763  0  0.1548  0.149794  0  3.967973  0
C  C70  1  0.49225696  0.38479199  0.09391612  1  0  0.19279  0  3.589504  0  0  0.114699  0  3.850521  0  0  0.129812  0  3.860636  0  0.983612  0  0.172922  0.104872  0  3.843899  0
C  C71  1  0.50774238  0.61520752  0.90608358  1  0  0.192844  0  3.589586  0  0  0.114742  0  3.850605  0  0  0.12986  0  3.860719  0  0.983614  0  0.172962  0.104914  0  3.843983  0
C  C72  1  0.53785548  0.46674602  0.31414122  1  0  -0.055633  0  3.623316  0  0  -0.134593  0  3.871585  0  0  -0.130663  0  3.88131  0  0.273921  0  -0.038745  -0.136967  0  3.864845  0
C  C73  1  0.46214400  0.53325439  0.68585809  1  0  -0.055587  0  3.623284  0  0  -0.134583  0  3.871578  0  0  -0.130649  0  3.881299  0  0.273912  0  -0.038728  -0.136955  0  3.864837  0
C  C74  1  0.42127305  0.42336608  0.35055650  1  0  0.061485  0  3.760799  0  0  0.079537  0  4.004766  0  0  0.078363  0  4.030281  0  -0.013484  0  -0.016776  0.080599  0  3.987347  0
C  C75  1  0.57872656  0.57663522  0.64944397  1  0  0.061529  0  3.760733  0  0  0.079598  0  4.004686  0  0  0.078423  0  4.0302  0  -0.013463  0  -0.01676  0.080659  0  3.987271  0
C  C76  1  0.31105545  0.48676876  0.36930768  1  0  -0.116069  0  3.760609  0  0  -0.134729  0  4.010128  0  0  -0.137593  0  4.032324  0  -0.036055  0  -0.091327  -0.132535  0  3.994728  0
C  C77  1  0.68894416  0.51323254  0.63069201  1  0  -0.116024  0  3.760614  0  0  -0.134718  0  4.010113  0  0  -0.137582  0  4.032312  0  -0.035989  0  -0.091313  -0.132524  0  3.994711  0
C  C78  1  0.66882161  0.95963625  0.36077506  1  0  0.184858  0  3.609383  0  0  0.106131  0  3.863188  0  0  0.130859  0  3.877717  0  1.004673  0  0.172228  0.096313  0  3.855645  0
C  C79  1  0.33117860  0.04036237  0.63922442  1  0  0.184741  0  3.609236  0  0  0.106035  0  3.863071  0  0  0.130841  0  3.877623  0  1.004683  0  0.172173  0.096221  0  3.855526  0
C  C80  1  0.45755730  0.97463684  0.33164034  1  0  0.197848  0  3.697382  0  0  0.141785  0  3.984934  0  0  0.153958  0  3.994483  0  0.959724  0  0.146022  0.134363  0  3.975854  0
C  C81  1  0.54244391  0.02536178  0.66835929  1  0  0.197843  0  3.69736  0  0  0.141801  0  3.984895  0  0  0.153977  0  3.99442  0  0.959676  0  0.146024  0.13437  0  3.975811  0
C  C82  1  0.74584139  0.15906482  0.53640920  1  0  -0.051163  0  3.644783  0  0  -0.134723  0  3.899748  0  0  -0.120926  0  3.91229  0  0.293216  0  -0.038867  -0.137482  0  3.892804  0
C  C83  1  0.25415882  0.84093381  0.46359027  1  0  -0.051187  0  3.644836  0  0  -0.134671  0  3.899804  0  0  -0.120797  0  3.912355  0  0.293231  0  -0.038832  -0.137429  0  3.89286  0
C  C84  1  0.86147663  0.19983131  0.49751842  1  0  0.050932  0  3.773749  0  0  0.07305  0  4.012798  0  0  0.070972  0  4.037669  0  -0.044423  0  -0.020534  0.074671  0  3.994734  0
C  C85  1  0.13852371  0.80016821  0.50248143  1  0  0.050943  0  3.773769  0  0  0.073015  0  4.012857  0  0  0.07094  0  4.03771  0  -0.044418  0  -0.020552  0.074638  0  3.994791  0
C  C86  1  0.99396215  0.19256423  0.54588248  1  0  -0.118877  0  3.786733  0  0  -0.138336  0  4.031768  0  0  -0.141717  0  4.056898  0  -0.080283  0  -0.095891  -0.135985  0  4.014987  0
C  C87  1  0.00603833  0.80743617  0.45411776  1  0  -0.118968  0  3.786726  0  0  -0.138376  0  4.031788  0  0  -0.141759  0  4.056923  0  -0.080281  0  -0.095911  -0.136026  0  4.015007  0
C  C88  1  0.10255256  0.23694112  0.51682823  1  0  -0.110802  0  3.751779  0  0  -0.129229  0  3.995372  0  0  -0.132862  0  4.018429  0  -0.036104  0  -0.093411  -0.126917  0  3.979868  0
C  C89  1  0.89744892  0.76305928  0.48317215  1  0  -0.110671  0  3.751617  0  0  -0.129097  0  3.99519  0  0  -0.132742  0  4.018243  0  -0.036133  0  -0.093356  -0.126786  0  3.979685  0
C  C90  1  0.08140086  0.28904975  0.43798377  1  0  0.0557  0  3.77849  0  0  0.072042  0  4.004356  0  0  0.072389  0  4.028837  0  0.016347  0  -0.00495  0.071967  0  3.987488  0
C  C91  1  0.91859989  0.71095244  0.56201878  1  0  0.05562  0  3.778349  0  0  0.071946  0  4.004208  0  0  0.072285  0  4.028688  0  0.016392  0  -0.004995  0.071883  0  3.987346  0
C  C92  1  0.94778380  0.29336335  0.38719547  1  0  -0.097463  0  3.715111  0  0  -0.115032  0  3.958497  0  0  -0.117491  0  3.978052  0  -0.089745  0  -0.083504  -0.113191  0  3.945535  0
C  C93  1  0.05221668  0.70663706  0.61280554  1  0  -0.097404  0  3.714976  0  0  -0.114973  0  3.958364  0  0  -0.117433  0  3.977921  0  -0.089813  0  -0.083475  -0.113133  0  3.945401  0
C  C94  1  0.83942337  0.24932382  0.41673382  1  0  -0.104806  0  3.749069  0  0  -0.125393  0  3.99689  0  0  -0.127206  0  4.017554  0  -0.01175  0  -0.0902  -0.124622  0  3.98237  0
C  C95  1  0.16057811  0.75067659  0.58326734  1  0  -0.104859  0  3.74905  0  0  -0.125435  0  3.996897  0  0  -0.127249  0  4.017559  0  -0.011746  0  -0.090219  -0.124664  0  3.982376  0
C  C96  1  0.19789005  0.33685633  0.40912903  1  0  0.048696  0  3.78333  0  0  0.062646  0  4.014182  0  0  0.06257  0  4.037915  0  0.000951  0  -0.006618  0.062475  0  3.998076  0
C  C97  1  0.80211083  0.66314674  0.59087312  1  0  0.048643  0  3.783399  0  0  0.062662  0  4.01414  0  0  0.062611  0  4.037838  0  0.001008  0  -0.006654  0.062454  0  3.99808  0
C  C98  1  0.31076959  0.27525618  0.39334475  1  0  -0.114632  0  3.764118  0  0  -0.130908  0  4.010626  0  0  -0.133734  0  4.031799  0  -0.081979  0  -0.091425  -0.129054  0  3.996969  0
C  C99  1  0.68922902  0.72474512  0.60665479  1  0  -0.114624  0  3.764166  0  0  -0.130915  0  4.010647  0  0  -0.133749  0  4.031814  0  -0.082041  0  -0.09143  -0.12905  0  3.997004  0
C  C100  1  0.42032539  0.31742197  0.36402784  1  0  -0.115312  0  3.763343  0  0  -0.137428  0  4.016398  0  0  -0.139648  0  4.037746  0  -0.038588  0  -0.095505  -0.1366  0  4.001873  0
C  C101  1  0.57967435  0.68258021  0.63597301  1  0  -0.115304  0  3.763339  0  0  -0.137431  0  4.016391  0  0  -0.139652  0  4.037741  0  -0.039225  0  -0.095488  -0.136617  0  4.001857  0
C  C102  1  0.20022093  0.44408491  0.39756463  1  0  -0.104595  0  3.733784  0  0  -0.124379  0  3.982211  0  0  -0.126451  0  4.002699  0  -0.072717  0  -0.087999  -0.122938  0  3.968297  0
C  C103  1  0.79977995  0.55591817  0.60243752  1  0  -0.10453  0  3.733746  0  0  -0.124329  0  3.982162  0  0  -0.126408  0  4.002641  0  -0.073602  0  -0.087963  -0.122879  0  3.968259  0
C  C104  1  0.92173214  0.06848002  0.95666335  1  0  -0.114939  0  3.743732  0  0  -0.135616  0  3.98912  0  0  -0.138456  0  4.010279  0  -0.051763  0  -0.097289  -0.133594  0  3.974806  0
C  C105  1  0.07826520  0.93151950  0.04333684  1  0  -0.114887  0  3.743779  0  0  -0.135602  0  3.989202  0  0  -0.138427  0  4.010364  0  -0.051723  0  -0.097287  -0.133579  0  3.974888  0
C  C106  1  0.11901817  0.05303525  0.08499418  1  0  -0.123193  0  3.782683  0  0  -0.138194  0  4.022217  0  0  -0.141973  0  4.046186  0  -0.031457  0  -0.098032  -0.135407  0  4.005737  0
C  C107  1  0.88097917  0.94696426  0.91500679  1  0  -0.123182  0  3.782631  0  0  -0.138142  0  4.022143  0  0  -0.141927  0  4.046116  0  -0.031281  0  -0.097996  -0.135355  0  4.005663  0
N  N108  1  0.52681179  0.29291917  0.00718121  1  0  -0.408378  0  3.255012  0  0  -0.328044  0  3.56166  0  0  -0.350849  0  3.57111  0  -1.2256  0  -0.34621  -0.312164  0  3.554507  0
N  N109  1  0.47318755  0.70708035  0.99281850  1  0  -0.408371  0  3.255044  0  0  -0.328059  0  3.561722  0  0  -0.350865  0  3.571171  0  -1.225588  0  -0.346217  -0.312179  0  3.554569  0
N  N110  1  0.62206960  0.29094307  0.17882394  1  0  -0.273612  0  2.831825  0  0  -0.272574  0  3.096622  0  0  -0.280578  0  3.108778  0  -0.715347  0  -0.217599  -0.26708  0  3.088452  0
N  N111  1  0.37792975  0.70905645  0.82117576  1  0  -0.273544  0  2.831926  0  0  -0.272531  0  3.096717  0  0  -0.280531  0  3.108872  0  -0.715364  0  -0.217582  -0.267037  0  3.088548  0
N  N112  1  0.54914902  0.38404784  0.19633237  1  0  0.053866  0  3.544706  0  0  0.172064  0  3.735194  0  0  0.161769  0  3.757799  0  -0.797841  0  -0.127915  0.177854  0  3.721909  0
N  N113  1  0.45085033  0.61595168  0.80366734  1  0  0.05376  0  3.544928  0  0  0.172022  0  3.735356  0  0  0.161713  0  3.757986  0  -0.797843  0  -0.127926  0.177813  0  3.72207  0
N  N114  1  0.54969682  0.89964013  0.29101992  1  0  -0.400018  0  3.265522  0  0  -0.317779  0  3.573136  0  0  -0.338972  0  3.576776  0  -1.248652  0  -0.343212  -0.302801  0  3.567903  0
N  N115  1  0.45030453  0.10035939  0.70898086  1  0  -0.400011  0  3.265483  0  0  -0.317774  0  3.573087  0  0  -0.338963  0  3.576701  0  -1.248614  0  -0.343219  -0.302797  0  3.567857  0
N  N116  1  0.51334515  0.07646900  0.42238469  1  0  -0.270589  0  2.859531  0  0  -0.272722  0  3.131676  0  0  -0.271913  0  3.151359  0  -0.697002  0  -0.220863  -0.266997  0  3.122209  0
N  N117  1  0.48665519  0.92353052  0.57761439  1  0  -0.270585  0  2.859513  0  0  -0.272698  0  3.131691  0  0  -0.271814  0  3.151403  0  -0.697058  0  -0.220858  -0.266971  0  3.122229  0
N  N118  1  0.64745462  0.06498712  0.43968227  1  0  0.043327  0  3.559716  0  0  0.164844  0  3.748914  0  0  0.124932  0  3.809631  0  -0.822008  0  -0.127437  0.17135  0  3.733904  0
N  N119  1  0.35254672  0.93501239  0.56031773  1  0  0.04345  0  3.559559  0  0  0.164873  0  3.748856  0  0  0.124741  0  3.809805  0  -0.822005  0  -0.127414  0.171369  0  3.733863  0
O  O120  1  0.36573301  0.62710955  0.17309679  1  0  -0.660207  0  2.021788  0  0  -0.588058  0  2.287402  0  0  -0.6162  0  2.273278  0  -1.181055  0  -0.337542  -0.567088  0  2.298293  0
O  O121  1  0.63426733  0.37288997  0.82690307  1  0  -0.660205  0  2.021772  0  0  -0.588057  0  2.287396  0  0  -0.616197  0  2.27327  0  -1.181069  0  -0.337534  -0.567086  0  2.298288  0
O  O122  1  0.25984083  0.77582385  0.15738181  1  0  -0.6236  0  1.956112  0  0  -0.575007  0  2.188378  0  0  -0.598185  0  2.179124  0  -1.185058  0  -0.318596  -0.558121  0  2.193829  0
O  O123  1  0.74015851  0.22417567  0.84261867  1  0  -0.623621  0  1.956087  0  0  -0.575025  0  2.188365  0  0  -0.598205  0  2.179114  0  -1.185075  0  -0.318623  -0.558142  0  2.193817  0
O  O124  1  0.78266489  0.78319240  0.17850970  1  0  -0.629718  0  1.905987  0  0  -0.583691  0  2.122796  0  0  -0.605437  0  2.113298  0  -1.182171  0  -0.334184  -0.567752  0  2.128463  0
O  O125  1  0.21733445  0.21680711  0.82148923  1  0  -0.629667  0  1.906028  0  0  -0.583637  0  2.122831  0  0  -0.605386  0  2.113339  0  -1.182143  0  -0.33416  -0.567697  0  2.128499  0
O  O126  1  0.65846389  0.62601913  0.17132985  1  0  -0.6567  0  2.011287  0  0  -0.587915  0  2.277944  0  0  -0.61625  0  2.264672  0  -1.1797  0  -0.342409  -0.566824  0  2.288096  0
O  O127  1  0.34153672  0.37398217  0.82866998  1  0  -0.65668  0  2.011267  0  0  -0.587873  0  2.277905  0  0  -0.616205  0  2.264629  0  -1.179707  0  -0.342383  -0.566782  0  2.288057  0
O  O128  1  0.97868452  0.31861832  0.11573496  1  0  -0.285169  0  2.300951  0  0  -0.214906  0  2.535607  0  0  -0.233671  0  2.539638  0  -1.062592  0  -0.1775  -0.201534  0  2.532448  0
O  O129  1  0.02131396  0.68138209  0.88426498  1  0  -0.285166  0  2.300935  0  0  -0.214921  0  2.535571  0  0  -0.233689  0  2.539608  0  -1.062569  0  -0.177503  -0.201547  0  2.532411  0
