# generated using pymatgen
data_AlH7C13O5F
_symmetry_space_group_name_H-M   'P 1'
_cell_length_a   6.67635837
_cell_length_b   11.16610117
_cell_length_c   17.79004177
_cell_angle_alpha   85.25278162
_cell_angle_beta   78.57735430
_cell_angle_gamma   73.35719560
_symmetry_Int_Tables_number   1
_chemical_formula_structural   AlH7C13O5F
_chemical_formula_sum   'Al2 H14 C26 O10 F2'
_cell_volume   1245.02369360
_cell_formula_units_Z   2
loop_
 _symmetry_equiv_pos_site_id
 _symmetry_equiv_pos_as_xyz
  1  'x, y, z'
loop_
 _atom_site_type_symbol
 _atom_site_label
 _atom_site_symmetry_multiplicity
 _atom_site_fract_x
 _atom_site_fract_y
 _atom_site_fract_z
 _atom_site_occupancy
 _atom_site_pbe_bader_charge
 _atom_site_pbe_bader_spin_density
 _atom_site_pbe_cm5_charge
 _atom_site_pbe_ddec_charge
 _atom_site_pbe_ddec_spin_density
 _atom_site_pbe_ddec_sum_bond_order
 _atom_site_pbe_magmom
Al  Al0  1  0.49841456  0.49991983  0.50381040  1  2.502581  0  0.399603  1.643694  0  2.579196  0
Al  Al1  1  0.99882873  0.49920145  0.50333314  1  2.505293  0  0.399175  1.647287  0  2.580924  0
H  H2  1  0.27334310  0.37471898  0.57156136  1  0.617725  0  0.357637  0.438129  0  0.842315  0
H  H3  1  0.71480401  0.63424992  0.44505134  1  0.641387  0  0.353  0.42913  0  0.858396  0
H  H4  1  0.68378613  0.50368719  0.27246107  1  0.104205  0  0.109743  0.115408  0  1.000082  0
H  H5  1  0.75571078  0.51320684  0.12879825  1  0.071454  0  0.103701  0.105205  0  1.003743  0
H  H6  1  0.16193579  0.43141708  0.12892545  1  0.06628  0  0.103463  0.104494  0  1.001149  0
H  H7  1  0.09017034  0.42618033  0.27256022  1  0.122067  0  0.110132  0.114745  0  0.999406  0
H  H8  1  0.85794845  0.55311172  0.87629732  1  0.077703  0  0.10424  0.104877  0  1.006242  0
H  H9  1  0.92030727  0.56188321  0.73262958  1  0.09959  0  0.111255  0.116683  0  0.998682  0
H  H10  1  0.31213826  0.50073226  0.73708765  1  0.102497  0  0.109691  0.114009  0  1.003096  0
H  H11  1  0.24871280  0.48865618  0.88071567  1  0.082068  0  0.103619  0.103567  0  1.00621  0
H  H12  1  0.41916021  0.13353001  0.47061237  1  0.082538  0  0.096379  0.11449  0  1.009428  0
H  H13  1  0.33341753  0.13289675  0.38198768  1  0.051203  0  0.100102  0.111156  0  0.974876  0
H  H14  1  0.46542870  0.89851230  0.38111161  1  0.048679  0  0.09781  0.106106  0  0.979212  0
H  H15  1  0.54761991  0.89727069  0.47104314  1  0.07152  0  0.092601  0.105983  0  1.025764  0
C  C16  1  0.84944883  0.27403883  0.51104204  1  1.630406  0  0.274814  0.673685  0  4.090306  0
C  C17  1  0.66774390  0.52350786  0.64153995  1  1.57561  0  0.264269  0.636213  0  4.106407  0
C  C18  1  0.14197760  0.72529979  0.50403671  1  1.618992  0  0.276569  0.67848  0  4.082537  0
C  C19  1  0.33059490  0.47425684  0.36586744  1  1.588063  0  0.263214  0.632529  0  4.11588  0
C  C20  1  0.38155829  0.46637811  0.28064954  1  -0.081283  0  -0.017176  -0.049702  0  3.979875  0
C  C21  1  0.57134865  0.48809573  0.24008535  1  -0.098891  0  -0.079989  -0.085656  0  3.984102  0
C  C22  1  0.61111072  0.49300802  0.16045403  1  0.074795  0  -0.083707  -0.130451  0  3.947955  0
C  C23  1  0.46154402  0.47536232  0.11929279  1  0.117427  0  0.005264  0.147561  0  4.108169  0
C  C24  1  0.27526739  0.44788158  0.16057138  1  -0.082331  0  -0.082403  -0.126693  0  3.943168  0
C  C25  1  0.23568923  0.44436798  0.24022360  1  0.010265  0  -0.080101  -0.088289  0  3.990144  0
C  C26  1  0.49478211  0.48858449  0.03840345  1  -0.525912  0  -0.044247  -0.107834  0  4.116586  0
C  C27  1  0.52038094  0.50406385  0.96875672  1  0.153749  0  -0.041347  -0.103182  0  4.114785  0
C  C28  1  0.55085449  0.51790221  0.88790190  1  0.01775  0  0.004589  0.145271  0  4.10898  0
C  C29  1  0.73933299  0.54114598  0.84555133  1  -0.041535  0  -0.08262  -0.127676  0  3.945875  0
C  C30  1  0.77394991  0.54634147  0.76596562  1  -0.051601  0  -0.078565  -0.085085  0  3.980457  0
C  C31  1  0.62125526  0.52984059  0.72679843  1  0.013726  0  -0.01227  -0.040022  0  3.964194  0
C  C32  1  0.42994635  0.51191859  0.76847993  1  -0.065165  0  -0.078192  -0.084645  0  3.980311  0
C  C33  1  0.39485805  0.50553670  0.84805703  1  0.026336  0  -0.081963  -0.125509  0  3.946052  0
C  C34  1  0.92172795  0.13518019  0.51426761  1  0.017018  0  -0.013279  -0.171769  0  3.99624  0
C  C35  1  0.06874223  0.86355858  0.51128305  1  0.035686  0  -0.012561  -0.169912  0  3.98741  0
C  C36  1  0.12874177  0.07009134  0.48220602  1  -0.04423  0  -0.004266  0.068253  0  3.909241  0
C  C37  1  0.86152477  0.92816654  0.54646709  1  0.547297  0  0.098704  0.149267  0  4.060493  0
C  C38  1  0.19953395  0.94007710  0.48109126  1  0.0502  0  -0.005496  0.066382  0  3.905386  0
C  C39  1  0.79091321  0.05898747  0.54789191  1  0.489338  0  0.098523  0.150599  0  4.059585  0
C  C40  1  0.33882170  0.08701949  0.43890069  1  -0.003973  0  -0.1478  -0.191885  0  3.847893  0
C  C41  1  0.42034025  0.93912745  0.43829312  1  -0.041274  0  -0.150195  -0.196528  0  3.864038  0
O  O42  1  0.65700176  0.32635507  0.50553071  1  -1.248732  0  -0.230329  -0.586806  0  2.339066  0
O  O43  1  0.85392688  0.52582389  0.60797775  1  -1.266834  0  -0.238573  -0.598212  0  2.358525  0
O  O44  1  0.00536904  0.67058541  0.49564114  1  -1.254887  0  -0.233309  -0.596573  0  2.344582  0
O  O45  1  0.47524541  0.48792271  0.39894300  1  -1.26837  0  -0.238483  -0.5969  0  2.35534  0
O  O46  1  0.33837734  0.67398678  0.50421770  1  -1.25156  0  -0.227365  -0.576248  0  2.305127  0
O  O47  1  0.14428352  0.47100607  0.39878030  1  -1.262263  0  -0.238315  -0.593163  0  2.346296  0
O  O48  1  0.99164561  0.32867072  0.51240801  1  -1.249486  0  -0.225616  -0.577499  0  2.326447  0
O  O49  1  0.52063203  0.51144260  0.60911780  1  -1.264886  0  -0.239197  -0.600283  0  2.349342  0
O  O50  1  0.25342182  0.45009221  0.53948985  1  -1.419758  0  -0.448205  -0.998067  0  2.206937  0
O  O51  1  0.74325830  0.55033553  0.46742761  1  -1.446927  0  -0.448254  -0.991304  0  2.196841  0
F  F52  1  0.72241349  0.86514204  0.58280107  1  -0.620808  0  -0.084281  -0.107191  0  1.382109  0
F  F53  1  0.59012758  0.11032882  0.58560469  1  -0.622743  0  -0.089992  -0.11612  0  1.375872  0
