# generated using pymatgen
data_LaH7(C3O4)2
_symmetry_space_group_name_H-M   'P 1'
_cell_length_a   8.77775753
_cell_length_b   9.45692145
_cell_length_c   12.91990176
_cell_angle_alpha   75.75311171
_cell_angle_beta   70.15769206
_cell_angle_gamma   62.34386421
_symmetry_Int_Tables_number   1
_chemical_formula_structural   LaH7(C3O4)2
_chemical_formula_sum   'La4 H28 C24 O32'
_cell_volume   888.49635093
_cell_formula_units_Z   4
loop_
 _symmetry_equiv_pos_site_id
 _symmetry_equiv_pos_as_xyz
  1  'x, y, z'
loop_
 _atom_site_type_symbol
 _atom_site_label
 _atom_site_symmetry_multiplicity
 _atom_site_fract_x
 _atom_site_fract_y
 _atom_site_fract_z
 _atom_site_occupancy
 _atom_site_hle17_bader_spin_density
 _atom_site_hle17_ddec_charge
 _atom_site_hle17_ddec_spin_density
 _atom_site_hle17_ddec_sum_bond_order
 _atom_site_hle17_magmom
 _atom_site_hse06_10hf_bader_spin_density
 _atom_site_hse06_10hf_ddec_charge
 _atom_site_hse06_10hf_ddec_spin_density
 _atom_site_hse06_10hf_ddec_sum_bond_order
 _atom_site_hse06_10hf_magmom
 _atom_site_hse06_bader_spin_density
 _atom_site_hse06_ddec_charge
 _atom_site_hse06_ddec_spin_density
 _atom_site_hse06_ddec_sum_bond_order
 _atom_site_hse06_magmom
 _atom_site_pbe_bader_spin_density
 _atom_site_pbe_cm5_charge
 _atom_site_pbe_ddec_charge
 _atom_site_pbe_ddec_spin_density
 _atom_site_pbe_ddec_sum_bond_order
 _atom_site_pbe_magmom
La  La0  1  0.00011118  0.49781291  0.67095609  1  0  2.14751  0  1.773217  0  0  2.020867  0  2.288919  0  0  2.123869  0  2.186289  0  0  1.434169  1.943089  0  2.361657  0
La  La1  1  0.83114671  0.99788928  0.17090213  1  0  2.147423  0  1.773999  0  0  2.020211  0  2.290512  0  0  2.123156  0  2.187977  0  0  1.433954  1.942224  0  2.363669  0
La  La2  1  0.99988676  0.50218821  0.32904458  1  0  2.147501  0  1.773237  0  0  2.02085  0  2.288947  0  0  2.123855  0  2.186309  0  0  1.434171  1.943076  0  2.361676  0
La  La3  1  0.16885163  0.00211064  0.82909758  1  0  2.147411  0  1.77401  0  0  2.020225  0  2.290488  0  0  2.123168  0  2.187952  0  0  1.433962  1.942237  0  2.363646  0
H  H4  1  0.32822946  0.47932961  0.03883805  1  0  0.138941  0  0.920691  0  0  0.151126  0  0.980759  0  0  0.154517  0  0.978737  0  0  0.117594  0.148717  0  0.982288  0
H  H5  1  0.15388200  0.97927667  0.53875566  1  0  0.139163  0  0.917938  0  0  0.15152  0  0.978375  0  0  0.154757  0  0.976455  0  0  0.117755  0.148883  0  0.980285  0
H  H6  1  0.67177227  0.52067271  0.96116183  1  0  0.138957  0  0.920691  0  0  0.151143  0  0.980752  0  0  0.154534  0  0.978729  0  0  0.117598  0.148734  0  0.98228  0
H  H7  1  0.84611898  0.02072325  0.46124383  1  0  0.139143  0  0.917937  0  0  0.151488  0  0.978381  0  0  0.154732  0  0.97645  0  0  0.117751  0.14885  0  0.98029  0
H  H8  1  0.16827160  0.47140391  0.99039678  1  0  0.149182  0  0.896727  0  0  0.164022  0  0.947417  0  0  0.167423  0  0.945571  0  0  0.12415  0.16153  0  0.949111  0
H  H9  1  0.37014552  0.97141471  0.49036776  1  0  0.149267  0  0.897306  0  0  0.164202  0  0.948452  0  0  0.167603  0  0.946505  0  0  0.124107  0.161749  0  0.950004  0
H  H10  1  0.83172991  0.52859720  0.00960396  1  0  0.149244  0  0.896667  0  0  0.164051  0  0.947407  0  0  0.167453  0  0.945559  0  0  0.124182  0.161561  0  0.9491  0
H  H11  1  0.62985474  0.02858641  0.50963059  1  0  0.149264  0  0.897274  0  0  0.164193  0  0.948417  0  0  0.167593  0  0.946469  0  0  0.124111  0.161739  0  0.94997  0
H  H12  1  0.57988691  0.37809139  0.88364709  1  0  0.133039  0  0.919884  0  0  0.146385  0  0.977218  0  0  0.149317  0  0.975663  0  0  0.110267  0.144238  0  0.978419  0
H  H13  1  0.15842565  0.87824212  0.38349812  1  0  0.133683  0  0.91965  0  0  0.146111  0  0.977902  0  0  0.149062  0  0.976335  0  0  0.110189  0.144187  0  0.978796  0
H  H14  1  0.42011175  0.62190852  0.11635472  1  0  0.132998  0  0.919902  0  0  0.146336  0  0.977237  0  0  0.149267  0  0.975682  0  0  0.110242  0.144194  0  0.978434  0
H  H15  1  0.84157418  0.12175660  0.61650195  1  0  0.133705  0  0.919639  0  0  0.146118  0  0.977872  0  0  0.14907  0  0.976305  0  0  0.110202  0.144193  0  0.978767  0
H  H16  1  0.44258622  0.34336678  0.82791201  1  0  0.138101  0  0.914615  0  0  0.152586  0  0.970743  0  0  0.155669  0  0.968922  0  0  0.117073  0.15  0  0.972914  0
H  H17  1  0.38618261  0.84343825  0.32787048  1  0  0.139038  0  0.913983  0  0  0.153439  0  0.970298  0  0  0.156629  0  0.968322  0  0  0.117407  0.151214  0  0.971839  0
H  H18  1  0.55741321  0.65663313  0.17208903  1  0  0.138135  0  0.914618  0  0  0.152621  0  0.970725  0  0  0.155703  0  0.968903  0  0  0.1171  0.150034  0  0.972896  0
H  H19  1  0.61381704  0.15656287  0.67212970  1  0  0.139077  0  0.913951  0  0  0.153442  0  0.970273  0  0  0.156631  0  0.9683  0  0  0.117432  0.151219  0  0.971809  0
H  H20  1  0.51026433  0.68829756  0.82001624  1  0  0.390266  0  0.901768  0  0  0.363304  0  0.97558  0  0  0.375556  0  0.96204  0  0  0.306675  0.354588  0  0.985073  0
H  H21  1  0.98144552  0.18838287  0.31999976  1  0  0.389931  0  0.903207  0  0  0.362888  0  0.977014  0  0  0.375144  0  0.963499  0  0  0.306346  0.354097  0  0.986742  0
H  H22  1  0.48973556  0.31170236  0.17998192  1  0  0.390272  0  0.901758  0  0  0.36331  0  0.975569  0  0  0.375561  0  0.96203  0  0  0.306683  0.354595  0  0.98506  0
H  H23  1  0.01855298  0.81161705  0.68000100  1  0  0.389935  0  0.90319  0  0  0.362894  0  0.977  0  0  0.375149  0  0.963484  0  0  0.306345  0.354103  0  0.986722  0
H  H24  1  0.37782276  0.48133018  0.60588051  1  0  0.430187  0  0.876134  0  0  0.398102  0  0.941292  0  0  0.409307  0  0.925307  0  0  0.295147  0.390098  0  0.952678  0
H  H25  1  0.53508805  0.98130506  0.10587723  1  0  0.431323  0  0.874872  0  0  0.399764  0  0.939243  0  0  0.410985  0  0.923213  0  0  0.295845  0.391642  0  0.950878  0
H  H26  1  0.62217971  0.51866853  0.39411935  1  0  0.430172  0  0.876144  0  0  0.398086  0  0.941307  0  0  0.409289  0  0.925324  0  0  0.295134  0.390083  0  0.952691  0
H  H27  1  0.46491045  0.01869485  0.89412353  1  0  0.431316  0  0.874886  0  0  0.399759  0  0.939254  0  0  0.41098  0  0.923224  0  0  0.295862  0.391638  0  0.950888  0
H  H28  1  0.36725381  0.45190949  0.49224990  1  0  0.436466  0  0.864349  0  0  0.403171  0  0.930709  0  0  0.416217  0  0.911807  0  0  0.295684  0.393801  0  0.944237  0
H  H29  1  0.68859201  0.95184427  0.99223685  1  0  0.437333  0  0.863343  0  0  0.403925  0  0.929865  0  0  0.41702  0  0.910902  0  0  0.295809  0.394585  0  0.943343  0
H  H30  1  0.63274865  0.54808922  0.50774996  1  0  0.436468  0  0.864348  0  0  0.403178  0  0.930699  0  0  0.416225  0  0.911794  0  0  0.295682  0.393809  0  0.944225  0
H  H31  1  0.31140783  0.04815445  0.00776322  1  0  0.437311  0  0.863379  0  0  0.403901  0  0.929902  0  0  0.416997  0  0.910938  0  0  0.295814  0.39456  0  0.943382  0
C  C32  1  0.20139970  0.64570402  0.79496293  1  0  0.639193  0  3.818031  0  0  0.588476  0  4.122636  0  0  0.623181  0  4.115672  0  0  0.229769  0.564461  0  4.126802  0
C  C33  1  0.35798316  0.14579431  0.29496951  1  0  0.637577  0  3.820532  0  0  0.588778  0  4.122547  0  0  0.623494  0  4.115722  0  0  0.230026  0.564565  0  4.126851  0
C  C34  1  0.79859731  0.35429709  0.20503746  1  0  0.639259  0  3.817912  0  0  0.588627  0  4.122481  0  0  0.623313  0  4.115548  0  0  0.229842  0.564612  0  4.126649  0
C  C35  1  0.64201633  0.85420681  0.70502961  1  0  0.637664  0  3.820629  0  0  0.588857  0  4.122667  0  0  0.623573  0  4.115842  0  0  0.230039  0.564636  0  4.126981  0
C  C36  1  0.33208632  0.58387954  0.86877612  1  0  0.272298  0  3.578311  0  0  0.26874  0  3.826812  0  0  0.273463  0  3.837808  0  0  0.077591  0.265247  0  3.819386  0
C  C37  1  0.21536716  0.08395823  0.36875218  1  0  0.271182  0  3.580701  0  0  0.26676  0  3.829899  0  0  0.27146  0  3.840878  0  0  0.07682  0.26321  0  3.82263  0
C  C38  1  0.66791146  0.41612158  0.13122349  1  0  0.272421  0  3.578258  0  0  0.268613  0  3.827099  0  0  0.273338  0  3.838104  0  0  0.077599  0.265122  0  3.819669  0
C  C39  1  0.78463311  0.91604289  0.63124617  1  0  0.271114  0  3.580658  0  0  0.266656  0  3.829857  0  0  0.271355  0  3.840836  0  0  0.07682  0.263112  0  3.822589  0
C  C40  1  0.23249328  0.54837926  0.98846451  1  0  -0.348296  0  3.590108  0  0  -0.38986  0  3.830171  0  0  -0.39658  0  3.833528  0  0  -0.14765  -0.385395  0  3.828399  0
C  C41  1  0.23087358  0.04836969  0.48842922  1  0  -0.347065  0  3.59069  0  0  -0.390394  0  3.832279  0  0  -0.396802  0  3.83532  0  0  -0.147752  -0.385888  0  3.830555  0
C  C42  1  0.76750730  0.45162186  0.01153595  1  0  -0.348432  0  3.590124  0  0  -0.389925  0  3.83025  0  0  -0.396643  0  3.83361  0  0  -0.147698  -0.38547  0  3.828491  0
C  C43  1  0.76912724  0.95163024  0.51156922  1  0  -0.347015  0  3.590654  0  0  -0.390291  0  3.832238  0  0  -0.396704  0  3.835276  0  0  -0.147745  -0.385783  0  3.830512  0
C  C44  1  0.09123191  0.69522167  0.04568556  1  0  0.776892  0  3.756027  0  0  0.730563  0  4.051112  0  0  0.768319  0  4.042178  0  0  0.243311  0.704301  0  4.056621  0
C  C45  1  0.16793946  0.19516088  0.54576208  1  0  0.775467  0  3.76176  0  0  0.731521  0  4.053398  0  0  0.769215  0  4.044425  0  0  0.243774  0.705352  0  4.058729  0
C  C46  1  0.90876758  0.30477945  0.95431356  1  0  0.777056  0  3.756026  0  0  0.730724  0  4.0511  0  0  0.768473  0  4.042174  0  0  0.243365  0.704463  0  4.056608  0
C  C47  1  0.83206245  0.80483904  0.45423769  1  0  0.775468  0  3.761795  0  0  0.731461  0  4.053521  0  0  0.769153  0  4.044552  0  0  0.243759  0.70529  0  4.058853  0
C  C48  1  0.49363867  0.43035678  0.82708966  1  0  -0.358407  0  3.600973  0  0  -0.403852  0  3.845194  0  0  -0.410252  0  3.850132  0  0  -0.159529  -0.399228  0  3.841962  0
C  C49  1  0.24898874  0.93047061  0.32699610  1  0  -0.360274  0  3.603072  0  0  -0.40504  0  3.847618  0  0  -0.411486  0  3.852559  0  0  -0.159684  -0.400472  0  3.844043  0
C  C50  1  0.50636153  0.56964313  0.17291061  1  0  -0.358447  0  3.600986  0  0  -0.403777  0  3.845215  0  0  -0.410175  0  3.850157  0  0  -0.159523  -0.399158  0  3.841982  0
C  C51  1  0.75101091  0.06953051  0.67300408  1  0  -0.360343  0  3.603036  0  0  -0.405003  0  3.847473  0  0  -0.411449  0  3.852412  0  0  -0.15972  -0.400432  0  3.843895  0
C  C52  1  0.60058871  0.46035852  0.70914037  1  0  0.741931  0  3.810135  0  0  0.691636  0  4.118656  0  0  0.726282  0  4.110828  0  0  0.228706  0.66792  0  4.12295  0
C  C53  1  0.23003783  0.96044736  0.20901898  1  0  0.744101  0  3.808548  0  0  0.694085  0  4.11625  0  0  0.728699  0  4.108423  0  0  0.230344  0.670291  0  4.121016  0
C  C54  1  0.39941221  0.53964019  0.29086103  1  0  0.741928  0  3.810194  0  0  0.691553  0  4.118819  0  0  0.726193  0  4.110994  0  0  0.228662  0.667837  0  4.123113  0
C  C55  1  0.76996184  0.03955136  0.79098004  1  0  0.744052  0  3.808577  0  0  0.694031  0  4.116236  0  0  0.728644  0  4.10841  0  0  0.230297  0.670236  0  4.121001  0
O  O56  1  0.14003147  0.55102391  0.79034349  1  0  -0.663716  0  2.012969  0  0  -0.619162  0  2.266402  0  0  -0.65102  0  2.257747  0  0  -0.367408  -0.596376  0  2.272025  0
O  O57  1  0.51865301  0.05117228  0.29030950  1  0  -0.66242  0  2.014773  0  0  -0.618268  0  2.267409  0  0  -0.650226  0  2.258828  0  0  -0.367099  -0.595563  0  2.272905  0
O  O58  1  0.85996344  0.44897840  0.20965837  1  0  -0.663781  0  2.01298  0  0  -0.619239  0  2.266385  0  0  -0.651092  0  2.257739  0  0  -0.367487  -0.596455  0  2.272014  0
O  O59  1  0.48134856  0.94883004  0.70968933  1  0  -0.662457  0  2.014884  0  0  -0.61831  0  2.267521  0  0  -0.650268  0  2.258939  0  0  -0.367091  -0.595601  0  2.27302  0
O  O60  1  0.15776465  0.78952967  0.74755380  1  0  -0.672563  0  2.070545  0  0  -0.620688  0  2.3171  0  0  -0.653031  0  2.308496  0  0  -0.357038  -0.597238  0  2.322043  0
O  O61  1  0.30505884  0.28967081  0.24758509  1  0  -0.671859  0  2.071699  0  0  -0.620371  0  2.317095  0  0  -0.652851  0  2.308626  0  0  -0.35686  -0.596796  0  2.321868  0
O  O62  1  0.84223292  0.21047024  0.25244667  1  0  -0.672575  0  2.070497  0  0  -0.620703  0  2.317017  0  0  -0.653041  0  2.308423  0  0  -0.357029  -0.597253  0  2.321962  0
O  O63  1  0.69494220  0.71033031  0.75241248  1  0  -0.671899  0  2.07175  0  0  -0.620402  0  2.317147  0  0  -0.65288  0  2.308674  0  0  -0.356888  -0.596822  0  2.321921  0
O  O64  1  0.38733720  0.70460016  0.86929609  1  0  -0.651897  0  2.138687  0  0  -0.60449  0  2.377392  0  0  -0.627443  0  2.365813  0  0  -0.427686  -0.587671  0  2.385355  0
O  O65  1  0.03886741  0.20470319  0.36925310  1  0  -0.651391  0  2.140284  0  0  -0.60325  0  2.379273  0  0  -0.626133  0  2.367572  0  0  -0.427052  -0.586295  0  2.386978  0
O  O66  1  0.61266229  0.29540096  0.13070303  1  0  -0.651932  0  2.138687  0  0  -0.604451  0  2.377454  0  0  -0.627409  0  2.365894  0  0  -0.427698  -0.587636  0  2.385422  0
O  O67  1  0.96113186  0.79529673  0.63074688  1  0  -0.651392  0  2.140298  0  0  -0.603246  0  2.379291  0  0  -0.626133  0  2.3676  0  0  -0.427061  -0.58629  0  2.386993  0
O  O68  1  0.04754483  0.83616330  0.99423370  1  0  -0.723272  0  2.041893  0  0  -0.66866  0  2.298193  0  0  -0.706142  0  2.290295  0  0  -0.383065  -0.641418  0  2.302693  0
O  O69  1  0.12211768  0.33613198  0.49432844  1  0  -0.723093  0  2.042313  0  0  -0.669741  0  2.298285  0  0  -0.707239  0  2.290475  0  0  -0.382856  -0.642489  0  2.302687  0
O  O70  1  0.95245466  0.16383782  0.00576542  1  0  -0.723368  0  2.041898  0  0  -0.668759  0  2.298217  0  0  -0.706237  0  2.290321  0  0  -0.38311  -0.641515  0  2.302717  0
O  O71  1  0.87788103  0.66386914  0.50567146  1  0  -0.723088  0  2.042326  0  0  -0.669727  0  2.298339  0  0  -0.707224  0  2.29053  0  0  -0.382864  -0.642474  0  2.302741  0
O  O72  1  0.01517083  0.67574047  0.14795280  1  0  -0.736345  0  2.046095  0  0  -0.68737  0  2.313487  0  0  -0.725077  0  2.303776  0  0  -0.388893  -0.659969  0  2.319493  0
O  O73  1  0.16099812  0.17569235  0.64806028  1  0  -0.736225  0  2.049709  0  0  -0.687791  0  2.316173  0  0  -0.725548  0  2.306522  0  0  -0.389823  -0.660312  0  2.321745  0
O  O74  1  0.98482882  0.32426065  0.85204738  1  0  -0.73641  0  2.046133  0  0  -0.687428  0  2.313523  0  0  -0.725134  0  2.303815  0  0  -0.388887  -0.660028  0  2.319532  0
O  O75  1  0.83900528  0.82430637  0.35193986  1  0  -0.736239  0  2.049737  0  0  -0.68777  0  2.316208  0  0  -0.725526  0  2.306557  0  0  -0.389814  -0.66029  0  2.32178  0
O  O76  1  0.76656610  0.41637343  0.69013914  1  0  -0.697405  0  2.036455  0  0  -0.658476  0  2.309793  0  0  -0.692073  0  2.301518  0  0  -0.393568  -0.633523  0  2.31392  0
O  O77  1  0.12712455  0.91644463  0.18993364  1  0  -0.695933  0  2.035224  0  0  -0.656768  0  2.308345  0  0  -0.69038  0  2.300131  0  0  -0.393177  -0.632223  0  2.313041  0
O  O78  1  0.23343482  0.58362528  0.30986226  1  0  -0.697435  0  2.036519  0  0  -0.658464  0  2.309866  0  0  -0.692062  0  2.301594  0  0  -0.393569  -0.633511  0  2.313991  0
O  O79  1  0.87287417  0.08355649  0.81006625  1  0  -0.695917  0  2.035208  0  0  -0.656756  0  2.30832  0  0  -0.690365  0  2.300099  0  0  -0.393156  -0.632213  0  2.313024  0
O  O80  1  0.51536006  0.52979925  0.63537958  1  0  -0.630815  0  1.996084  0  0  -0.562013  0  2.203489  0  0  -0.588565  0  2.192295  0  0  -0.29408  -0.543568  0  2.210963  0
O  O81  1  0.31961586  0.02984550  0.13531367  1  0  -0.634239  0  1.995182  0  0  -0.565886  0  2.202797  0  0  -0.592554  0  2.191638  0  0  -0.295707  -0.547183  0  2.210272  0
O  O82  1  0.48464204  0.47019826  0.36462008  1  0  -0.630809  0  1.996127  0  0  -0.56198  0  2.203558  0  0  -0.588519  0  2.192357  0  0  -0.294048  -0.543534  0  2.211031  0
O  O83  1  0.68038512  0.97015442  0.86468582  1  0  -0.634204  0  1.995205  0  0  -0.56586  0  2.202815  0  0  -0.592529  0  2.191658  0  0  -0.295686  -0.547158  0  2.21029  0
O  O84  1  0.31078374  0.44866317  0.57454860  1  0  -0.911677  0  1.832837  0  0  -0.864531  0  2.03178  0  0  -0.89298  0  1.996318  0  0  -0.661511  -0.843613  0  2.056453  0
O  O85  1  0.66609935  0.94863858  0.07453503  1  0  -0.91255  0  1.831913  0  0  -0.865559  0  2.029806  0  0  -0.893943  0  1.994279  0  0  -0.662069  -0.844757  0  2.055552  0
O  O86  1  0.68921796  0.55133555  0.42545203  1  0  -0.911657  0  1.832872  0  0  -0.864513  0  2.031815  0  0  -0.892963  0  1.996352  0  0  -0.66149  -0.843593  0  2.056477  0
O  O87  1  0.33390048  0.05136013  0.92546504  1  0  -0.91252  0  1.831952  0  0  -0.86553  0  2.029838  0  0  -0.893914  0  1.994311  0  0  -0.662093  -0.844726  0  2.055585  0
