# generated using pymatgen
data_CdH12C15(N4O3)2
_symmetry_space_group_name_H-M   'P 1'
_cell_length_a   10.67165277
_cell_length_b   11.66528595
_cell_length_c   19.37332126
_cell_angle_alpha   78.60073672
_cell_angle_beta   73.99742584
_cell_angle_gamma   62.80448786
_symmetry_Int_Tables_number   1
_chemical_formula_structural   CdH12C15(N4O3)2
_chemical_formula_sum   'Cd4 H48 C60 N32 O24'
_cell_volume   2054.75184478
_cell_formula_units_Z   4
loop_
 _symmetry_equiv_pos_site_id
 _symmetry_equiv_pos_as_xyz
  1  'x, y, z'
loop_
 _atom_site_type_symbol
 _atom_site_label
 _atom_site_symmetry_multiplicity
 _atom_site_fract_x
 _atom_site_fract_y
 _atom_site_fract_z
 _atom_site_occupancy
 _atom_site_pbe_bader_charge
 _atom_site_pbe_bader_spin_density
 _atom_site_pbe_cm5_charge
 _atom_site_pbe_ddec_charge
 _atom_site_pbe_ddec_spin_density
 _atom_site_pbe_ddec_sum_bond_order
 _atom_site_pbe_magmom
Cd  Cd0  1  0.40487293  0.08082988  0.34093259  1  1.251655  0  0.775879  0.745201  0  2.269525  0
Cd  Cd1  1  0.17351606  0.58059286  0.84099094  1  1.251033  0  0.776012  0.746001  0  2.267101  0
Cd  Cd2  1  0.59513199  0.91916943  0.65906638  1  1.251562  0  0.775864  0.745152  0  2.269644  0
Cd  Cd3  1  0.82648445  0.41940548  0.15900830  1  1.251091  0  0.776014  0.746025  0  2.267098  0
H  H4  1  0.61542167  0.91539553  0.21328171  1  0.144011  0  0.124958  0.108051  0  0.983337  0
H  H5  1  0.25591153  0.41508864  0.71332713  1  0.148883  0  0.124724  0.108171  0  0.984236  0
H  H6  1  0.38457879  0.08460087  0.78671775  1  0.143657  0  0.124955  0.108044  0  0.983351  0
H  H7  1  0.74408795  0.58490777  0.28667197  1  0.148924  0  0.124719  0.108148  0  0.984271  0
H  H8  1  0.62072696  0.79616636  0.11622571  1  0.145169  0  0.112681  0.131397  0  1.031862  0
H  H9  1  0.46686110  0.29553411  0.61631222  1  0.154904  0  0.113047  0.131825  0  1.033614  0
H  H10  1  0.37927163  0.20383392  0.88377310  1  0.145184  0  0.11268  0.131398  0  1.031863  0
H  H11  1  0.53313744  0.70446425  0.38368629  1  0.154977  0  0.11302  0.131811  0  1.033523  0
H  H12  1  0.16619221  0.90144811  0.20192739  1  0.135227  0  0.124303  0.143043  0  0.979124  0
H  H13  1  0.73057728  0.40082804  0.70187568  1  0.14226  0  0.124161  0.142376  0  0.978821  0
H  H14  1  0.83380687  0.09855117  0.79807248  1  0.135279  0  0.124298  0.143032  0  0.979136  0
H  H15  1  0.26942180  0.59917324  0.29812190  1  0.14231  0  0.124172  0.142395  0  0.978787  0
H  H16  1  0.17737531  0.01744804  0.29372039  1  0.141598  0  0.11553  0.090733  0  1.032525  0
H  H17  1  0.51172942  0.51703972  0.79364913  1  0.145394  0  0.115966  0.090881  0  1.032926  0
H  H18  1  0.82262523  0.98255025  0.70628040  1  0.141584  0  0.115567  0.090783  0  1.032568  0
H  H19  1  0.48827005  0.48295671  0.20634945  1  0.145337  0  0.115955  0.090879  0  1.03286  0
H  H20  1  0.33797535  0.85796808  0.66140159  1  0.135967  0  0.119346  0.098974  0  1.025635  0
H  H21  1  0.14265836  0.35804041  0.16140962  1  0.158943  0  0.119386  0.099098  0  1.026235  0
H  H22  1  0.66202484  0.14203703  0.33859746  1  0.13599  0  0.119354  0.098956  0  1.025628  0
H  H23  1  0.85733881  0.64196082  0.83858981  1  0.158955  0  0.119387  0.099103  0  1.026215  0
H  H24  1  0.27685864  0.70914985  0.61255645  1  0.107208  0  0.113886  0.12607  0  1.020249  0
H  H25  1  0.40133990  0.20934956  0.11256517  1  0.11718  0  0.114209  0.126575  0  1.019971  0
H  H26  1  0.72314009  0.29085424  0.38744449  1  0.107203  0  0.113888  0.126062  0  1.020263  0
H  H27  1  0.59865873  0.79065068  0.88743518  1  0.117166  0  0.114205  0.126534  0  1.020023  0
H  H28  1  0.71447456  0.55072465  0.48928105  1  0.111163  0  0.116847  0.12827  0  1.004151  0
H  H29  1  0.24554600  0.05061246  0.98940238  1  0.136952  0  0.116996  0.128971  0  1.003577  0
H  H30  1  0.28552457  0.44927656  0.51071911  1  0.111134  0  0.116875  0.128316  0  1.004127  0
H  H31  1  0.75445646  0.94938587  0.01059708  1  0.136957  0  0.117026  0.128992  0  1.00363  0
H  H32  1  0.75839525  0.70366106  0.54268993  1  0.11008  0  0.118116  0.088486  0  0.996507  0
H  H33  1  0.99540339  0.20348859  0.04277713  1  0.101264  0  0.118128  0.088088  0  0.995544  0
H  H34  1  0.24160389  0.29634015  0.45731024  1  0.110077  0  0.118124  0.088472  0  0.996517  0
H  H35  1  0.00459804  0.79650781  0.95722219  1  0.1014  0  0.118079  0.088024  0  0.995546  0
H  H36  1  0.31368175  0.97473828  0.50035949  1  0.134056  0  0.116538  0.097452  0  1.011841  0
H  H37  1  0.21158264  0.47442982  0.00038638  1  0.134847  0  0.116125  0.096754  0  1.011527  0
H  H38  1  0.68632373  0.02526193  0.49964187  1  0.134139  0  0.116543  0.097472  0  1.011861  0
H  H39  1  0.78840644  0.52557812  0.99961510  1  0.135279  0  0.116122  0.096723  0  1.011659  0
H  H40  1  0.11000749  0.04519221  0.60926009  1  0.180342  0  0.119955  0.146441  0  1.017478  0
H  H41  1  0.23524177  0.54536244  0.10932364  1  0.179401  0  0.119951  0.147141  0  1.016872  0
H  H42  1  0.88999500  0.95480610  0.39074040  1  0.180365  0  0.119912  0.146389  0  1.017519  0
H  H43  1  0.76474633  0.45464549  0.89067798  1  0.179416  0  0.119951  0.147217  0  1.01681  0
H  H44  1  0.84141382  0.31774942  0.46557319  1  0.124914  0  0.11112  0.114687  0  1.047205  0
H  H45  1  0.37516463  0.81794749  0.96560416  1  0.114091  0  0.111154  0.114751  0  1.047385  0
H  H46  1  0.15859053  0.68224701  0.53442516  1  0.124872  0  0.111143  0.114728  0  1.047181  0
H  H47  1  0.62484164  0.18204698  0.03439514  1  0.113966  0  0.111104  0.114729  0  1.047438  0
H  H48  1  0.05561889  0.24114171  0.36284056  1  0.175015  0  0.118642  0.104198  0  1.016437  0
H  H49  1  0.34061353  0.74110509  0.86285289  1  0.172367  0  0.118566  0.104141  0  1.016561  0
H  H50  1  0.94438850  0.75885855  0.63715896  1  0.175083  0  0.118638  0.104165  0  1.016361  0
H  H51  1  0.65939033  0.25889034  0.13714668  1  0.172298  0  0.11857  0.104145  0  1.016543  0
C  C52  1  0.51876223  0.90996903  0.20860599  1  0.443987  0  0.048382  0.09964  0  3.922165  0
C  C53  1  0.36272044  0.40957387  0.70862613  1  0.501438  0  0.047987  0.097636  0  3.925144  0
C  C54  1  0.48123830  0.09002927  0.79139429  1  0.444321  0  0.048366  0.099644  0  3.922237  0
C  C55  1  0.63727905  0.59042253  0.29137349  1  0.501276  0  0.047956  0.097644  0  3.925135  0
C  C56  1  0.52176283  0.84447831  0.15518418  1  0.020015  0  -0.075177  -0.177335  0  3.90085  0
C  C57  1  0.47856411  0.34391339  0.65523249  1  -0.036253  0  -0.074649  -0.175412  0  3.904201  0
C  C58  1  0.47823768  0.15552003  0.84481507  1  0.020031  0  -0.075149  -0.177308  0  3.900914  0
C  C59  1  0.52143490  0.65608400  0.34476606  1  -0.036292  0  -0.074633  -0.175386  0  3.904207  0
C  C60  1  0.39447505  0.83937851  0.15285201  1  0.29318  0  0.103442  0.191693  0  4.036334  0
C  C61  1  0.61329825  0.33875278  0.65289777  1  0.285859  0  0.102656  0.190169  0  4.036835  0
C  C62  1  0.60552597  0.16062078  0.84714756  1  0.293193  0  0.10339  0.191583  0  4.036351  0
C  C63  1  0.38670174  0.66124460  0.34710114  1  0.285905  0  0.102728  0.190317  0  4.036888  0
C  C64  1  0.26738559  0.90211809  0.20303412  1  0.018638  0  -0.070102  -0.182313  0  3.899122  0
C  C65  1  0.62757351  0.40154719  0.70301811  1  0.020613  0  -0.070463  -0.181432  0  3.897071  0
C  C66  1  0.73261443  0.09787925  0.79696634  1  0.018518  0  -0.070117  -0.182268  0  3.899159  0
C  C67  1  0.37242602  0.59845314  0.29697899  1  0.020453  0  -0.070556  -0.181613  0  3.897169  0
C  C68  1  0.27397028  0.96686917  0.25398607  1  0.451967  0  0.043727  0.097542  0  3.935874  0
C  C69  1  0.50536459  0.46643640  0.75393792  1  0.434077  0  0.04385  0.097513  0  3.934553  0
C  C70  1  0.72603169  0.03312818  0.74601409  1  0.45236  0  0.043703  0.097474  0  3.93598  0
C  C71  1  0.49463493  0.53356195  0.24606096  1  0.434277  0  0.043864  0.097582  0  3.934544  0
C  C72  1  0.41769545  0.78839230  0.62327722  1  0.484676  0  0.046192  0.097765  0  3.918694  0
C  C73  1  0.17065201  0.28838864  0.12332772  1  0.463569  0  0.046157  0.096452  0  3.919538  0
C  C74  1  0.58230425  0.21161181  0.37672305  1  0.484698  0  0.046198  0.097824  0  3.918692  0
C  C75  1  0.82934901  0.71161067  0.87667134  1  0.46356  0  0.046172  0.096474  0  3.919505  0
C  C76  1  0.38426370  0.70625800  0.59634022  1  0.017218  0  -0.072028  -0.171662  0  3.888611  0
C  C77  1  0.31312018  0.20626624  0.09638915  1  -0.000554  0  -0.072772  -0.171337  0  3.890018  0
C  C78  1  0.61573500  0.29374413  0.40366146  1  0.017217  0  -0.072062  -0.171664  0  3.888738  0
C  C79  1  0.68687705  0.79373690  0.90361109  1  -0.00058  0  -0.072754  -0.17129  0  3.889883  0
C  C80  1  0.49165314  0.61868704  0.54780454  1  0.279692  0  0.103062  0.192982  0  4.032756  0
C  C81  1  0.34190990  0.11868518  0.04783850  1  0.283135  0  0.103258  0.191488  0  4.034078  0
C  C82  1  0.50834508  0.38131609  0.45219606  1  0.279715  0  0.103097  0.192965  0  4.032849  0
C  C83  1  0.65809068  0.88131505  0.95216207  1  0.283612  0  0.103248  0.191534  0  4.033994  0
C  C84  1  0.62945824  0.61594678  0.52788718  1  0.041724  0  -0.072173  -0.175492  0  3.919138  0
C  C85  1  0.22677005  0.11584755  0.02799032  1  0.04195  0  -0.072305  -0.176183  0  3.917387  0
C  C86  1  0.37053993  0.38405441  0.47211365  1  0.041684  0  -0.07226  -0.175603  0  3.919189  0
C  C87  1  0.77322858  0.88415269  0.97201003  1  0.041474  0  -0.072334  -0.176293  0  3.917441  0
C  C88  1  0.65333313  0.70146348  0.55728327  1  0.505006  0  0.051231  0.112531  0  3.948036  0
C  C89  1  0.08798992  0.20135336  0.05739237  1  0.491653  0  0.051673  0.113754  0  3.946037  0
C  C90  1  0.34666748  0.29853870  0.44271655  1  0.50502  0  0.051299  0.112631  0  3.947988  0
C  C91  1  0.91201107  0.79864398  0.94260794  1  0.491224  0  0.051717  0.11387  0  3.946033  0
C  C92  1  0.24774163  0.54991342  0.99521827  1  0.442309  0  0.046105  0.095689  0  3.924409  0
C  C93  1  0.20716216  0.04998502  0.49518963  1  0.430828  0  0.045708  0.094901  0  3.927238  0
C  C94  1  0.75225075  0.45008969  0.00478324  1  0.44227  0  0.046106  0.095648  0  3.924782  0
C  C95  1  0.79284085  0.95001423  0.50481171  1  0.430653  0  0.045755  0.094922  0  3.92702  0
C  C96  1  0.26082572  0.58867086  0.05528941  1  0.00703  0  -0.066738  -0.166678  0  3.874603  0
C  C97  1  0.09515779  0.08850428  0.55524329  1  0.032971  0  -0.066437  -0.165378  0  3.878138  0
C  C98  1  0.73916576  0.41133613  0.94471129  1  0.006722  0  -0.06673  -0.166654  0  3.874688  0
C  C99  1  0.90484812  0.91149501  0.44475656  1  0.032936  0  -0.066374  -0.165331  0  3.877931  0
C  C100  1  0.30808637  0.68590026  0.04453578  1  0.305031  0  0.108851  0.203461  0  4.00894  0
C  C101  1  0.96141552  0.18558922  0.54450222  1  0.308023  0  0.108039  0.201602  0  4.010584  0
C  C102  1  0.69190886  0.31410094  0.95546447  1  0.305177  0  0.108864  0.203378  0  4.009082  0
C  C103  1  0.03858696  0.81440910  0.45549775  1  0.307977  0  0.108027  0.201723  0  4.010448  0
C  C104  1  0.94467682  0.24110945  0.47457498  1  -0.020493  0  -0.075075  -0.185955  0  3.904109  0
C  C105  1  0.33950421  0.74129586  0.97459515  1  0.001141  0  -0.075227  -0.186412  0  3.902161  0
C  C106  1  0.05532904  0.75888791  0.52542458  1  -0.020539  0  -0.07508  -0.186097  0  3.904126  0
C  C107  1  0.66049681  0.25870343  0.02540442  1  0.001347  0  -0.075219  -0.186456  0  3.902344  0
C  C108  1  0.06340494  0.19887879  0.41787842  1  0.430121  0  0.047491  0.101371  0  3.926827  0
C  C109  1  0.31988292  0.69893288  0.91789964  1  0.453085  0  0.048094  0.102131  0  3.925777  0
C  C110  1  0.93660051  0.80112147  0.58212140  1  0.430073  0  0.047579  0.101575  0  3.926715  0
C  C111  1  0.68011617  0.30106639  0.08210074  1  0.453111  0  0.048147  0.102243  0  3.92564  0
N  N112  1  0.65680097  0.85753166  0.37642264  1  0.809678  0  0.091011  0.708379  0  4.406908  0
N  N113  1  0.10963816  0.35703547  0.87621931  1  0.813229  0  0.091673  0.708535  0  4.408961  0
N  N114  1  0.34319960  0.14246859  0.62357741  1  0.809667  0  0.090988  0.708367  0  4.406852  0
N  N115  1  0.89036098  0.64296574  0.12378086  1  0.813234  0  0.091641  0.708461  0  4.409076  0
N  N116  1  0.35980598  0.30301884  0.23456712  1  0.816584  0  0.089221  0.705462  0  4.418427  0
N  N117  1  0.10259856  0.80278810  0.73473967  1  0.8005  0  0.08873  0.704531  0  4.423746  0
N  N118  1  0.64019557  0.69698141  0.76543278  1  0.816586  0  0.089184  0.705433  0  4.418544  0
N  N119  1  0.89740102  0.19721216  0.26526002  1  0.800505  0  0.088771  0.704628  0  4.423727  0
N  N120  1  0.39694963  0.97042369  0.25695568  1  -1.225286  0  -0.330807  -0.234322  0  3.524209  0
N  N121  1  0.37582425  0.47005605  0.75693884  1  -1.221359  0  -0.330425  -0.233124  0  3.521515  0
N  N122  1  0.60305234  0.02957366  0.74304448  1  -1.225626  0  -0.330809  -0.234302  0  3.52425  0
N  N123  1  0.62417472  0.52993939  0.24306045  1  -1.22143  0  -0.330344  -0.233107  0  3.521437  0
N  N124  1  0.55011412  0.78600890  0.60385770  1  -1.218851  0  -0.327731  -0.227206  0  3.507409  0
N  N125  1  0.06003782  0.28600640  0.10392206  1  -1.225846  0  -0.327843  -0.226832  0  3.504188  0
N  N126  1  0.44988599  0.21399231  0.39614231  1  -1.218802  0  -0.327758  -0.227276  0  3.507366  0
N  N127  1  0.93996033  0.71399482  0.89607774  1  -1.225536  0  -0.32783  -0.226853  0  3.504334  0
N  N128  1  0.45046858  0.53764432  0.52258017  1  -0.444066  0  -0.131154  -0.121845  0  3.294196  0
N  N129  1  0.48933504  0.03763897  0.02257742  1  -0.431655  0  -0.131461  -0.121838  0  3.292818  0
N  N130  1  0.54952964  0.46235879  0.47742096  1  -0.471401  0  -0.131215  -0.121923  0  3.294297  0
N  N131  1  0.51066604  0.96236225  0.97742245  1  -0.47322  0  -0.131398  -0.121704  0  3.292684  0
N  N132  1  0.27403902  0.60515781  0.92802865  1  -1.245344  0  -0.330067  -0.242783  0  3.485676  0
N  N133  1  0.19286765  0.10521691  0.42800648  1  -1.243019  0  -0.329752  -0.24219  0  3.484556  0
N  N134  1  0.72595677  0.39484629  0.07197170  1  -1.245658  0  -0.330129  -0.242858  0  3.485673  0
N  N135  1  0.80713874  0.89478138  0.57199444  1  -1.242718  0  -0.329889  -0.242383  0  3.484729  0
N  N136  1  0.31264239  0.72983870  0.10667323  1  -0.396856  0  -0.113024  -0.081901  0  3.187169  0
N  N137  1  0.85080058  0.22932637  0.60666260  1  -0.386651  0  -0.112295  -0.079797  0  3.184419  0
N  N138  1  0.68735623  0.27016155  0.89332660  1  -0.396828  0  -0.112965  -0.081802  0  3.187199  0
N  N139  1  0.14920045  0.77067293  0.39333697  1  -0.386668  0  -0.11225  -0.079754  0  3.184374  0
N  N140  1  0.40040480  0.77946672  0.09468574  1  -0.457071  0  -0.119723  -0.092977  0  3.247354  0
N  N141  1  0.72541349  0.27884076  0.59472292  1  -0.465061  0  -0.119925  -0.09437  0  3.244569  0
N  N142  1  0.59959285  0.22053353  0.90531425  1  -0.457104  0  -0.119721  -0.092959  0  3.247299  0
N  N143  1  0.27458698  0.72115564  0.40527655  1  -0.465027  0  -0.119997  -0.094517  0  3.24472  0
O  O144  1  0.66778094  0.93980060  0.32319707  1  -0.551536  0  -0.200873  -0.443393  0  1.968915  0
O  O145  1  0.06972420  0.43906628  0.82293272  1  -0.553117  0  -0.20009  -0.442072  0  1.966745  0
O  O146  1  0.33221814  0.06019868  0.67680280  1  -0.551527  0  -0.200888  -0.443421  0  1.968903  0
O  O147  1  0.93027586  0.56093300  0.17706752  1  -0.553133  0  -0.200084  -0.442065  0  1.966744  0
O  O148  1  0.52958320  0.88178795  0.41626527  1  -0.594516  0  -0.219716  -0.483869  0  1.992629  0
O  O149  1  0.17257525  0.38163755  0.91602034  1  -0.596614  0  -0.220572  -0.484202  0  1.99431  0
O  O150  1  0.47041830  0.11821036  0.58373486  1  -0.594529  0  -0.219683  -0.483813  0  1.992523  0
O  O151  1  0.82742582  0.61836369  0.08397901  1  -0.596598  0  -0.220545  -0.484162  0  1.994353  0
O  O152  1  0.09028475  0.25709882  0.88918732  1  -0.478476  0  -0.174462  -0.403983  0  1.898814  0
O  O153  1  0.76325765  0.75768256  0.38923858  1  -0.479803  0  -0.173707  -0.402999  0  1.89772  0
O  O154  1  0.90971389  0.74290141  0.11081355  1  -0.478482  0  -0.174466  -0.403958  0  1.898861  0
O  O155  1  0.23674487  0.24231770  0.61076117  1  -0.479774  0  -0.173701  -0.403002  0  1.897782  0
O  O156  1  0.48482487  0.20753917  0.23054282  1  -0.563794  0  -0.202512  -0.452407  0  1.962514  0
O  O157  1  0.07740428  0.70709003  0.73067885  1  -0.558699  0  -0.203515  -0.453428  0  1.964088  0
O  O158  1  0.51517724  0.79246398  0.76945719  1  -0.563773  0  -0.202541  -0.452467  0  1.962633  0
O  O159  1  0.92259630  0.29291022  0.26932120  1  -0.55871  0  -0.203527  -0.453466  0  1.964062  0
O  O160  1  0.25436832  0.29450732  0.28273615  1  -0.557166  0  -0.207136  -0.45403  0  1.970799  0
O  O161  1  0.16830771  0.79444367  0.78288031  1  -0.552762  0  -0.206061  -0.453342  0  1.973103  0
O  O162  1  0.74563461  0.70549005  0.71726334  1  -0.55721  0  -0.207078  -0.453945  0  1.970769  0
O  O163  1  0.83169286  0.20555657  0.21711974  1  -0.552742  0  -0.206103  -0.453398  0  1.973147  0
O  O164  1  0.06419738  0.90191221  0.69191565  1  -0.518331  0  -0.178228  -0.431722  0  1.987583  0
O  O165  1  0.34175775  0.40210780  0.19168331  1  -0.52523  0  -0.178558  -0.432785  0  1.985686  0
O  O166  1  0.93580125  0.09808803  0.30808470  1  -0.518328  0  -0.178211  -0.431721  0  1.987552  0
O  O167  1  0.65824182  0.59789248  0.80831586  1  -0.525207  0  -0.178549  -0.432788  0  1.985724  0
