# generated using pymatgen
data_LiH13C11N4O
_symmetry_space_group_name_H-M   'P 1'
_cell_length_a   7.95665243
_cell_length_b   8.78731991
_cell_length_c   9.25706362
_cell_angle_alpha   61.66471974
_cell_angle_beta   87.98779145
_cell_angle_gamma   85.75711184
_symmetry_Int_Tables_number   1
_chemical_formula_structural   LiH13C11N4O
_chemical_formula_sum   'Li2 H26 C22 N8 O2'
_cell_volume   568.12289972
_cell_formula_units_Z   2
loop_
 _symmetry_equiv_pos_site_id
 _symmetry_equiv_pos_as_xyz
  1  'x, y, z'
loop_
 _atom_site_type_symbol
 _atom_site_label
 _atom_site_symmetry_multiplicity
 _atom_site_fract_x
 _atom_site_fract_y
 _atom_site_fract_z
 _atom_site_occupancy
 _atom_site_hle17_bader_spin_density
 _atom_site_hle17_ddec_charge
 _atom_site_hle17_ddec_spin_density
 _atom_site_hle17_ddec_sum_bond_order
 _atom_site_hle17_magmom
 _atom_site_hse06_10hf_bader_spin_density
 _atom_site_hse06_10hf_ddec_charge
 _atom_site_hse06_10hf_ddec_spin_density
 _atom_site_hse06_10hf_ddec_sum_bond_order
 _atom_site_hse06_10hf_magmom
 _atom_site_hse06_bader_spin_density
 _atom_site_hse06_ddec_charge
 _atom_site_hse06_ddec_spin_density
 _atom_site_hse06_ddec_sum_bond_order
 _atom_site_hse06_magmom
 _atom_site_pbe_bader_spin_density
 _atom_site_pbe_cm5_charge
 _atom_site_pbe_ddec_charge
 _atom_site_pbe_ddec_spin_density
 _atom_site_pbe_ddec_sum_bond_order
 _atom_site_pbe_magmom
Li  Li0  1  0.86073859  0.02273319  0.13660396  1  0  0.767957  0  0.529357  0  0  0.685644  0  0.696515  0  0  0.697982  0  0.678663  0  0  0.530136  0.677021  0  0.708838  0
Li  Li1  1  0.36074611  0.15934053  0.86338600  1  0  0.767952  0  0.529334  0  0  0.6856  0  0.696546  0  0  0.697937  0  0.678697  0  0  0.530124  0.677009  0  0.708847  0
H  H2  1  0.57975982  0.95774485  0.41767892  1  0  0.061867  0  0.966794  0  0  0.071008  0  1.033497  0  0  0.073201  0  1.032189  0  0  0.110394  0.069494  0  1.034425  0
H  H3  1  0.07976531  0.37542642  0.58231305  1  0  0.061979  0  0.966767  0  0  0.071089  0  1.033484  0  0  0.07328  0  1.032179  0  0  0.110445  0.069576  0  1.034408  0
H  H4  1  0.56888819  0.98738253  0.67333878  1  0  0.105221  0  0.982019  0  0  0.111585  0  1.051651  0  0  0.116045  0  1.048557  0  0  0.105205  0.108406  0  1.053877  0
H  H5  1  0.06888159  0.66072969  0.32665731  1  0  0.105098  0  0.98208  0  0  0.111491  0  1.051679  0  0  0.11595  0  1.048587  0  0  0.10516  0.108311  0  1.053909  0
H  H6  1  0.83365949  0.06224016  0.76202530  1  0  0.095217  0  0.970618  0  0  0.10479  0  1.032834  0  0  0.106673  0  1.032762  0  0  0.110164  0.103036  0  1.033411  0
H  H7  1  0.33365244  0.82427417  0.23796782  1  0  0.095234  0  0.97066  0  0  0.104752  0  1.032928  0  0  0.106657  0  1.032826  0  0  0.110155  0.102999  0  1.033505  0
H  H8  1  0.09283901  0.10342565  0.59102507  1  0  0.107005  0  0.964325  0  0  0.11879  0  1.023939  0  0  0.122132  0  1.022901  0  0  0.108268  0.116426  0  1.024686  0
H  H9  1  0.59283175  0.69446929  0.40896762  1  0  0.107068  0  0.96421  0  0  0.118802  0  1.023866  0  0  0.122122  0  1.022862  0  0  0.108225  0.116437  0  1.024617  0
H  H10  1  0.32356099  0.16258399  0.41248388  1  0  0.11514  0  0.973673  0  0  0.127084  0  1.032367  0  0  0.130207  0  1.03176  0  0  0.099669  0.124679  0  1.03343  0
H  H11  1  0.82355772  0.57509210  0.58752177  1  0  0.115066  0  0.973671  0  0  0.126962  0  1.032434  0  0  0.130086  0  1.031826  0  0  0.09962  0.124557  0  1.033497  0
H  H12  1  0.48527439  0.20088657  0.12889621  1  0  0.085645  0  0.982176  0  0  0.092471  0  1.052031  0  0  0.095366  0  1.04993  0  0  0.116235  0.090389  0  1.053592  0
H  H13  1  0.98527513  0.32979901  0.87110302  1  0  0.085624  0  0.982217  0  0  0.092418  0  1.052138  0  0  0.095311  0  1.050041  0  0  0.11626  0.090336  0  1.053697  0
H  H14  1  0.64908675  0.86728329  0.97978293  1  0  0.04403  0  0.933798  0  0  0.050477  0  1.008786  0  0  0.052597  0  1.003618  0  0  0.134453  0.049138  0  1.011909  0
H  H15  1  0.14909939  0.84706508  0.02021953  1  0  0.044005  0  0.933714  0  0  0.050417  0  1.008753  0  0  0.052536  0  1.003589  0  0  0.134442  0.049078  0  1.011874  0
H  H16  1  0.45671214  0.51203835  0.07905908  1  0  0.100382  0  0.939301  0  0  0.119375  0  1.002792  0  0  0.119966  0  1.003214  0  0  0.103746  0.11901  0  1.00241  0
H  H17  1  0.95670958  0.59109689  0.92094800  1  0  0.100387  0  0.93936  0  0  0.119366  0  1.002874  0  0  0.119957  0  1.003296  0  0  0.103708  0.119002  0  1.002491  0
H  H18  1  0.53267499  0.70138674  0.90841235  1  0  0.099646  0  0.972301  0  0  0.117635  0  1.041285  0  0  0.11804  0  1.041881  0  0  0.108671  0.117206  0  1.041157  0
H  H19  1  0.03267759  0.60980036  0.09159303  1  0  0.099654  0  0.972244  0  0  0.117648  0  1.041224  0  0  0.118053  0  1.041818  0  0  0.108676  0.117219  0  1.041092  0
H  H20  1  0.63825117  0.49361968  0.96784644  1  0  0.111469  0  0.950205  0  0  0.128119  0  1.016604  0  0  0.128392  0  1.018234  0  0  0.106977  0.127647  0  1.015917  0
H  H21  1  0.13824862  0.46145927  0.03216438  1  0  0.111455  0  0.950147  0  0  0.128148  0  1.016499  0  0  0.128422  0  1.018129  0  0  0.106978  0.127676  0  1.015816  0
H  H22  1  0.82515711  0.36889161  0.22329771  1  0  0.103008  0  0.946885  0  0  0.124  0  1.008013  0  0  0.123811  0  1.009772  0  0  0.109908  0.124273  0  1.006552  0
H  H23  1  0.32516619  0.59217708  0.77671708  1  0  0.10299  0  0.946919  0  0  0.123966  0  1.008088  0  0  0.12378  0  1.009822  0  0  0.109918  0.12424  0  1.006624  0
H  H24  1  0.64195202  0.37230204  0.33819111  1  0  0.10222  0  0.933376  0  0  0.12403  0  0.993094  0  0  0.123553  0  0.99535  0  0  0.106254  0.123863  0  0.992269  0
H  H25  1  0.14196456  0.71048359  0.66181309  1  0  0.102258  0  0.933233  0  0  0.124045  0  0.992999  0  0  0.123572  0  0.995245  0  0  0.106233  0.123871  0  0.992181  0
H  H26  1  0.81853097  0.48649345  0.33776134  1  0  0.110797  0  0.94944  0  0  0.129259  0  1.014724  0  0  0.130131  0  1.014803  0  0  0.110754  0.128262  0  1.015239  0
H  H27  1  0.31854042  0.82424142  0.66225337  1  0  0.110726  0  0.949504  0  0  0.129225  0  1.014753  0  0  0.130096  0  1.014834  0  0  0.1107  0.128215  0  1.015282  0
C  C28  1  0.69165125  0.98924534  0.46043986  1  0  0.133715  0  3.766363  0  0  0.109346  0  4.016155  0  0  0.116241  0  4.032527  0  0  0.044539  0.104819  0  4.005348  0
C  C29  1  0.19165224  0.44969399  0.53955178  1  0  0.13345  0  3.76655  0  0  0.109106  0  4.016338  0  0  0.115997  0  4.032712  0  0  0.044438  0.104578  0  4.005532  0
C  C30  1  0.68587231  0.00427208  0.60388478  1  0  -0.158574  0  3.748808  0  0  -0.169733  0  3.998503  0  0  -0.1767  0  4.018582  0  0  -0.098261  -0.165068  0  3.984952  0
C  C31  1  0.18586923  0.60816722  0.39610842  1  0  -0.158298  0  3.748902  0  0  -0.169459  0  3.998549  0  0  -0.176426  0  4.018637  0  0  -0.098177  -0.1648  0  3.985001  0
C  C32  1  0.83262745  0.04616626  0.65222829  1  0  -0.0057  0  3.739296  0  0  -0.022676  0  3.985348  0  0  -0.018572  0  4.00477  0  0  -0.071599  -0.0249  0  3.971853  0
C  C33  1  0.33262224  0.69840749  0.34776633  1  0  -0.005712  0  3.739425  0  0  -0.022678  0  3.985497  0  0  -0.018587  0  4.0049  0  0  -0.07155  -0.024902  0  3.972001  0
C  C34  1  0.97644902  0.07163771  0.55598108  1  0  -0.164066  0  3.701998  0  0  -0.179096  0  3.942887  0  0  -0.186385  0  3.962547  0  0  -0.089371  -0.174122  0  3.929603  0
C  C35  1  0.47644579  0.62763414  0.44401165  1  0  -0.164097  0  3.701778  0  0  -0.179063  0  3.942644  0  0  -0.186341  0  3.962329  0  0  -0.089331  -0.174089  0  3.929356  0
C  C36  1  0.97083328  0.05883095  0.41044691  1  0  0.201123  0  3.814069  0  0  0.203888  0  4.048762  0  0  0.212966  0  4.065537  0  0  0.121032  0.197554  0  4.037473  0
C  C37  1  0.47083382  0.46929290  0.58954746  1  0  0.201108  0  3.814152  0  0  0.203803  0  4.048811  0  0  0.212882  0  4.065586  0  0  0.121016  0.197471  0  4.037517  0
C  C38  1  0.11448490  0.09565677  0.29958683  1  0  0.080564  0  3.88027  0  0  0.078206  0  4.131724  0  0  0.080165  0  4.154829  0  0  0.064641  0.077205  0  4.116156  0
C  C39  1  0.61448808  0.39526488  0.70041000  1  0  0.080459  0  3.880362  0  0  0.078322  0  4.131521  0  0  0.080283  0  4.154623  0  0  0.064762  0.077319  0  4.115952  0
C  C40  1  0.27531666  0.14477734  0.31366897  1  0  -0.262996  0  3.798662  0  0  -0.281083  0  4.05363  0  0  -0.289296  0  4.076061  0  0  -0.134577  -0.275497  0  4.039321  0
C  C41  1  0.77531668  0.45846654  0.68633124  1  0  -0.26273  0  3.798688  0  0  -0.28083  0  4.053592  0  0  -0.289043  0  4.076021  0  0  -0.134525  -0.275244  0  4.039281  0
C  C42  1  0.35747508  0.16631326  0.17025189  1  0  -0.006689  0  3.851718  0  0  -0.036843  0  4.124395  0  0  -0.032781  0  4.141957  0  0  -0.013447  -0.039467  0  4.112137  0
C  C43  1  0.85747720  0.33658218  0.82974611  1  0  -0.006594  0  3.851665  0  0  -0.036743  0  4.124344  0  0  -0.03268  0  4.141901  0  0  -0.01341  -0.039368  0  4.11208  0
C  C44  1  0.71358799  0.76231625  0.08938938  1  0  0.395325  0  3.830215  0  0  0.323096  0  4.118375  0  0  0.350711  0  4.117883  0  0  0.184963  0.305022  0  4.11697  0
C  C45  1  0.21360615  0.85170651  0.91061082  1  0  0.395416  0  3.830358  0  0  0.323196  0  4.118546  0  0  0.350808  0  4.118059  0  0  0.185022  0.305126  0  4.117139  0
C  C46  1  0.56970693  0.57607048  0.01301491  1  0  -0.180463  0  3.649956  0  0  -0.281269  0  3.898033  0  0  -0.277799  0  3.908635  0  0  -0.132252  -0.283392  0  3.890788  0
C  C47  1  0.06970759  0.58908332  0.98699215  1  0  -0.180472  0  3.649941  0  0  -0.281313  0  3.89801  0  0  -0.277846  0  3.908613  0  0  -0.132247  -0.283434  0  3.890764  0
C  C48  1  0.74513060  0.44895014  0.26352243  1  0  -0.172773  0  3.648109  0  0  -0.273573  0  3.893342  0  0  -0.270418  0  3.905406  0  0  -0.133634  -0.275873  0  3.88558  0
C  C49  1  0.24513697  0.71246109  0.73648776  1  0  -0.172688  0  3.648154  0  0  -0.273505  0  3.893339  0  0  -0.270337  0  3.905403  0  0  -0.133574  -0.275788  0  3.88559  0
N  N50  1  0.82845159  0.01673003  0.36432378  1  0  -0.43883  0  3.147181  0  0  -0.387254  0  3.405537  0  0  -0.399003  0  3.417215  0  0  -0.390351  -0.379555  0  3.397518  0
N  N51  1  0.32845299  0.38106519  0.63566934  1  0  -0.438817  0  3.147338  0  0  -0.387226  0  3.405697  0  0  -0.398976  0  3.417377  0  0  -0.390375  -0.379539  0  3.39767  0
N  N52  1  0.10338420  0.08937575  0.15565508  1  0  -0.367314  0  3.110395  0  0  -0.325688  0  3.390196  0  0  -0.334949  0  3.406567  0  0  -0.31562  -0.319343  0  3.378534  0
N  N53  1  0.60338878  0.24504434  0.84433605  1  0  -0.367347  0  3.11012  0  0  -0.325795  0  3.389953  0  0  -0.335058  0  3.406324  0  0  -0.315726  -0.319461  0  3.378283  0
N  N54  1  0.75314116  0.20944563  0.92388367  1  0  -0.36375  0  3.18544  0  0  -0.317986  0  3.475693  0  0  -0.327927  0  3.491544  0  0  -0.340132  -0.310534  0  3.464052  0
N  N55  1  0.25313783  0.13332536  0.07611039  1  0  -0.363603  0  3.185337  0  0  -0.317803  0  3.47554  0  0  -0.327746  0  3.491397  0  0  -0.340044  -0.310366  0  3.463891  0
N  N56  1  0.67652743  0.60313773  0.12174085  1  0  -0.094255  0  3.533615  0  0  0.011591  0  3.762587  0  0  -0.008622  0  3.788666  0  0  -0.284445  0.025078  0  3.744027  0
N  N57  1  0.17653159  0.72487096  0.87826661  1  0  -0.094416  0  3.533746  0  0  0.011456  0  3.762685  0  0  -0.008762  0  3.788769  0  0  -0.284458  0.024946  0  3.744116  0
O  O58  1  0.81173678  0.79421026  0.17313312  1  0  -0.60507  0  2.052419  0  0  -0.555318  0  2.310532  0  0  -0.575851  0  2.300752  0  0  -0.372383  -0.540894  0  2.316501  0
O  O59  1  0.31174808  0.96732828  0.82687546  1  0  -0.605008  0  2.052769  0  0  -0.55527  0  2.310934  0  0  -0.575801  0  2.301162  0  0  -0.372403  -0.540859  0  2.316885  0
