# generated using pymatgen
data_BaH8(C3O4)2
_symmetry_space_group_name_H-M   'P 1'
_cell_length_a   4.67596258
_cell_length_b   11.50445497
_cell_length_c   15.58453667
_cell_angle_alpha   89.99999074
_cell_angle_beta   89.99996669
_cell_angle_gamma   89.99995561
_symmetry_Int_Tables_number   1
_chemical_formula_structural   BaH8(C3O4)2
_chemical_formula_sum   'Ba4 H32 C24 O32'
_cell_volume   838.36081445
_cell_formula_units_Z   4
loop_
 _symmetry_equiv_pos_site_id
 _symmetry_equiv_pos_as_xyz
  1  'x, y, z'
loop_
 _atom_site_type_symbol
 _atom_site_label
 _atom_site_symmetry_multiplicity
 _atom_site_fract_x
 _atom_site_fract_y
 _atom_site_fract_z
 _atom_site_occupancy
 _atom_site_hle17_bader_spin_density
 _atom_site_hle17_ddec_charge
 _atom_site_hle17_ddec_spin_density
 _atom_site_hle17_ddec_sum_bond_order
 _atom_site_hle17_magmom
 _atom_site_hse06_10hf_bader_spin_density
 _atom_site_hse06_10hf_ddec_charge
 _atom_site_hse06_10hf_ddec_spin_density
 _atom_site_hse06_10hf_ddec_sum_bond_order
 _atom_site_hse06_10hf_magmom
 _atom_site_hse06_bader_spin_density
 _atom_site_hse06_ddec_charge
 _atom_site_hse06_ddec_spin_density
 _atom_site_hse06_ddec_sum_bond_order
 _atom_site_hse06_magmom
 _atom_site_pbe_bader_spin_density
 _atom_site_pbe_cm5_charge
 _atom_site_pbe_ddec_charge
 _atom_site_pbe_ddec_spin_density
 _atom_site_pbe_ddec_sum_bond_order
 _atom_site_pbe_magmom
Ba  Ba0  1  0.27035334  0.89332336  0.86329027  1  0  1.630171  0  1.12495  0  0  1.466522  0  1.524442  0  0  1.509999  0  1.481235  0  0  0.920761  1.434587  0  1.55505  0
Ba  Ba1  1  0.22964638  0.10667686  0.36329021  1  0  1.630169  0  1.124956  0  0  1.466502  0  1.524473  0  0  1.509984  0  1.481264  0  0  0.92076  1.434596  0  1.555029  0
Ba  Ba2  1  0.72964556  0.39332397  0.63670989  1  0  1.630156  0  1.124959  0  0  1.466503  0  1.524457  0  0  1.509985  0  1.48125  0  0  0.92077  1.434608  0  1.554997  0
Ba  Ba3  1  0.77035404  0.60667615  0.13670977  1  0  1.630151  0  1.124981  0  0  1.466509  0  1.524456  0  0  1.509987  0  1.481249  0  0  0.920787  1.434576  0  1.555053  0
H  H4  1  0.45969868  0.64765504  0.72825321  1  0  0.38216  0  0.868573  0  0  0.352977  0  0.950314  0  0  0.363988  0  0.937079  0  0  0.318314  0.345079  0  0.959808  0
H  H5  1  0.04029917  0.35234608  0.22825315  1  0  0.382169  0  0.868531  0  0  0.352995  0  0.950281  0  0  0.364005  0  0.937046  0  0  0.318311  0.345094  0  0.959782  0
H  H6  1  0.54030069  0.14765480  0.77174698  1  0  0.382129  0  0.868556  0  0  0.352943  0  0.950311  0  0  0.363953  0  0.937077  0  0  0.318304  0.345044  0  0.959806  0
H  H7  1  0.95969865  0.85234528  0.27174680  1  0  0.382169  0  0.868559  0  0  0.352991  0  0.950295  0  0  0.364001  0  0.937059  0  0  0.318324  0.345092  0  0.95979  0
H  H8  1  0.79044330  0.79272488  0.70357807  1  0  0.377668  0  0.895145  0  0  0.352084  0  0.965812  0  0  0.362798  0  0.954031  0  0  0.313464  0.344477  0  0.974176  0
H  H9  1  0.70955618  0.20727609  0.20357736  1  0  0.377671  0  0.895133  0  0  0.352091  0  0.965794  0  0  0.362803  0  0.954017  0  0  0.31346  0.344486  0  0.974158  0
H  H10  1  0.20955580  0.29272474  0.79642210  1  0  0.37767  0  0.895147  0  0  0.352085  0  0.965815  0  0  0.362799  0  0.954032  0  0  0.313459  0.34448  0  0.974181  0
H  H11  1  0.29044405  0.70727550  0.29642260  1  0  0.377678  0  0.895133  0  0  0.352083  0  0.96581  0  0  0.362795  0  0.954032  0  0  0.313467  0.344479  0  0.974175  0
H  H12  1  0.63147267  0.95306453  0.69657048  1  0  0.370037  0  0.910587  0  0  0.3448  0  0.984829  0  0  0.35556  0  0.972607  0  0  0.308314  0.337154  0  0.99353  0
H  H13  1  0.86852468  0.04693557  0.19657041  1  0  0.370012  0  0.910616  0  0  0.344777  0  0.984858  0  0  0.355537  0  0.972639  0  0  0.308294  0.337131  0  0.99356  0
H  H14  1  0.36852612  0.45306434  0.80342902  1  0  0.370025  0  0.91062  0  0  0.34479  0  0.984852  0  0  0.35555  0  0.972633  0  0  0.308309  0.337146  0  0.993553  0
H  H15  1  0.13147372  0.54693590  0.30342957  1  0  0.37001  0  0.91063  0  0  0.344775  0  0.984862  0  0  0.355532  0  0.972646  0  0  0.308302  0.33713  0  0.993561  0
H  H16  1  0.76802309  0.08727297  0.52378515  1  0  0.383689  0  0.916599  0  0  0.3565  0  0.993976  0  0  0.367694  0  0.980618  0  0  0.309499  0.348597  0  1.002953  0
H  H17  1  0.73197674  0.91272717  0.02378564  1  0  0.383682  0  0.916633  0  0  0.356499  0  0.993996  0  0  0.367691  0  0.980625  0  0  0.309497  0.348599  0  1.002967  0
H  H18  1  0.23197640  0.58727322  0.97621440  1  0  0.383694  0  0.916577  0  0  0.356507  0  0.993951  0  0  0.3677  0  0.980605  0  0  0.309511  0.348604  0  1.002926  0
H  H19  1  0.26802310  0.41272698  0.47621430  1  0  0.383681  0  0.916603  0  0  0.35649  0  0.993983  0  0  0.367684  0  0.980631  0  0  0.309502  0.348587  0  1.002961  0
H  H20  1  0.45184581  0.73722645  0.57922022  1  0  0.083524  0  0.91083  0  0  0.091261  0  0.977374  0  0  0.093814  0  0.974855  0  0  0.118601  0.089362  0  0.979369  0
H  H21  1  0.04815233  0.26277384  0.07922017  1  0  0.083549  0  0.910783  0  0  0.091251  0  0.977354  0  0  0.093813  0  0.974816  0  0  0.118585  0.089345  0  0.979364  0
H  H22  1  0.54815339  0.23722617  0.92077996  1  0  0.083551  0  0.910796  0  0  0.091263  0  0.977347  0  0  0.093816  0  0.974828  0  0  0.118601  0.089364  0  0.979342  0
H  H23  1  0.95184566  0.76277475  0.42077979  1  0  0.083519  0  0.910834  0  0  0.091238  0  0.977381  0  0  0.093793  0  0.974858  0  0  0.118586  0.089338  0  0.979377  0
H  H24  1  0.99037869  0.83779610  0.56727884  1  0  0.066708  0  0.915164  0  0  0.073926  0  0.982954  0  0  0.075533  0  0.98088  0  0  0.115667  0.072697  0  0.984638  0
H  H25  1  0.50961891  0.16220316  0.06727882  1  0  0.066706  0  0.915209  0  0  0.073905  0  0.983016  0  0  0.075511  0  0.980943  0  0  0.115646  0.072675  0  0.984702  0
H  H26  1  0.00962032  0.33779599  0.93272068  1  0  0.066705  0  0.915159  0  0  0.073926  0  0.982943  0  0  0.075532  0  0.980871  0  0  0.115669  0.072697  0  0.984627  0
H  H27  1  0.49038140  0.66220334  0.43272116  1  0  0.066704  0  0.915207  0  0  0.073906  0  0.98301  0  0  0.075514  0  0.980939  0  0  0.115647  0.072677  0  0.984695  0
H  H28  1  0.44424719  0.94551446  0.56668021  1  0  0.060157  0  0.934208  0  0  0.067545  0  1.001948  0  0  0.069055  0  1.00073  0  0  0.117951  0.066364  0  1.003018  0
H  H29  1  0.05575097  0.05448409  0.06668019  1  0  0.060195  0  0.934183  0  0  0.067579  0  1.001925  0  0  0.069082  0  1.000702  0  0  0.117958  0.066407  0  1.003004  0
H  H30  1  0.55575162  0.44551505  0.93331994  1  0  0.060163  0  0.934216  0  0  0.067565  0  1.001956  0  0  0.069066  0  1.000732  0  0  0.117958  0.066393  0  1.003034  0
H  H31  1  0.94424955  0.55448500  0.43332044  1  0  0.060159  0  0.93423  0  0  0.067601  0  1.001965  0  0  0.069095  0  1.000736  0  0  0.117984  0.066429  0  1.003044  0
H  H32  1  0.94839012  0.07560701  0.65141100  1  0  0.064435  0  0.922718  0  0  0.06994  0  0.988532  0  0  0.072564  0  0.985825  0  0  0.118797  0.067979  0  0.990732  0
H  H33  1  0.55161160  0.92439397  0.15141216  1  0  0.064414  0  0.922731  0  0  0.069915  0  0.988566  0  0  0.07254  0  0.985857  0  0  0.1188  0.067954  0  0.990763  0
H  H34  1  0.05160939  0.57560648  0.84858855  1  0  0.064425  0  0.922745  0  0  0.069966  0  0.988532  0  0  0.07259  0  0.985826  0  0  0.118796  0.068001  0  0.990735  0
H  H35  1  0.44839036  0.42439375  0.34858906  1  0  0.064437  0  0.922722  0  0  0.069944  0  0.988532  0  0  0.072568  0  0.985827  0  0  0.1188  0.067982  0  0.990732  0
C  C36  1  0.12509604  0.62290817  0.62291228  1  0  0.628427  0  3.914929  0  0  0.581139  0  4.214555  0  0  0.613885  0  4.207648  0  0  0.203564  0.558904  0  4.218458  0
C  C37  1  0.37490201  0.37709298  0.12291217  1  0  0.628467  0  3.914823  0  0  0.581157  0  4.214459  0  0  0.613901  0  4.207553  0  0  0.203583  0.558922  0  4.218356  0
C  C38  1  0.87490766  0.12290954  0.87708791  1  0  0.628483  0  3.9147  0  0  0.581172  0  4.214331  0  0  0.613918  0  4.207423  0  0  0.20358  0.558938  0  4.218231  0
C  C39  1  0.62509148  0.87709052  0.37708778  1  0  0.628456  0  3.91478  0  0  0.581136  0  4.21443  0  0  0.613882  0  4.207522  0  0  0.203569  0.558901  0  4.218333  0
C  C40  1  0.29725940  0.73606865  0.63298057  1  0  0.043953  0  3.592393  0  0  0.015326  0  3.848665  0  0  0.016847  0  3.854611  0  0  -0.002463  0.014225  0  3.844653  0
C  C41  1  0.20273649  0.26393162  0.13297986  1  0  0.043937  0  3.592354  0  0  0.015373  0  3.848538  0  0  0.016896  0  3.854485  0  0  -0.00243  0.01427  0  3.844526  0
C  C42  1  0.70273980  0.23606921  0.86701961  1  0  0.043929  0  3.592335  0  0  0.015366  0  3.848516  0  0  0.016889  0  3.854461  0  0  -0.00244  0.014264  0  3.844507  0
C  C43  1  0.79726150  0.76393085  0.36701946  1  0  0.043945  0  3.592385  0  0  0.015378  0  3.848566  0  0  0.016898  0  3.854516  0  0  -0.002439  0.014277  0  3.844556  0
C  C44  1  0.11517915  0.84573663  0.62699003  1  0  0.150697  0  3.603022  0  0  0.115632  0  3.861305  0  0  0.121422  0  3.870441  0  0  -0.004697  0.111473  0  3.855555  0
C  C45  1  0.38481675  0.15426277  0.12698930  1  0  0.150783  0  3.603056  0  0  0.115739  0  3.861289  0  0  0.121523  0  3.870416  0  0  -0.004659  0.111591  0  3.855559  0
C  C46  1  0.88481985  0.34573713  0.87301014  1  0  0.150745  0  3.603013  0  0  0.115691  0  3.861279  0  0  0.12147  0  3.870404  0  0  -0.004686  0.111545  0  3.855544  0
C  C47  1  0.61518144  0.65426293  0.37301003  1  0  0.150714  0  3.603111  0  0  0.11569  0  3.861401  0  0  0.121458  0  3.87052  0  0  -0.004677  0.111542  0  3.855669  0
C  C48  1  0.29003716  0.95749766  0.61932086  1  0  0.159775  0  3.572562  0  0  0.127493  0  3.825943  0  0  0.132907  0  3.83491  0  0  -0.001451  0.123756  0  3.820015  0
C  C49  1  0.20996303  0.04250349  0.11932018  1  0  0.159743  0  3.572527  0  0  0.127454  0  3.825946  0  0  0.132908  0  3.834851  0  0  -0.001417  0.123659  0  3.820117  0
C  C50  1  0.70996162  0.45749734  0.88067929  1  0  0.159743  0  3.57261  0  0  0.127417  0  3.826093  0  0  0.132882  0  3.834983  0  0  -0.00146  0.123622  0  3.820262  0
C  C51  1  0.79003965  0.54250185  0.38067981  1  0  0.159863  0  3.572446  0  0  0.127351  0  3.826152  0  0  0.13286  0  3.834968  0  0  -0.001474  0.123558  0  3.820321  0
C  C52  1  0.10116997  0.06211151  0.59854650  1  0  0.0576  0  3.62252  0  0  0.034751  0  3.870458  0  0  0.036703  0  3.87604  0  0  0.00084  0.033116  0  3.867064  0
C  C53  1  0.39883026  0.93788877  0.09854759  1  0  0.057684  0  3.62245  0  0  0.034798  0  3.870427  0  0  0.036738  0  3.876006  0  0  0.000871  0.033175  0  3.867043  0
C  C54  1  0.89882956  0.56211157  0.90145306  1  0  0.057581  0  3.622511  0  0  0.034666  0  3.870588  0  0  0.0366  0  3.87617  0  0  0.000841  0.033047  0  3.867194  0
C  C55  1  0.60117167  0.43788849  0.40145363  1  0  0.057557  0  3.622504  0  0  0.034759  0  3.870465  0  0  0.036688  0  3.876031  0  0  0.000843  0.033135  0  3.867087  0
C  C56  1  0.28419743  0.17256000  0.59074772  1  0  0.65256  0  3.875564  0  0  0.601456  0  4.17585  0  0  0.635545  0  4.165545  0  0  0.217842  0.578273  0  4.182226  0
C  C57  1  0.21581351  0.82743333  0.09075271  1  0  0.652512  0  3.875746  0  0  0.601459  0  4.175969  0  0  0.635547  0  4.165672  0  0  0.217837  0.578278  0  4.182334  0
C  C58  1  0.71579975  0.67255925  0.90925247  1  0  0.652634  0  3.875397  0  0  0.60151  0  4.175752  0  0  0.635601  0  4.165454  0  0  0.217861  0.578329  0  4.182116  0
C  C59  1  0.78419718  0.32743994  0.40925237  1  0  0.652576  0  3.875549  0  0  0.601481  0  4.175812  0  0  0.635569  0  4.165512  0  0  0.217857  0.578298  0  4.182185  0
O  O60  1  0.89853469  0.62213270  0.57917014  1  0  -0.642541  0  1.934373  0  0  -0.592091  0  2.170828  0  0  -0.616942  0  2.162933  0  0  -0.344093  -0.574708  0  2.175808  0
O  O61  1  0.60146503  0.37786917  0.07916814  1  0  -0.642596  0  1.934339  0  0  -0.59211  0  2.170764  0  0  -0.616965  0  2.162871  0  0  -0.344103  -0.574722  0  2.175742  0
O  O62  1  0.10146259  0.12213083  0.92083070  1  0  -0.642582  0  1.93433  0  0  -0.592116  0  2.170774  0  0  -0.616967  0  2.16288  0  0  -0.344109  -0.574728  0  2.175754  0
O  O63  1  0.39853488  0.87786851  0.42083052  1  0  -0.642552  0  1.934368  0  0  -0.592087  0  2.170825  0  0  -0.616938  0  2.162929  0  0  -0.344101  -0.574704  0  2.175805  0
O  O64  1  0.23097161  0.53440243  0.66118804  1  0  -0.72396  0  2.020253  0  0  -0.658413  0  2.262448  0  0  -0.686372  0  2.254679  0  0  -0.384848  -0.638652  0  2.267133  0
O  O65  1  0.26902636  0.46559783  0.16118665  1  0  -0.723974  0  2.020313  0  0  -0.658429  0  2.26253  0  0  -0.686388  0  2.254761  0  0  -0.384857  -0.638659  0  2.267214  0
O  O66  1  0.76902583  0.03440124  0.83881216  1  0  -0.723984  0  2.02014  0  0  -0.658435  0  2.26234  0  0  -0.686396  0  2.254569  0  0  -0.384845  -0.638664  0  2.267025  0
O  O67  1  0.73097124  0.96559796  0.33881200  1  0  -0.723978  0  2.020182  0  0  -0.658428  0  2.26239  0  0  -0.686388  0  2.25462  0  0  -0.384844  -0.638665  0  2.267076  0
O  O68  1  0.45247229  0.73124875  0.71300860  1  0  -0.5709  0  2.145953  0  0  -0.514398  0  2.371924  0  0  -0.531084  0  2.360239  0  0  -0.384045  -0.502496  0  2.379994  0
O  O69  1  0.04752772  0.26875151  0.21300856  1  0  -0.57089  0  2.145904  0  0  -0.51442  0  2.371825  0  0  -0.531105  0  2.360138  0  0  -0.384034  -0.502523  0  2.379899  0
O  O70  1  0.54752906  0.23124937  0.78699093  1  0  -0.570865  0  2.145868  0  0  -0.514382  0  2.371829  0  0  -0.531067  0  2.360143  0  0  -0.38404  -0.502487  0  2.379901  0
O  O71  1  0.95247026  0.76875158  0.28699140  1  0  -0.570929  0  2.146011  0  0  -0.51441  0  2.371891  0  0  -0.531096  0  2.360206  0  0  -0.384045  -0.502514  0  2.379962  0
O  O72  1  0.92937934  0.85847765  0.69975824  1  0  -0.585387  0  2.14614  0  0  -0.525031  0  2.374208  0  0  -0.543208  0  2.362984  0  0  -0.390523  -0.511988  0  2.381779  0
O  O73  1  0.57061801  0.14152159  0.19975757  1  0  -0.585452  0  2.146046  0  0  -0.525106  0  2.374116  0  0  -0.54329  0  2.362899  0  0  -0.390539  -0.512038  0  2.381619  0
O  O74  1  0.07061963  0.35847755  0.80024192  1  0  -0.585408  0  2.146115  0  0  -0.525053  0  2.374179  0  0  -0.543234  0  2.362956  0  0  -0.390522  -0.511995  0  2.381701  0
O  O75  1  0.42938235  0.64152182  0.30024305  1  0  -0.585407  0  2.146142  0  0  -0.525015  0  2.37418  0  0  -0.543192  0  2.362961  0  0  -0.39051  -0.511946  0  2.381681  0
O  O76  1  0.43616312  0.98746602  0.69767865  1  0  -0.597912  0  2.089349  0  0  -0.543922  0  2.325663  0  0  -0.56135  0  2.313094  0  0  -0.416774  -0.531453  0  2.334249  0
O  O77  1  0.06383478  0.01253337  0.19767799  1  0  -0.597912  0  2.08923  0  0  -0.543921  0  2.325556  0  0  -0.561361  0  2.312971  0  0  -0.416808  -0.531445  0  2.334165  0
O  O78  1  0.56383346  0.48746577  0.80232150  1  0  -0.597881  0  2.08935  0  0  -0.543883  0  2.325687  0  0  -0.561325  0  2.313101  0  0  -0.416779  -0.531406  0  2.334294  0
O  O79  1  0.93616582  0.51253431  0.30232200  1  0  -0.597904  0  2.089251  0  0  -0.543874  0  2.325666  0  0  -0.561326  0  2.313064  0  0  -0.416798  -0.531395  0  2.334273  0
O  O80  1  0.95159603  0.04225994  0.51986651  1  0  -0.586372  0  2.083062  0  0  -0.53753  0  2.32049  0  0  -0.55549  0  2.309123  0  0  -0.412597  -0.524517  0  2.327819  0
O  O81  1  0.54840808  0.95773933  0.01986702  1  0  -0.586415  0  2.083087  0  0  -0.537557  0  2.320521  0  0  -0.555517  0  2.309142  0  0  -0.412623  -0.524541  0  2.327844  0
O  O82  1  0.04840140  0.54225938  0.98013369  1  0  -0.586381  0  2.083034  0  0  -0.537515  0  2.320487  0  0  -0.555477  0  2.309135  0  0  -0.412619  -0.524499  0  2.327809  0
O  O83  1  0.45159595  0.45774081  0.48013355  1  0  -0.586365  0  2.083049  0  0  -0.537517  0  2.320472  0  0  -0.555478  0  2.309116  0  0  -0.41261  -0.524504  0  2.327798  0
O  O84  1  0.49466751  0.17272686  0.53853184  1  0  -0.689095  0  2.020613  0  0  -0.626209  0  2.256959  0  0  -0.652863  0  2.248361  0  0  -0.323221  -0.607571  0  2.262306  0
O  O85  1  0.00533070  0.82726995  0.03853045  1  0  -0.689138  0  2.020319  0  0  -0.626286  0  2.256676  0  0  -0.652934  0  2.248057  0  0  -0.323255  -0.607642  0  2.262015  0
O  O86  1  0.50533609  0.67272703  0.96146835  1  0  -0.689055  0  2.02054  0  0  -0.626177  0  2.256949  0  0  -0.652809  0  2.248305  0  0  -0.323194  -0.607536  0  2.262292  0
O  O87  1  0.99466930  0.32727301  0.46146822  1  0  -0.689104  0  2.020576  0  0  -0.626225  0  2.256933  0  0  -0.652874  0  2.248326  0  0  -0.323231  -0.607588  0  2.262279  0
O  O88  1  0.21268262  0.26041293  0.63479266  1  0  -0.715395  0  2.043661  0  0  -0.653751  0  2.299725  0  0  -0.681004  0  2.290658  0  0  -0.398909  -0.634683  0  2.305457  0
O  O89  1  0.28731969  0.73958821  0.13479123  1  0  -0.715307  0  2.044079  0  0  -0.653696  0  2.300144  0  0  -0.680948  0  2.291078  0  0  -0.398894  -0.634625  0  2.305875  0
O  O90  1  0.78731868  0.76041477  0.86520687  1  0  -0.71547  0  2.043511  0  0  -0.653806  0  2.299587  0  0  -0.681064  0  2.29052  0  0  -0.398966  -0.634728  0  2.305318  0
O  O91  1  0.71268262  0.23958703  0.36520744  1  0  -0.715402  0  2.043675  0  0  -0.653757  0  2.299734  0  0  -0.681011  0  2.290666  0  0  -0.398912  -0.634688  0  2.305465  0
