# generated using pymatgen
data_CdH3C5N5O2
_symmetry_space_group_name_H-M   'P 1'
_cell_length_a   6.64201297
_cell_length_b   9.96155862
_cell_length_c   11.88825825
_cell_angle_alpha   90.00044196
_cell_angle_beta   100.93126983
_cell_angle_gamma   90.00050641
_symmetry_Int_Tables_number   1
_chemical_formula_structural   CdH3C5N5O2
_chemical_formula_sum   'Cd4 H12 C20 N20 O8'
_cell_volume   772.31196415
_cell_formula_units_Z   4
loop_
 _symmetry_equiv_pos_site_id
 _symmetry_equiv_pos_as_xyz
  1  'x, y, z'
loop_
 _atom_site_type_symbol
 _atom_site_label
 _atom_site_symmetry_multiplicity
 _atom_site_fract_x
 _atom_site_fract_y
 _atom_site_fract_z
 _atom_site_occupancy
 _atom_site_hle17_bader_spin_density
 _atom_site_hle17_ddec_charge
 _atom_site_hle17_ddec_spin_density
 _atom_site_hle17_ddec_sum_bond_order
 _atom_site_hle17_magmom
 _atom_site_hse06_10hf_bader_spin_density
 _atom_site_hse06_10hf_ddec_charge
 _atom_site_hse06_10hf_ddec_spin_density
 _atom_site_hse06_10hf_ddec_sum_bond_order
 _atom_site_hse06_10hf_magmom
 _atom_site_hse06_bader_spin_density
 _atom_site_hse06_ddec_charge
 _atom_site_hse06_ddec_spin_density
 _atom_site_hse06_ddec_sum_bond_order
 _atom_site_hse06_magmom
 _atom_site_pbe_bader_spin_density
 _atom_site_pbe_cm5_charge
 _atom_site_pbe_ddec_charge
 _atom_site_pbe_ddec_spin_density
 _atom_site_pbe_ddec_sum_bond_order
 _atom_site_pbe_magmom
Cd  Cd0  1  0.66321020  0.63847401  0.57831224  1  0  1.153474  0  1.747932  0  0  0.974463  0  2.208248  0  0  1.02459  0  2.160982  0  0  0.800359  0.938877  0  2.240368  0
Cd  Cd1  1  0.83678881  0.13847073  0.42168671  1  0  1.153507  0  1.747867  0  0  0.974518  0  2.208164  0  0  1.024641  0  2.160898  0  0  0.800385  0.938933  0  2.240288  0
Cd  Cd2  1  0.33678721  0.36152469  0.42168598  1  0  1.15355  0  1.747866  0  0  0.974537  0  2.208162  0  0  1.024662  0  2.160895  0  0  0.800393  0.938955  0  2.240285  0
Cd  Cd3  1  0.16321324  0.86152697  0.57831534  1  0  1.153483  0  1.747891  0  0  0.974484  0  2.208202  0  0  1.024608  0  2.160936  0  0  0.800384  0.938897  0  2.240322  0
H  H4  1  0.84278448  0.18783531  0.81462681  1  0  0.098454  0  0.96131  0  0  0.099974  0  1.033668  0  0  0.102935  0  1.031926  0  0  0.116439  0.097715  0  1.034947  0
H  H5  1  0.65721683  0.68783394  0.18537185  1  0  0.09849  0  0.961223  0  0  0.099997  0  1.033591  0  0  0.102958  0  1.031848  0  0  0.116447  0.097734  0  1.034876  0
H  H6  1  0.15721298  0.81216339  0.18537645  1  0  0.098433  0  0.96138  0  0  0.099976  0  1.033703  0  0  0.102934  0  1.031972  0  0  0.116438  0.097715  0  1.03497  0
H  H7  1  0.34278211  0.31216878  0.81462652  1  0  0.098525  0  0.961197  0  0  0.099985  0  1.033601  0  0  0.102948  0  1.031857  0  0  0.116453  0.097721  0  1.034896  0
H  H8  1  0.74727307  0.49660340  0.03382250  1  0  0.087607  0  0.973429  0  0  0.090306  0  1.043542  0  0  0.092976  0  1.042224  0  0  0.113911  0.088301  0  1.044604  0
H  H9  1  0.75272235  0.99659874  0.96617336  1  0  0.087642  0  0.973432  0  0  0.090328  0  1.043551  0  0  0.092999  0  1.042237  0  0  0.113912  0.088319  0  1.044617  0
H  H10  1  0.25272739  0.50340233  0.96617435  1  0  0.087631  0  0.973448  0  0  0.090319  0  1.043563  0  0  0.092991  0  1.042247  0  0  0.113916  0.088313  0  1.044628  0
H  H11  1  0.24728430  0.00340699  0.03382917  1  0  0.087613  0  0.973423  0  0  0.090303  0  1.043551  0  0  0.092974  0  1.042234  0  0  0.113924  0.088296  0  1.044613  0
H  H12  1  0.64538051  0.65151942  0.86416270  1  0  0.096916  0  0.93228  0  0  0.097006  0  1.005645  0  0  0.1006  0  1.002828  0  0  0.120585  0.094324  0  1.007864  0
H  H13  1  0.85461255  0.15152064  0.13583403  1  0  0.096965  0  0.932233  0  0  0.09704  0  1.005608  0  0  0.100644  0  1.002784  0  0  0.1206  0.094357  0  1.00783  0
H  H14  1  0.35461993  0.34848129  0.13583162  1  0  0.096946  0  0.932221  0  0  0.097011  0  1.005626  0  0  0.100615  0  1.002801  0  0  0.120598  0.094329  0  1.007846  0
H  H15  1  0.14539565  0.84848007  0.86417118  1  0  0.096866  0  0.932298  0  0  0.096957  0  1.005659  0  0  0.100568  0  1.002826  0  0  0.120574  0.094274  0  1.007878  0
C  C16  1  0.75213779  0.33046440  0.61263217  1  0  0.637921  0  3.89704  0  0  0.580801  0  4.191805  0  0  0.616268  0  4.184823  0  0  0.212396  0.556719  0  4.195822  0
C  C17  1  0.74785963  0.83046945  0.38736618  1  0  0.637949  0  3.896848  0  0  0.580718  0  4.191821  0  0  0.616178  0  4.184853  0  0  0.212346  0.556641  0  4.195827  0
C  C18  1  0.24786116  0.66953129  0.38736704  1  0  0.638001  0  3.896916  0  0  0.580877  0  4.191702  0  0  0.616338  0  4.184729  0  0  0.21243  0.556795  0  4.195717  0
C  C19  1  0.25213013  0.16952925  0.61263377  1  0  0.637909  0  3.896954  0  0  0.580772  0  4.191759  0  0  0.616236  0  4.184783  0  0  0.212439  0.556688  0  4.195776  0
C  C20  1  0.75059863  0.37754092  0.73300512  1  0  0.056552  0  3.722958  0  0  0.060119  0  3.968808  0  0  0.057433  0  3.988562  0  0  0.116306  0.061491  0  3.955661  0
C  C21  1  0.74940104  0.87754085  0.26699125  1  0  0.056664  0  3.722833  0  0  0.060166  0  3.968867  0  0  0.057483  0  3.988623  0  0  0.116365  0.061536  0  3.955714  0
C  C22  1  0.24939879  0.62245678  0.26699478  1  0  0.056675  0  3.722756  0  0  0.060188  0  3.968702  0  0  0.057503  0  3.988456  0  0  0.116318  0.06156  0  3.955552  0
C  C23  1  0.25059946  0.12246086  0.73300981  1  0  0.056682  0  3.722977  0  0  0.060174  0  3.968927  0  0  0.057488  0  3.988684  0  0  0.116332  0.061548  0  3.955775  0
C  C24  1  0.80330909  0.29212416  0.82758705  1  0  0.077031  0  3.660874  0  0  0.044643  0  3.922861  0  0  0.047256  0  3.939946  0  0  0.058462  0.043075  0  3.911261  0
C  C25  1  0.69669079  0.79212290  0.17241046  1  0  0.076905  0  3.66091  0  0  0.044563  0  3.922941  0  0  0.047177  0  3.940025  0  0  0.058351  0.042992  0  3.911345  0
C  C26  1  0.19668988  0.70787454  0.17241385  1  0  0.076985  0  3.660888  0  0  0.044609  0  3.922882  0  0  0.047223  0  3.93996  0  0  0.058436  0.04305  0  3.911273  0
C  C27  1  0.30330663  0.20787881  0.82758859  1  0  0.076929  0  3.660902  0  0  0.044627  0  3.922909  0  0  0.047241  0  3.939994  0  0  0.058398  0.043054  0  3.911315  0
C  C28  1  0.74685387  0.46194736  0.94673096  1  0  0.078606  0  3.676486  0  0  0.055362  0  3.935994  0  0  0.056997  0  3.953671  0  0  0.05629  0.054204  0  3.924342  0
C  C29  1  0.75314409  0.96194534  0.05326746  1  0  0.078514  0  3.67646  0  0  0.055291  0  3.935935  0  0  0.056921  0  3.953622  0  0  0.056264  0.05413  0  3.924295  0
C  C30  1  0.25314660  0.53805536  0.05326673  1  0  0.078593  0  3.676529  0  0  0.055379  0  3.936001  0  0  0.057009  0  3.953686  0  0  0.05631  0.054218  0  3.924357  0
C  C31  1  0.24685948  0.03805938  0.94673391  1  0  0.078607  0  3.67637  0  0  0.055356  0  3.935892  0  0  0.05699  0  3.953577  0  0  0.0563  0.054196  0  3.924251  0
C  C32  1  0.69123503  0.54793832  0.85302516  1  0  0.095516  0  3.669307  0  0  0.066223  0  3.928393  0  0  0.06827  0  3.946264  0  0  0.061237  0.064561  0  3.916718  0
C  C33  1  0.80876253  0.04793837  0.14697137  1  0  0.095517  0  3.6692  0  0  0.066227  0  3.928297  0  0  0.068268  0  3.94616  0  0  0.061216  0.064565  0  3.916617  0
C  C34  1  0.30876542  0.45206138  0.14697084  1  0  0.095515  0  3.66915  0  0  0.066223  0  3.928239  0  0  0.068265  0  3.946103  0  0  0.061209  0.064557  0  3.916573  0
C  C35  1  0.19124257  0.95206334  0.85303016  1  0  0.095611  0  3.669186  0  0  0.066308  0  3.928294  0  0  0.068344  0  3.946157  0  0  0.061231  0.064648  0  3.91661  0
N  N36  1  0.50728574  0.81101014  0.65197701  1  0  -0.650711  0  2.780408  0  0  -0.60576  0  3.102352  0  0  -0.634398  0  3.107269  0  0  -0.345684  -0.585791  0  3.098624  0
N  N37  1  0.99271752  0.31100611  0.34802266  1  0  -0.65086  0  2.780498  0  0  -0.60591  0  3.102447  0  0  -0.634548  0  3.107365  0  0  -0.345735  -0.585939  0  3.098721  0
N  N38  1  0.49271478  0.18898957  0.34802573  1  0  -0.65075  0  2.78047  0  0  -0.605796  0  3.10239  0  0  -0.634432  0  3.107308  0  0  -0.345726  -0.585828  0  3.098667  0
N  N39  1  0.00728142  0.68899159  0.65197487  1  0  -0.650776  0  2.780513  0  0  -0.605823  0  3.102433  0  0  -0.63446  0  3.107355  0  0  -0.345723  -0.585853  0  3.098704  0
N  N40  1  0.61197533  0.89105845  0.71386174  1  0  0.414477  0  4.222613  0  0  0.44617  0  4.504464  0  0  0.462312  0  4.534102  0  0  0.08707  0.435148  0  4.484343  0
N  N41  1  0.88803073  0.39105423  0.28613958  1  0  0.414554  0  4.222561  0  0  0.446243  0  4.50441  0  0  0.462384  0  4.534046  0  0  0.087106  0.435221  0  4.484293  0
N  N42  1  0.38802672  0.10894326  0.28614115  1  0  0.414395  0  4.222654  0  0  0.44609  0  4.504498  0  0  0.46223  0  4.534138  0  0  0.087011  0.435068  0  4.484378  0
N  N43  1  0.11196668  0.60894548  0.71385864  1  0  0.414512  0  4.222516  0  0  0.446208  0  4.50436  0  0  0.462349  0  4.534  0  0  0.08711  0.435187  0  4.484241  0
N  N44  1  0.70929798  0.96839832  0.77411299  1  0  -0.350482  0  2.436069  0  0  -0.34747  0  2.665914  0  0  -0.353425  0  2.676103  0  0  -0.165673  -0.342786  0  2.658911  0
N  N45  1  0.79070930  0.46839396  0.22588896  1  0  -0.350465  0  2.435978  0  0  -0.347474  0  2.665859  0  0  -0.353426  0  2.676045  0  0  -0.165684  -0.342788  0  2.658857  0
N  N46  1  0.29070406  0.03160339  0.22588907  1  0  -0.350372  0  2.436029  0  0  -0.34738  0  2.665906  0  0  -0.353334  0  2.676097  0  0  -0.165603  -0.342693  0  2.658898  0
N  N47  1  0.20928964  0.53160574  0.77410941  1  0  -0.350478  0  2.435895  0  0  -0.347486  0  2.665781  0  0  -0.353441  0  2.67597  0  0  -0.165703  -0.342802  0  2.658781  0
N  N48  1  0.69334448  0.50476086  0.74677130  1  0  -0.303478  0  3.277556  0  0  -0.243103  0  3.537318  0  0  -0.256936  0  3.557547  0  0  -0.306275  -0.23331  0  3.523429  0
N  N49  1  0.80665393  0.00476087  0.25322588  1  0  -0.303561  0  3.277429  0  0  -0.243154  0  3.537238  0  0  -0.256987  0  3.557467  0  0  -0.306274  -0.233364  0  3.523357  0
N  N50  1  0.30665445  0.49523683  0.25322539  1  0  -0.303526  0  3.277323  0  0  -0.243126  0  3.537115  0  0  -0.25696  0  3.557345  0  0  -0.306239  -0.233337  0  3.523233  0
N  N51  1  0.19334505  0.99523984  0.74677670  1  0  -0.303516  0  3.277345  0  0  -0.243116  0  3.537143  0  0  -0.256951  0  3.55738  0  0  -0.306224  -0.233326  0  3.523257  0
N  N52  1  0.80187966  0.33390023  0.93463780  1  0  -0.252716  0  3.011437  0  0  -0.222568  0  3.281037  0  0  -0.229628  0  3.295403  0  0  -0.299757  -0.217689  0  3.271376  0
N  N53  1  0.69812087  0.83389599  0.06536006  1  0  -0.252624  0  3.011412  0  0  -0.222462  0  3.280985  0  0  -0.229524  0  3.295353  0  0  -0.299654  -0.217586  0  3.271322  0
N  N54  1  0.19811929  0.66610148  0.06536142  1  0  -0.252755  0  3.011479  0  0  -0.222614  0  3.281078  0  0  -0.229675  0  3.295446  0  0  -0.29977  -0.217736  0  3.271413  0
N  N55  1  0.30187962  0.16610773  0.93464015  1  0  -0.252757  0  3.011402  0  0  -0.222597  0  3.280966  0  0  -0.22966  0  3.295333  0  0  -0.299761  -0.217721  0  3.271309  0
O  O56  1  0.69024896  0.41158668  0.52960471  1  0  -0.651398  0  2.061542  0  0  -0.573928  0  2.321006  0  0  -0.603156  0  2.307088  0  0  -0.325263  -0.553514  0  2.329902  0
O  O57  1  0.80974974  0.91158784  0.47039346  1  0  -0.651367  0  2.061568  0  0  -0.57387  0  2.321103  0  0  -0.603095  0  2.307195  0  0  -0.325261  -0.553457  0  2.329991  0
O  O58  1  0.30975000  0.58840901  0.47039450  1  0  -0.651463  0  2.061535  0  0  -0.573981  0  2.320992  0  0  -0.603207  0  2.307081  0  0  -0.325302  -0.553566  0  2.329886  0
O  O59  1  0.19024157  0.08840785  0.52960833  1  0  -0.651378  0  2.061634  0  0  -0.573918  0  2.321123  0  0  -0.603146  0  2.307213  0  0  -0.325326  -0.553501  0  2.330014  0
O  O60  1  0.81332333  0.21193790  0.60167289  1  0  -0.587747  0  2.025066  0  0  -0.522213  0  2.274282  0  0  -0.552065  0  2.266666  0  0  -0.300395  -0.501297  0  2.278606  0
O  O61  1  0.68666456  0.71193766  0.39832455  1  0  -0.587832  0  2.025045  0  0  -0.522241  0  2.274322  0  0  -0.552102  0  2.266726  0  0  -0.30038  -0.501318  0  2.278629  0
O  O62  1  0.18667563  0.78805979  0.39832716  1  0  -0.587835  0  2.025056  0  0  -0.522277  0  2.274246  0  0  -0.552124  0  2.266629  0  0  -0.300418  -0.501364  0  2.278575  0
O  O63  1  0.31332367  0.28806104  0.60167440  1  0  -0.587874  0  2.025001  0  0  -0.52227  0  2.27416  0  0  -0.552128  0  2.266555  0  0  -0.300419  -0.501346  0  2.278471  0
