# generated using pymatgen
data_AgP2H24Au(C13S)2
_symmetry_space_group_name_H-M   'P 1'
_cell_length_a   6.54078035
_cell_length_b   12.38689761
_cell_length_c   16.36715624
_cell_angle_alpha   68.01261146
_cell_angle_beta   77.79113842
_cell_angle_gamma   75.62755522
_symmetry_Int_Tables_number   1
_chemical_formula_structural   AgP2H24Au(C13S)2
_chemical_formula_sum   'Ag2 P4 H48 Au2 C52 S4'
_cell_volume   1180.71533005
_cell_formula_units_Z   2
loop_
 _symmetry_equiv_pos_site_id
 _symmetry_equiv_pos_as_xyz
  1  'x, y, z'
loop_
 _atom_site_type_symbol
 _atom_site_label
 _atom_site_symmetry_multiplicity
 _atom_site_fract_x
 _atom_site_fract_y
 _atom_site_fract_z
 _atom_site_occupancy
 _atom_site_pbe_bader_spin_density
 _atom_site_pbe_cm5_charge
 _atom_site_pbe_ddec_charge
 _atom_site_pbe_ddec_spin_density
 _atom_site_pbe_ddec_sum_bond_order
 _atom_site_pbe_magmom
Ag  Ag0  1  0.86279778  0.24617972  0.75292670  1  0  0.291168  0.258595  0  2.248305  0
Ag  Ag1  1  0.13714308  0.75379738  0.24705172  1  0  0.291255  0.25876  0  2.24815  0
P  P2  1  0.20486531  0.99022008  0.85494718  1  0  0.123065  0.677085  0  4.664724  0
P  P3  1  0.95128222  0.49133004  0.35664738  1  0  0.122371  0.676436  0  4.665799  0
P  P4  1  0.79512766  0.00980158  0.14508389  1  0  0.123017  0.677027  0  4.664784  0
P  P5  1  0.04866990  0.50865067  0.64332850  1  0  0.122403  0.676235  0  4.665921  0
H  H6  1  0.51228094  0.05422525  0.85846209  1  0  0.071506  0.15397  0  1.08607  0
H  H7  1  0.57573351  0.54792026  0.37546394  1  0  0.072883  0.156812  0  1.076879  0
H  H8  1  0.48764336  0.94581433  0.14161700  1  0  0.071531  0.15396  0  1.0865  0
H  H9  1  0.42424010  0.45202895  0.62447107  1  0  0.07286  0.156766  0  1.077089  0
H  H10  1  0.27762859  0.11323813  0.91715999  1  0  0.084937  0.160233  0  1.03738  0
H  H11  1  0.70985229  0.61206042  0.42447565  1  0  0.083435  0.155687  0  1.047432  0
H  H12  1  0.72221763  0.88681927  0.08288522  1  0  0.084962  0.160341  0  1.037237  0
H  H13  1  0.29003061  0.38784622  0.57552741  1  0  0.083512  0.155847  0  1.047362  0
H  H14  1  0.60546448  0.00504286  0.72960407  1  0  0.097349  0.100105  0  1.039964  0
H  H15  1  0.65452106  0.51697116  0.23312538  1  0  0.093607  0.097136  0  1.050909  0
H  H16  1  0.39457661  0.99502314  0.27046207  1  0  0.097471  0.10034  0  1.040349  0
H  H17  1  0.34544332  0.48300792  0.76685787  1  0  0.093534  0.097003  0  1.051099  0
H  H18  1  0.73037919  0.94324404  0.59575270  1  0  0.100745  0.102385  0  1.005228  0
H  H19  1  0.71296403  0.45652414  0.09900186  1  0  0.100675  0.102167  0  1.007262  0
H  H20  1  0.26976447  0.05681468  0.40431968  1  0  0.100638  0.10237  0  1.005096  0
H  H21  1  0.28705079  0.54350838  0.90095139  1  0  0.100647  0.102065  0  1.007367  0
H  H22  1  0.50084003  0.84941091  0.54999261  1  0  0.096107  0.088629  0  1.051362  0
H  H23  1  0.06893897  0.35431368  0.05186972  1  0  0.096393  0.089378  0  1.051915  0
H  H24  1  0.49938881  0.15064177  0.45004835  1  0  0.096117  0.088619  0  1.051812  0
H  H25  1  0.93106951  0.64575082  0.94807965  1  0  0.096299  0.089215  0  1.051804  0
H  H26  1  0.15731769  0.80525295  0.64162873  1  0  0.098322  0.101323  0  1.016421  0
H  H27  1  0.36423043  0.29993625  0.14223874  1  0  0.097789  0.100602  0  1.018277  0
H  H28  1  0.84287209  0.19480429  0.35836470  1  0  0.098249  0.101307  0  1.016847  0
H  H29  1  0.63574641  0.70004547  0.85773364  1  0  0.097814  0.100673  0  1.018044  0
H  H30  1  0.03123512  0.86786754  0.77445941  1  0  0.094784  0.091084  0  1.038637  0
H  H31  1  0.30763079  0.36008294  0.27544770  1  0  0.096838  0.09574  0  1.028179  0
H  H32  1  0.96883443  0.13218181  0.22553445  1  0  0.094801  0.091188  0  1.038536  0
H  H33  1  0.69233421  0.63984825  0.72455325  1  0  0.096833  0.095536  0  1.028389  0
H  H34  1  0.95459269  0.80962126  0.97012158  1  0  0.093001  0.089338  0  1.048439  0
H  H35  1  0.27604873  0.31467699  0.46172886  1  0  0.09262  0.087846  0  1.051205  0
H  H36  1  0.04537536  0.19038602  0.02991204  1  0  0.093028  0.089473  0  1.048303  0
H  H37  1  0.72390436  0.68529290  0.53823561  1  0  0.092697  0.088085  0  1.050912  0
H  H38  1  0.04032509  0.62333412  0.09835779  1  0  0.0924  0.088496  0  1.064459  0
H  H39  1  0.25312180  0.12631508  0.59102682  1  0  0.093227  0.088906  0  1.056842  0
H  H40  1  0.95968098  0.37664191  0.90164627  1  0  0.092443  0.088583  0  1.064504  0
H  H41  1  0.74685376  0.87367023  0.40894929  1  0  0.093104  0.088803  0  1.056824  0
H  H42  1  0.39079272  0.56927524  0.15095511  1  0  0.093302  0.088607  0  1.055187  0
H  H43  1  0.90609456  0.06437065  0.65325251  1  0  0.092085  0.086802  0  1.059941  0
H  H44  1  0.60926517  0.43067403  0.84901685  1  0  0.093228  0.088542  0  1.055386  0
H  H45  1  0.09388461  0.93562923  0.34674982  1  0  0.092082  0.086658  0  1.059852  0
H  H46  1  0.66053207  0.69900481  0.07646748  1  0  0.094989  0.093093  0  1.038002  0
H  H47  1  0.57750616  0.18866583  0.58833899  1  0  0.091374  0.088766  0  1.050985  0
H  H48  1  0.33951517  0.30095496  0.92349320  1  0  0.095069  0.093219  0  1.037698  0
H  H49  1  0.42244847  0.81131621  0.41167536  1  0  0.091359  0.088879  0  1.051034  0
H  H50  1  0.58007760  0.88111735  0.94699763  1  0  0.093226  0.092374  0  1.046856  0
H  H51  1  0.60033040  0.37290932  0.45862765  1  0  0.0968  0.095924  0  1.032244  0
H  H52  1  0.41991078  0.11887803  0.05299519  1  0  0.093203  0.092374  0  1.047042  0
H  H53  1  0.39960546  0.62706614  0.54136603  1  0  0.09682  0.095758  0  1.032563  0
Au  Au54  1  0.31240788  0.25177127  0.74559580  1  0  0.189164  0.042145  0  2.811063  0
Au  Au55  1  0.68752989  0.74823116  0.25441978  1  0  0.18909  0.042112  0  2.810776  0
C  C56  1  0.34361949  0.09587381  0.85465821  1  0  -0.318565  -0.622673  0  4.028199  0
C  C57  1  0.71032360  0.59246297  0.36418093  1  0  -0.317904  -0.61729  0  4.015058  0
C  C58  1  0.65628265  0.90417059  0.14538733  1  0  -0.318604  -0.622847  0  4.028234  0
C  C59  1  0.28963230  0.40749016  0.63579560  1  0  -0.317985  -0.617403  0  4.014957  0
C  C60  1  0.30900756  0.94187056  0.75942818  1  0  -0.026133  -0.107017  0  3.971477  0
C  C61  1  0.97845221  0.44375621  0.26171092  1  0  -0.027103  -0.110243  0  3.975806  0
C  C62  1  0.69104129  0.05818536  0.24060700  1  0  -0.026196  -0.106717  0  3.971727  0
C  C63  1  0.02150831  0.55620872  0.73828324  1  0  -0.027159  -0.110011  0  3.975176  0
C  C64  1  0.50803072  0.96112913  0.71022691  1  0  -0.085842  -0.088855  0  3.972798  0
C  C65  1  0.80936448  0.46900909  0.21317685  1  0  -0.086905  -0.089904  0  3.975366  0
C  C66  1  0.49203578  0.03893070  0.28983013  1  0  -0.085926  -0.089759  0  3.973776  0
C  C67  1  0.19062363  0.53097093  0.78679620  1  0  -0.086852  -0.089779  0  3.975199  0
C  C68  1  0.57768015  0.92650031  0.63537574  1  0  -0.091404  -0.085391  0  3.991585  0
C  C69  1  0.84240781  0.43532537  0.13814740  1  0  -0.090727  -0.082958  0  3.986211  0
C  C70  1  0.42243925  0.07355100  0.36468500  1  0  -0.091758  -0.085017  0  3.991447  0
C  C71  1  0.15761035  0.56468135  0.86180739  1  0  -0.09069  -0.082708  0  3.986123  0
C  C72  1  0.44975923  0.87250966  0.61001370  1  0  -0.088179  -0.075757  0  3.991467  0
C  C73  1  0.04257487  0.37672767  0.11190420  1  0  -0.088325  -0.075529  0  3.993081  0
C  C74  1  0.55040817  0.12754081  0.39002464  1  0  -0.087697  -0.075764  0  3.991979  0
C  C75  1  0.95742294  0.62328961  0.88805047  1  0  -0.088348  -0.075822  0  3.99296  0
C  C76  1  0.25531361  0.84899971  0.66087644  1  0  -0.089124  -0.07368  0  3.971725  0
C  C77  1  0.20900378  0.34739545  0.16212043  1  0  -0.090133  -0.076004  0  3.975744  0
C  C78  1  0.74482764  0.15104942  0.33913608  1  0  -0.089198  -0.073632  0  3.972148  0
C  C79  1  0.79096674  0.65258441  0.83784853  1  0  -0.090007  -0.075779  0  3.975043  0
C  C80  1  0.18520369  0.88348357  0.73553360  1  0  -0.084305  -0.079434  0  3.977311  0
C  C81  1  0.17694248  0.38062509  0.23700015  1  0  -0.083889  -0.079997  0  3.973953  0
C  C82  1  0.81489753  0.11656790  0.26447238  1  0  -0.084217  -0.079556  0  3.977543  0
C  C83  1  0.82301859  0.61932551  0.76298671  1  0  -0.083863  -0.07976  0  3.974132  0
C  C84  1  0.26188548  0.85558339  0.94953239  1  0  -0.026917  -0.099845  0  3.965044  0
C  C85  1  0.94146881  0.35453056  0.45132274  1  0  -0.026213  -0.100921  0  3.965357  0
C  C86  1  0.73807322  0.14442371  0.05049051  1  0  -0.026958  -0.099769  0  3.964591  0
C  C87  1  0.05849191  0.64543964  0.54866491  1  0  -0.026228  -0.101059  0  3.965658  0
C  C88  1  0.11073616  0.78296719  0.99263124  1  0  -0.087401  -0.082813  0  3.99059  0
C  C89  1  0.12443510  0.28497065  0.48895708  1  0  -0.087434  -0.08346  0  3.989633  0
C  C90  1  0.88923089  0.21704252  0.00738178  1  0  -0.087443  -0.083143  0  3.990144  0
C  C91  1  0.87553860  0.71499601  0.51102449  1  0  -0.087405  -0.083542  0  3.989401  0
C  C92  1  0.15825731  0.67964901  0.06427892  1  0  -0.095106  -0.081483  0  3.997109  0
C  C93  1  0.11148723  0.18031225  0.56096132  1  0  -0.093901  -0.078997  0  3.991109  0
C  C94  1  0.84174216  0.32034288  0.93571430  1  0  -0.095253  -0.081641  0  3.997342  0
C  C95  1  0.88848687  0.81966779  0.43902252  1  0  -0.093847  -0.079099  0  3.990973  0
C  C96  1  0.35682343  0.64908822  0.09393801  1  0  -0.096541  -0.087417  0  4.018417  0
C  C97  1  0.91489483  0.14525078  0.59616332  1  0  -0.097232  -0.088618  0  4.018901  0
C  C98  1  0.64321448  0.35088506  0.90604074  1  0  -0.09625  -0.087041  0  4.018237  0
C  C99  1  0.08508877  0.85473482  0.40383401  1  0  -0.097169  -0.088258  0  4.018582  0
C  C100  1  0.50816029  0.72153072  0.05144865  1  0  -0.093671  -0.080589  0  3.992607  0
C  C101  1  0.73161524  0.21437005  0.55893281  1  0  -0.094333  -0.080733  0  3.996188  0
C  C102  1  0.49187413  0.27844430  0.94852941  1  0  -0.093948  -0.081057  0  3.992067  0
C  C103  1  0.26835227  0.78561106  0.44107085  1  0  -0.094285  -0.080867  0  3.996448  0
C  C104  1  0.46188250  0.82425851  0.97917761  1  0  -0.084523  -0.071435  0  3.948083  0
C  C105  1  0.74449118  0.31843601  0.48655909  1  0  -0.083933  -0.069843  0  3.946704  0
C  C106  1  0.53810618  0.17573073  0.02082329  1  0  -0.084384  -0.071242  0  3.94822  0
C  C107  1  0.25545808  0.68153867  0.51343722  1  0  -0.084086  -0.069725  0  3.946894  0
S  S108  1  0.88650875  0.04475240  0.86014161  1  0  -0.203393  -0.438402  0  2.568144  0
S  S109  1  0.21353883  0.55241652  0.35217062  1  0  -0.205037  -0.440377  0  2.56779  0
S  S110  1  0.11344076  0.95524826  0.13986804  1  0  -0.203351  -0.438439  0  2.568591  0
S  S111  1  0.78640463  0.44755789  0.64780531  1  0  -0.204946  -0.440302  0  2.567804  0
