# generated using pymatgen
data_Zn4H11C21NO13
_symmetry_space_group_name_H-M   'P 1'
_cell_length_a   10.93707577
_cell_length_b   10.96667934
_cell_length_c   13.24271832
_cell_angle_alpha   102.58983439
_cell_angle_beta   101.02807682
_cell_angle_gamma   98.45536215
_symmetry_Int_Tables_number   1
_chemical_formula_structural   Zn4H11C21NO13
_chemical_formula_sum   'Zn4 H11 C21 N1 O13'
_cell_volume   1491.73439064
_cell_formula_units_Z   1
loop_
 _symmetry_equiv_pos_site_id
 _symmetry_equiv_pos_as_xyz
  1  'x, y, z'
loop_
 _atom_site_type_symbol
 _atom_site_label
 _atom_site_symmetry_multiplicity
 _atom_site_fract_x
 _atom_site_fract_y
 _atom_site_fract_z
 _atom_site_occupancy
 _atom_site_pbe_bader_charge
 _atom_site_pbe_bader_spin_density
 _atom_site_pbe_cm5_charge
 _atom_site_pbe_ddec_charge
 _atom_site_pbe_ddec_spin_density
 _atom_site_pbe_ddec_sum_bond_order
 _atom_site_pbe_magmom
Zn  Zn0  1  0.42178827  0.61536226  0.59141437  1  1.309016  0  0.671666  0.958837  0  2.387385  0
Zn  Zn1  1  0.61221940  0.42076958  0.59105600  1  1.314131  0  0.675644  0.966486  0  2.365668  0
Zn  Zn2  1  0.60121709  0.59947747  0.42722269  1  1.312893  0  0.673735  0.95925  0  2.383541  0
Zn  Zn3  1  0.36948573  0.36677770  0.39442561  1  1.314372  0  0.670702  0.964625  0  2.353239  0
H  H4  1  0.57415513  0.57523862  0.10671946  1  0.128251  0  0.115797  0.125292  0  0.98892  0
H  H5  1  0.60977682  0.04282544  0.59480993  1  0.147126  0  0.126201  0.146496  0  0.963621  0
H  H6  1  0.04209699  0.61460306  0.59928799  1  0.152537  0  0.125587  0.145626  0  0.96243  0
H  H7  1  0.60363971  0.24735801  0.96410605  1  0.088632  0  0.106855  0.10755  0  0.989404  0
H  H8  1  0.52710624  0.02894030  0.84614478  1  0.057723  0  0.108398  0.109907  0  0.985496  0
H  H9  1  0.34890012  0.98724305  0.68726883  1  0.092795  0  0.101565  0.101023  0  1.004847  0
H  H10  1  0.24431991  0.16511132  0.64857048  1  0.075035  0  0.104625  0.10275  0  0.985271  0
H  H11  1  0.32057310  0.38342712  0.76679260  1  0.064067  0  0.101741  0.102266  0  0.999738  0
H  H12  1  0.40057942  0.31005631  0.05461272  1  0.131252  0  0.11602  0.137584  0  0.986991  0
H  H13  1  0.96522273  0.38521384  0.40126759  1  0.087661  0  0.1177  0.14197  0  0.967591  0
H  H14  1  0.38154903  0.96281188  0.39975648  1  0.100108  0  0.118188  0.141296  0  0.967425  0
C  C15  1  0.83880487  0.53243381  0.52667843  1  1.612343  0  0.23424  0.657172  0  4.162402  0
C  C16  1  0.47069622  0.16268654  0.47644101  1  1.575616  0  0.224266  0.649064  0  4.179543  0
C  C17  1  0.16428625  0.47284865  0.47804799  1  1.554886  0  0.221885  0.645531  0  4.178818  0
C  C18  1  0.46565860  0.43477743  0.21632319  1  1.537527  0  0.222283  0.643418  0  4.174545  0
C  C19  1  0.54545729  0.54993541  0.78546944  1  1.6041  0  0.236561  0.621234  0  4.191966  0
C  C20  1  0.54959374  0.56284968  0.90176608  1  0.054691  0  0.007935  -0.12268  0  3.926905  0
C  C21  1  0.51584502  0.46090460  0.94238356  1  0.036832  0  0.028517  0.089685  0  3.939593  0
C  C22  1  0.52660933  0.83867389  0.52360879  1  1.607013  0  0.235752  0.655507  0  4.161301  0
C  C23  1  0.45958225  0.40150936  0.10073679  1  -0.057423  0  -0.079451  -0.207268  0  3.852712  0
C  C24  1  0.52074146  0.48335048  0.05540590  1  -0.000633  0  -0.063292  -0.068111  0  3.943889  0
C  C25  1  0.02536959  0.46119913  0.46699837  1  0.07839  0  -0.092151  -0.21846  0  3.921587  0
C  C26  1  0.45798112  0.02364757  0.46428228  1  -0.013442  0  -0.08966  -0.214201  0  3.918585  0
C  C27  1  0.46858536  0.33050197  0.87248990  1  -0.01221  0  -0.010826  0.057006  0  4.00977  0
C  C28  1  0.52473404  0.22919361  0.89504024  1  -0.075079  0  -0.083168  -0.118758  0  3.96453  0
C  C29  1  0.48204683  0.10662478  0.82836527  1  0.021688  0  -0.086389  -0.079607  0  4.010526  0
C  C30  1  0.38155006  0.08323026  0.73928599  1  -0.081395  0  -0.085911  -0.075094  0  4.001249  0
C  C31  1  0.32371869  0.18304740  0.71731840  1  0.008187  0  -0.091683  -0.081249  0  4.024248  0
C  C32  1  0.36705133  0.30599043  0.78323180  1  -0.109434  0  -0.090973  -0.1305  0  3.980281  0
C  C33  1  0.58465215  0.69019836  0.96575872  1  0.835394  0  0.168857  0.253999  0  4.065707  0
C  C34  1  0.97769804  0.54032248  0.53422841  1  -0.161485  0  -0.059911  -0.131718  0  3.864705  0
C  C35  1  0.53565230  0.97726689  0.53063818  1  -0.07877  0  -0.058974  -0.134843  0  3.872259  0
N  N36  1  0.61642625  0.79621358  0.01599263  1  -1.107823  0  -0.315733  -0.361832  0  2.652755  0
O  O37  1  0.50137555  0.50050041  0.50129525  1  -1.233276  0  -0.571362  -1.033987  0  2.532031  0
O  O38  1  0.56606589  0.23555475  0.54545660  1  -1.182974  0  -0.317314  -0.555611  0  2.334083  0
O  O39  1  0.58805910  0.78036505  0.46300698  1  -1.163674  0  -0.305345  -0.531248  0  2.295696  0
O  O40  1  0.78248127  0.58999398  0.46386092  1  -1.162808  0  -0.307229  -0.53584  0  2.290752  0
O  O41  1  0.38383866  0.19723984  0.41608458  1  -1.166617  0  -0.316525  -0.54942  0  2.294501  0
O  O42  1  0.19893569  0.39397462  0.40796915  1  -1.161849  0  -0.314819  -0.544731  0  2.288258  0
O  O43  1  0.54434678  0.53523946  0.27336817  1  -1.169489  0  -0.317785  -0.549867  0  2.332892  0
O  O44  1  0.60652298  0.47195880  0.74214975  1  -1.146332  0  -0.298295  -0.523086  0  2.336655  0
O  O45  1  0.48133214  0.62113077  0.74294383  1  -1.158503  0  -0.309217  -0.539516  0  2.320576  0
O  O46  1  0.39058772  0.35948903  0.24904609  1  -1.15797  0  -0.314231  -0.541447  0  2.281314  0
O  O47  1  0.79120650  0.47027828  0.58522579  1  -1.158152  0  -0.308643  -0.53791  0  2.288112  0
O  O48  1  0.45960998  0.79281716  0.58041837  1  -1.160925  0  -0.304927  -0.537641  0  2.298175  0
O  O49  1  0.23723758  0.55988466  0.55553671  1  -1.182002  0  -0.320907  -0.558952  0  2.331141  0
