# generated using pymatgen
data_PrCuH14C16N2O13
_symmetry_space_group_name_H-M   'P 1'
_cell_length_a   8.13921920
_cell_length_b   11.00558389
_cell_length_c   12.24798087
_cell_angle_alpha   108.47010630
_cell_angle_beta   101.39963054
_cell_angle_gamma   98.37813185
_symmetry_Int_Tables_number   1
_chemical_formula_structural   PrCuH14C16N2O13
_chemical_formula_sum   'Pr2 Cu2 H28 C32 N4 O26'
_cell_volume   994.15749671
_cell_formula_units_Z   2
loop_
 _symmetry_equiv_pos_site_id
 _symmetry_equiv_pos_as_xyz
  1  'x, y, z'
loop_
 _atom_site_type_symbol
 _atom_site_label
 _atom_site_symmetry_multiplicity
 _atom_site_fract_x
 _atom_site_fract_y
 _atom_site_fract_z
 _atom_site_occupancy
 _atom_site_hle17_ddec_charge
 _atom_site_hle17_ddec_spin_density
 _atom_site_hle17_ddec_sum_bond_order
 _atom_site_hle17_magmom
 _atom_site_hse06_10hf_ddec_charge
 _atom_site_hse06_10hf_ddec_spin_density
 _atom_site_hse06_10hf_ddec_sum_bond_order
 _atom_site_hse06_10hf_magmom
 _atom_site_hse06_ddec_charge
 _atom_site_hse06_ddec_spin_density
 _atom_site_hse06_ddec_sum_bond_order
 _atom_site_hse06_magmom
 _atom_site_pbe_cm5_charge
 _atom_site_pbe_ddec_charge
 _atom_site_pbe_ddec_spin_density
 _atom_site_pbe_ddec_sum_bond_order
 _atom_site_pbe_magmom
Pr  Pr0  1  0.95362978  0.23684473  0.42351325  1  2.314679  -6e-06  1.59745  0.0  2.207336  0.000187  1.96364  0.0  2.243319  -0.000158  1.922864  0.0  1.474528  2.130425  0.000252  2.086946  0.0
Pr  Pr1  1  0.04637111  0.76315532  0.57648745  1  2.314665  -2.8e-05  1.597433  0.0  2.207324  0.000174  1.963622  0.0  2.243308  -0.000145  1.922846  0.0  1.474511  2.130401  0.000252  2.086938  0.0
Cu  Cu2  1  0.00814113  0.73916352  0.04267548  1  0.822523  0.690695  1.893751  0.51  0.791964  0.772608  2.300609  0.619  0.878834  0.837616  2.233886  0.704  0.753022  0.738895  0.725734  2.347828  0.563
Cu  Cu3  1  0.99185726  0.26083653  0.95732408  1  0.822515  0.690703  1.89376  0.51  0.791945  0.772614  2.300626  0.619  0.878805  0.837625  2.233864  0.704  0.753014  0.738883  0.725737  2.347832  0.563
H  H4  1  0.96563665  0.15650800  0.65745928  1  0.433568  4.4e-05  0.860506  0.0  0.405255  2.8e-05  0.919777  0.0  0.416204  2.5e-05  0.903774  0.0  0.297021  0.39739  3.9e-05  0.93111  0.0
H  H5  1  0.03435905  0.84348712  0.34254010  1  0.433559  4.4e-05  0.860523  0.0  0.405281  2.8e-05  0.919769  0.0  0.41623  2.5e-05  0.903766  0.0  0.297022  0.397415  3.9e-05  0.931104  0.0
H  H6  1  0.11901626  0.11843387  0.60729059  1  0.446683  -2e-06  0.848726  0.0  0.416663  -1e-06  0.910478  0.0  0.42845  -1e-06  0.893203  0.0  0.299795  0.408263  0.0  0.922557  0.0
H  H7  1  0.88098155  0.88156418  0.39271075  1  0.446666  -2e-06  0.848756  0.0  0.416635  -1e-06  0.910529  0.0  0.428423  -1e-06  0.89325  0.0  0.299786  0.408237  0.0  0.922602  0.0
H  H8  1  0.25065292  0.47359112  0.57680302  1  0.435403  -2e-06  0.848217  0.0  0.409645  -3e-06  0.908879  0.0  0.419579  -2e-06  0.894185  0.0  0.308162  0.402476  -5e-06  0.919326  0.0
H  H9  1  0.74934895  0.52640795  0.42319752  1  0.435466  -2e-06  0.848134  0.0  0.409706  -3e-06  0.908795  0.0  0.41964  -2e-06  0.8941  0.0  0.308205  0.402538  -5e-06  0.919239  0.0
H  H10  1  0.22691436  0.37591168  0.64172437  1  0.424051  -8.9e-05  0.85856  0.0  0.39647  -5.5e-05  0.929448  0.0  0.405483  -4.1e-05  0.916196  0.0  0.30518  0.390214  -6.2e-05  0.938469  0.0
H  H11  1  0.77308624  0.62408737  0.35827682  1  0.424015  -8.9e-05  0.858625  0.0  0.396433  -5.5e-05  0.929501  0.0  0.405446  -4.1e-05  0.916252  0.0  0.305153  0.390176  -6.2e-05  0.938527  0.0
H  H12  1  0.62563478  0.28802217  0.28727245  1  0.42806  -4.7e-05  0.838153  0.0  0.40489  -3.6e-05  0.9027  0.0  0.411812  -3.2e-05  0.892579  0.0  0.320572  0.400127  -3.5e-05  0.909488  0.0
H  H13  1  0.37436418  0.71197985  0.71272775  1  0.428075  -4.8e-05  0.838135  0.0  0.404901  -3.6e-05  0.902692  0.0  0.411822  -3.2e-05  0.892572  0.0  0.320565  0.400138  -3.5e-05  0.909479  0.0
H  H14  1  0.76484569  0.38302876  0.25912667  1  0.44873  0.000199  0.841924  0.0  0.418001  0.000188  0.905236  0.0  0.427839  0.000105  0.890818  0.0  0.311747  0.410875  0.000284  0.915562  0.0
H  H15  1  0.23515770  0.61697128  0.74087517  1  0.448742  0.000198  0.841901  0.0  0.418021  0.000188  0.905201  0.0  0.427858  0.000105  0.890783  0.0  0.311756  0.410894  0.000284  0.915536  0.0
H  H16  1  0.45947862  0.03267294  0.21106510  1  0.115194  0.00015  0.928152  0.0  0.127642  -7.3e-05  0.982738  0.0  0.130499  -7.7e-05  0.980665  0.0  0.121943  0.125305  -5.6e-05  0.984752  0.0
H  H17  1  0.54052620  0.96733202  0.78893837  1  0.115144  0.000149  0.928181  0.0  0.127568  -7.3e-05  0.982801  0.0  0.130424  -7.7e-05  0.980729  0.0  0.121915  0.125233  -5.6e-05  0.984809  0.0
H  H18  1  0.55926697  0.13173035  0.07154332  1  0.12249  0.000575  0.967497  0.0  0.129039  0.000595  1.031352  0.0  0.133766  0.000441  1.028609  0.0  0.112082  0.125537  0.00072  1.033622  0.001
H  H19  1  0.44073436  0.86827556  0.92846161  1  0.122479  0.000574  0.967524  0.0  0.129058  0.000595  1.031342  0.0  0.133785  0.000441  1.028599  0.0  0.112095  0.125567  0.00072  1.033605  0.001
H  H20  1  0.35015176  0.22703982  0.95734507  1  0.098883  0.000934  0.928974  0.002  0.109156  0.000775  0.986388  0.002  0.112156  0.000566  0.983213  0.001  0.127915  0.106772  0.00094  0.989002  0.002
H  H21  1  0.64984787  0.77296023  0.04265547  1  0.09891  0.000931  0.929037  0.002  0.109182  0.000775  0.98645  0.002  0.112183  0.000566  0.983274  0.001  0.127928  0.106798  0.000939  0.989062  0.002
H  H22  1  0.44169375  0.49966599  0.30451504  1  0.112334  0.000101  0.924912  0.0  0.126368  -5.5e-05  0.97633  0.0  0.130154  -6e-05  0.973312  0.0  0.118005  0.123306  -3.9e-05  0.979182  0.0
H  H23  1  0.55830801  0.50033704  0.69548420  1  0.112366  9.8e-05  0.924829  0.0  0.126387  -5.5e-05  0.976276  0.0  0.130173  -6e-05  0.973257  0.0  0.118009  0.123313  -3.9e-05  0.979123  0.0
H  H24  1  0.55989117  0.59073310  0.16538089  1  0.121899  0.000507  0.967033  0.0  0.127488  0.000517  1.030057  0.0  0.132978  0.000379  1.026122  0.0  0.110533  0.123465  0.000632  1.033121  0.001
H  H25  1  0.44011059  0.40926992  0.83461917  1  0.121904  0.000506  0.967046  0.0  0.1275  0.000517  1.030065  0.0  0.132989  0.000379  1.026131  0.0  0.110559  0.123474  0.000632  1.033131  0.001
H  H26  1  0.36682846  0.68734410  0.04286196  1  0.089979  0.000944  0.931092  0.002  0.098989  0.000815  0.992644  0.001  0.101495  0.000605  0.989898  0.001  0.123235  0.096955  0.000975  0.994963  0.002
H  H27  1  0.63316954  0.31265893  0.95713596  1  0.090035  0.000943  0.931111  0.002  0.099042  0.000815  0.99266  0.001  0.10155  0.000604  0.98991  0.001  0.123251  0.097003  0.000975  0.994985  0.002
H  H28  1  0.59265985  0.88480555  0.47391503  1  0.124951  -8e-06  0.927045  0.0  0.139548  -2e-06  0.982785  0.0  0.142678  -2e-06  0.981246  0.0  0.108236  0.137177  -3e-06  0.984328  0.0
H  H29  1  0.40734048  0.11519253  0.52608502  1  0.124971  -5e-06  0.92714  0.0  0.139559  -3e-06  0.982855  0.0  0.14269  -2e-06  0.981317  0.0  0.108235  0.137189  -3e-06  0.984399  0.0
H  H30  1  0.42816461  0.90705600  0.36930305  1  0.103735  1.2e-05  0.924747  0.0  0.12057  1.1e-05  0.981593  0.0  0.121976  1.6e-05  0.98235  0.0  0.101355  0.1196  5e-06  0.981265  0.0
H  H31  1  0.57183166  0.09294109  0.63069618  1  0.103751  1.3e-05  0.924784  0.0  0.120574  1.1e-05  0.981616  0.0  0.12198  1.6e-05  0.982373  0.0  0.101374  0.119607  5e-06  0.981279  0.0
C  C32  1  0.10479733  0.13667394  0.11504562  1  0.068536  -0.008812  3.70892  -0.006  0.0633  -0.002507  3.956165  -0.001  0.067163  -0.003855  3.975004  -0.002  0.114349  0.060501  -0.001574  3.944742  -0.001
C  C33  1  0.89520231  0.86332612  0.88495410  1  0.068543  -0.008816  3.708892  -0.006  0.063326  -0.002504  3.956168  -0.001  0.067194  -0.003855  3.975  -0.002  0.114334  0.060528  -0.001574  3.944744  -0.001
C  C34  1  0.20931760  0.07935483  0.17975521  1  -0.065668  0.006198  3.650633  0.006  -0.053217  0.002146  3.889145  0.002  -0.060237  0.002216  3.90615  0.002  0.016498  -0.04958  0.002179  3.878914  0.002
C  C35  1  0.79068233  0.92064619  0.82024565  1  -0.06564  0.006202  3.65075  0.006  -0.053209  0.002144  3.889234  0.002  -0.060231  0.002217  3.906238  0.002  0.01653  -0.049582  0.002179  3.879017  0.002
C  C36  1  0.37436913  0.07671710  0.16250601  1  -0.007973  -0.012649  3.644538  -0.008  -0.035382  -0.004779  3.891681  -0.003  -0.028664  -0.005404  3.90385  -0.003  -0.052299  -0.040304  -0.004295  3.884899  -0.002
C  C37  1  0.62563455  0.92328391  0.83749779  1  -0.007942  -0.01265  3.644755  -0.008  -0.035317  -0.004777  3.891897  -0.003  -0.028601  -0.005407  3.904071  -0.003  -0.052314  -0.040243  -0.004295  3.885129  -0.002
C  C38  1  0.43035862  0.13124413  0.08437559  1  -0.117888  0.009458  3.705833  0.01  -0.128634  0.003939  3.956297  0.005  -0.134048  0.003631  3.970979  0.004  -0.076119  -0.125336  0.004153  3.947091  0.005
C  C39  1  0.56964090  0.86875983  0.91562689  1  -0.117919  0.009461  3.705978  0.01  -0.128691  0.003939  3.956429  0.005  -0.134105  0.003632  3.97111  0.004  -0.07616  -0.125413  0.004153  3.947245  0.005
C  C40  1  0.31772239  0.18478728  0.02166569  1  0.15507  -0.011649  3.649003  -0.008  0.123766  -0.003246  3.903267  -0.002  0.134679  -0.004892  3.918156  -0.003  0.058958  0.116551  -0.00196  3.893885  -0.001
C  C41  1  0.68227598  0.81521274  0.97833630  1  0.155098  -0.011644  3.649052  -0.008  0.123796  -0.003244  3.903326  -0.002  0.134711  -0.004894  3.918213  -0.003  0.059002  0.11658  -0.00196  3.893947  -0.001
C  C42  1  0.92470814  0.14933841  0.12208430  1  0.632974  -0.006381  3.911753  -0.005  0.584759  -0.001032  4.21986  -0.001  0.621456  -0.001031  4.211284  -0.001  0.214959  0.55977  -0.000926  4.222757  -0.001
C  C43  1  0.07529400  0.85066163  0.87791738  1  0.632919  -0.006385  3.911759  -0.005  0.584646  -0.001034  4.219973  -0.001  0.621342  -0.001031  4.211399  -0.001  0.214884  0.559661  -0.000926  4.222846  -0.001
C  C44  1  0.15449149  0.02209305  0.26763102  1  0.703904  0.00037  3.895878  0.0  0.651123  0.00042  4.202496  0.001  0.687726  0.000176  4.190854  0.0  0.23169  0.626689  0.000697  4.206633  0.001
C  C45  1  0.84550816  0.97790701  0.73236788  1  0.703791  0.00037  3.896095  0.0  0.651082  0.00042  4.202601  0.001  0.687685  0.000175  4.190963  0.0  0.231691  0.626653  0.000697  4.206732  0.001
C  C46  1  0.08960912  0.58328729  0.17443796  1  0.061114  -0.004985  3.716314  -0.003  0.053616  -0.00085  3.970359  0.0  0.057055  -0.00218  3.988417  -0.001  0.111292  0.050757  0.000374  3.960089  0.001
C  C47  1  0.91038927  0.41671276  0.82556159  1  0.061121  -0.004987  3.716232  -0.003  0.053557  -0.000848  3.970361  0.0  0.056993  -0.002181  3.988425  -0.001  0.111248  0.050697  0.000374  3.960084  0.001
C  C48  1  0.18946880  0.53493224  0.25032105  1  -0.065213  0.003787  3.659184  0.004  -0.052758  0.001119  3.898662  0.001  -0.05904  0.001145  3.915537  0.001  0.016378  -0.049701  0.001166  3.889523  0.001
C  C49  1  0.81053155  0.46506590  0.74967493  1  -0.06519  0.003786  3.659048  0.004  -0.052759  0.001118  3.898588  0.001  -0.059039  0.001145  3.915464  0.001  0.016405  -0.049705  0.001167  3.889442  0.001
C  C50  1  0.36085261  0.53721380  0.24660505  1  0.00207  -0.009073  3.630701  -0.005  -0.026642  -0.003071  3.87639  -0.002  -0.021776  -0.003607  3.890608  -0.002  -0.049722  -0.030264  -0.002537  3.868132  -0.001
C  C51  1  0.63914927  0.46278531  0.75339223  1  0.002063  -0.009057  3.630679  -0.005  -0.026622  -0.003069  3.87639  -0.002  -0.021755  -0.003608  3.890607  -0.002  -0.049703  -0.030222  -0.002537  3.868107  -0.001
C  C52  1  0.42775119  0.58990984  0.17102688  1  -0.08755  0.007478  3.669582  0.008  -0.09913  0.0031  3.918863  0.004  -0.104281  0.002749  3.934145  0.003  -0.068305  -0.095931  0.003347  3.908981  0.004
C  C53  1  0.57224778  0.41009221  0.82897089  1  -0.087451  0.007477  3.66951  0.008  -0.099053  0.003099  3.918803  0.004  -0.104203  0.00275  3.934089  0.003  -0.068324  -0.095854  0.003347  3.908912  0.004
C  C54  1  0.32260218  0.64249826  0.10243383  1  0.149375  -0.008922  3.660492  -0.006  0.116506  -0.002136  3.919794  -0.001  0.127287  -0.003469  3.934823  -0.002  0.057796  0.10946  -0.000995  3.910067  0.0
C  C55  1  0.67739497  0.35750181  0.89756394  1  0.149163  -0.008916  3.660361  -0.006  0.116299  -0.002134  3.919665  -0.001  0.127079  -0.003472  3.93469  -0.002  0.057738  0.109251  -0.000995  3.909948  0.0
C  C56  1  0.90020160  0.57804430  0.15980469  1  0.622091  -0.007727  3.909727  -0.007  0.568932  -0.001544  4.224575  -0.002  0.604832  -0.001525  4.218168  -0.001  0.214111  0.5442  -0.00134  4.229017  -0.002
C  C57  1  0.09979650  0.42195476  0.84019535  1  0.622092  -0.007732  3.909616  -0.007  0.56898  -0.001545  4.224421  -0.002  0.604876  -0.001526  4.218023  -0.001  0.214167  0.544261  -0.001341  4.228842  -0.002
C  C58  1  0.12102040  0.48793281  0.33905661  1  0.730711  0.000762  3.88864  0.001  0.683152  0.000696  4.182499  0.001  0.718748  0.000415  4.170443  0.001  0.238524  0.658696  0.001  4.186898  0.001
C  C59  1  0.87898176  0.51206727  0.66094181  1  0.730645  0.000758  3.888855  0.001  0.683109  0.000695  4.182685  0.001  0.718702  0.000415  4.170631  0.001  0.23848  0.658649  0.001  4.187083  0.001
C  C60  1  0.66419147  0.04526689  0.41753784  1  0.688975  -3.7e-05  3.875655  0.0  0.642824  -1.4e-05  4.186905  0.0  0.675397  -4e-06  4.179057  0.0  0.193179  0.621719  -8e-06  4.185925  0.0
C  C61  1  0.33580675  0.95472825  0.58246025  1  0.689027  -4.1e-05  3.87577  0.0  0.642826  -1.4e-05  4.187052  0.0  0.675398  -5e-06  4.179204  0.0  0.193179  0.621713  -7e-06  4.186084  0.0
C  C62  1  0.53479748  0.95980256  0.45002012  1  -0.232681  7e-06  3.660072  0.0  -0.27067  -7e-06  3.906951  0.0  -0.276147  -2e-06  3.915349  0.0  -0.162652  -0.267424  -5e-06  3.902326  0.0
C  C63  1  0.46519977  0.04019357  0.54997732  1  -0.232885  4e-06  3.660264  0.0  -0.270764  -7e-06  3.907053  0.0  -0.276245  -2e-06  3.915454  0.0  -0.162719  -0.267524  -5e-06  3.90243  0.0
N  N64  1  0.15992750  0.18616358  0.03741684  1  -0.303754  0.073175  3.383387  0.095  -0.262685  0.050118  3.685983  0.069  -0.291586  0.041332  3.706199  0.061  -0.352707  -0.245868  0.054764  3.675194  0.071
N  N65  1  0.84007186  0.81383549  0.96258256  1  -0.303768  0.073178  3.383433  0.095  -0.262706  0.050117  3.686037  0.069  -0.291615  0.041333  3.706268  0.061  -0.352723  -0.245883  0.054765  3.675243  0.071
N  N66  1  0.15838640  0.63859041  0.10485802  1  -0.305759  0.067155  3.393277  0.086  -0.264625  0.046407  3.694246  0.063  -0.293118  0.037816  3.71538  0.055  -0.353923  -0.247702  0.051134  3.682318  0.066
N  N67  1  0.84161200  0.36140966  0.89513991  1  -0.305701  0.067154  3.393177  0.086  -0.264514  0.046407  3.694119  0.063  -0.293003  0.037818  3.715244  0.055  -0.353887  -0.247596  0.051137  3.682192  0.066
O  O68  1  0.04028348  0.18113205  0.60912241  1  -0.925747  -1.4e-05  1.824676  0.0  -0.878374  -2.9e-05  2.007953  0.0  -0.896481  -3.8e-05  1.974174  0.0  -0.641163  -0.859039  1.2e-05  2.034497  0.0
O  O69  1  0.95971558  0.81886601  0.39087910  1  -0.925717  -1.5e-05  1.824752  0.0  -0.878385  -2.9e-05  2.007911  0.0  -0.896492  -3.8e-05  1.974135  0.0  -0.641144  -0.859038  1.2e-05  2.034429  0.0
O  O70  1  0.84559630  0.19744818  0.04920857  1  -0.577951  0.080766  2.036318  0.112  -0.554807  0.055651  2.327071  0.084  -0.595423  0.042225  2.317992  0.069  -0.317463  -0.528015  0.064479  2.333649  0.092
O  O71  1  0.15440363  0.80255285  0.95079229  1  -0.577923  0.080764  2.036322  0.112  -0.554763  0.05565  2.327103  0.084  -0.595379  0.042225  2.318034  0.069  -0.317469  -0.527987  0.064479  2.333708  0.092
O  O72  1  0.24286698  0.37987633  0.56540614  1  -0.864176  -9.5e-05  1.83123  0.0  -0.823816  -9.1e-05  2.007581  0.0  -0.840587  -6.8e-05  1.978292  0.0  -0.624263  -0.80655  -9.8e-05  2.03098  0.0
O  O73  1  0.75713363  0.62012273  0.43459423  1  -0.864203  -9.3e-05  1.831219  0.0  -0.823839  -9e-05  2.007575  0.0  -0.840613  -6.8e-05  1.978282  0.0  -0.624281  -0.806573  -9.8e-05  2.030973  0.0
O  O74  1  0.85951158  0.11303911  0.19445596  1  -0.657755  0.013933  2.011407  0.019  -0.621  0.007392  2.253884  0.011  -0.645504  0.003429  2.245283  0.005  -0.346485  -0.597252  0.011831  2.259348  0.016
O  O75  1  0.14049364  0.88696291  0.80554589  1  -0.657697  0.013937  2.011375  0.019  -0.620913  0.007393  2.253866  0.011  -0.645419  0.00343  2.245268  0.005  -0.34639  -0.597165  0.011833  2.259319  0.016
O  O76  1  0.73690789  0.34984959  0.32114830  1  -0.879866  0.000274  1.912154  0.0  -0.83438  0.00019  2.094928  0.0  -0.850513  0.0001  2.066215  0.0  -0.593823  -0.817809  0.000302  2.117217  0.0
O  O77  1  0.26309271  0.65014946  0.67885288  1  -0.879901  0.000276  1.912108  0.0  -0.834431  0.000191  2.094899  0.0  -0.850563  0.0001  2.066191  0.0  -0.593834  -0.817861  0.000302  2.117175  0.0
O  O78  1  0.12189348  0.89813497  0.23701116  1  -0.6286  3.5e-05  1.998449  0.002  -0.581785  -0.000557  2.242345  0.001  -0.613349  -0.001037  2.231655  0.0  -0.301214  -0.559858  0.000109  2.249561  0.001
O  O79  1  0.87810827  0.10186803  0.76298971  1  -0.62854  3.4e-05  1.998352  0.002  -0.581774  -0.000557  2.242249  0.001  -0.613325  -0.001037  2.231525  0.0  -0.301239  -0.55984  0.000109  2.249443  0.001
O  O80  1  0.15669566  0.10270341  0.36828369  1  -0.700274  0.001442  1.99866  0.002  -0.651171  0.000691  2.243465  0.001  -0.675714  0.00039  2.231234  0.001  -0.389607  -0.626626  0.001062  2.252098  0.001
O  O81  1  0.84330329  0.89729859  0.63171815  1  -0.700236  0.001441  1.998899  0.002  -0.651159  0.000691  2.243672  0.001  -0.675702  0.000389  2.231441  0.001  -0.389585  -0.626616  0.001062  2.252302  0.001
O  O82  1  0.83727748  0.64630768  0.10067172  1  -0.570914  0.09423  2.049224  0.13  -0.548474  0.063368  2.335336  0.095  -0.591473  0.047839  2.328948  0.078  -0.317568  -0.520184  0.073189  2.34026  0.104
O  O83  1  0.16271937  0.35369139  0.89932735  1  -0.57089  0.094227  2.049311  0.13  -0.548458  0.063366  2.335393  0.095  -0.591456  0.047836  2.329004  0.078  -0.317578  -0.520176  0.073186  2.340317  0.104
O  O84  1  0.81152566  0.50828215  0.19993661  1  -0.601079  0.015112  2.001415  0.02  -0.549008  0.008086  2.227977  0.012  -0.575363  0.003731  2.219243  0.006  -0.292311  -0.529981  0.012832  2.233463  0.017
O  O85  1  0.18847302  0.49171890  0.80006164  1  -0.601112  0.015114  2.001251  0.02  -0.549061  0.008086  2.2278  0.012  -0.575414  0.003731  2.219069  0.006  -0.292336  -0.530032  0.012833  2.233283  0.017
O  O86  1  0.09914134  0.36608666  0.32067216  1  -0.710664  0.000515  2.017815  0.001  -0.664428  0.000184  2.261291  0.0  -0.690825  4e-05  2.252487  0.0  -0.373663  -0.639756  0.000439  2.267895  0.001
O  O87  1  0.90086136  0.63391530  0.67933342  1  -0.710647  0.000516  2.017851  0.001  -0.664423  0.000184  2.26133  0.0  -0.69082  4e-05  2.252528  0.0  -0.373645  -0.639748  0.000439  2.267931  0.001
O  O88  1  0.09782554  0.57419839  0.42736525  1  -0.732089  0.001507  2.057147  0.002  -0.689239  0.000825  2.313921  0.001  -0.713602  0.000502  2.301216  0.001  -0.383676  -0.664023  0.001188  2.322412  0.002
O  O89  1  0.90218056  0.42580664  0.57263351  1  -0.732107  0.001508  2.05736  0.002  -0.689242  0.000825  2.314083  0.001  -0.713604  0.000502  2.30138  0.001  -0.383682  -0.664025  0.001188  2.322566  0.002
O  O90  1  0.65363573  0.16379066  0.43122634  1  -0.7077  2.1e-05  1.921437  0.0  -0.663622  -6e-06  2.157295  0.0  -0.686675  -2.5e-05  2.1479  0.0  -0.399316  -0.642177  2.3e-05  2.163124  0.0
O  O91  1  0.34636419  0.83621037  0.56877452  1  -0.707653  2.2e-05  1.921567  0.0  -0.663551  -5e-06  2.157437  0.0  -0.686603  -2.6e-05  2.148043  0.0  -0.399275  -0.642103  2.3e-05  2.163266  0.0
O  O92  1  0.78488639  0.99993868  0.37661991  1  -0.714606  0.000117  2.007888  0.0  -0.663095  3.9e-05  2.240711  0.0  -0.687096  1.4e-05  2.229109  0.0  -0.364744  -0.641678  7e-05  2.247799  0.0
O  O93  1  0.21511297  0.00006039  0.62337948  1  -0.714676  0.000118  2.007941  0.0  -0.663164  3.9e-05  2.240791  0.0  -0.687166  1.4e-05  2.229187  0.0  -0.364793  -0.641741  6.9e-05  2.247885  0.0
