# generated using pymatgen
data_CuPH15C13N3ClO3
_symmetry_space_group_name_H-M   'P 1'
_cell_length_a   9.24162571
_cell_length_b   12.06287343
_cell_length_c   13.28392877
_cell_angle_alpha   90.00163533
_cell_angle_beta   89.99850561
_cell_angle_gamma   104.12411001
_symmetry_Int_Tables_number   1
_chemical_formula_structural   CuPH15C13N3ClO3
_chemical_formula_sum   'Cu4 P4 H60 C52 N12 Cl4 O12'
_cell_volume   1436.13136831
_cell_formula_units_Z   4
loop_
 _symmetry_equiv_pos_site_id
 _symmetry_equiv_pos_as_xyz
  1  'x, y, z'
loop_
 _atom_site_type_symbol
 _atom_site_label
 _atom_site_symmetry_multiplicity
 _atom_site_fract_x
 _atom_site_fract_y
 _atom_site_fract_z
 _atom_site_occupancy
 _atom_site_hle17_ddec_charge
 _atom_site_hle17_ddec_spin_density
 _atom_site_hle17_ddec_sum_bond_order
 _atom_site_hle17_magmom
 _atom_site_hse06_10hf_ddec_charge
 _atom_site_hse06_10hf_ddec_spin_density
 _atom_site_hse06_10hf_ddec_sum_bond_order
 _atom_site_hse06_10hf_magmom
 _atom_site_hse06_ddec_charge
 _atom_site_hse06_ddec_spin_density
 _atom_site_hse06_ddec_sum_bond_order
 _atom_site_hse06_magmom
 _atom_site_pbe_cm5_charge
 _atom_site_pbe_ddec_charge
 _atom_site_pbe_ddec_spin_density
 _atom_site_pbe_ddec_sum_bond_order
 _atom_site_pbe_magmom
Cu  Cu0  1  0.30901797  0.36516078  0.38376415  1  0.728283  0.659513  1.934038  0.46  0.691182  0.750994  2.336193  0.574  0.776781  0.82896  2.272392  0.663  0.686655  0.643868  0.699421  2.378461  0.52
Cu  Cu1  1  0.19094546  0.13480794  0.88375664  1  0.72837  -0.71325  1.934114  -0.458  0.690785  -0.800302  2.336876  -0.573  0.776689  -0.900422  2.272566  -0.662  0.686634  0.643309  -0.729815  2.379161  -0.517
Cu  Cu2  1  0.69094961  0.63480630  0.61623306  1  0.728275  0.656381  1.934449  0.458  0.691047  0.750125  2.336785  0.573  0.776628  0.828686  2.272938  0.663  0.686804  0.643686  0.696219  2.379065  0.518
Cu  Cu3  1  0.80903064  0.86514199  0.11624811  1  0.728441  0.659529  1.933906  0.46  0.691033  0.750979  2.336481  0.574  0.776941  0.82895  2.272249  0.663  0.68648  0.643621  0.698028  2.378763  0.519
P  P4  1  0.60606830  0.58087559  0.13356569  1  1.456029  0.005743  4.851282  0.004  1.310588  0.003991  5.35217  0.003  1.361296  0.002462  5.311333  0.002  0.333998  1.275708  0.00534  5.378303  0.004
P  P5  1  0.89387542  0.91913231  0.63354681  1  1.456251  -0.007013  4.850891  -0.005  1.31072  -0.004625  5.351703  -0.004  1.361477  -0.003025  5.310618  -0.003  0.334101  1.27582  -0.005915  5.377894  -0.004
P  P6  1  0.39389907  0.41913427  0.86645261  1  1.456333  0.006298  4.850745  0.005  1.310827  0.004366  5.3515  0.004  1.361592  0.002789  5.310434  0.003  0.334283  1.275954  0.005721  5.377703  0.004
P  P7  1  0.10608619  0.08086645  0.36644062  1  1.456232  0.005788  4.850588  0.004  1.310689  0.00394  5.351514  0.003  1.361359  0.002443  5.310712  0.002  0.334104  1.275811  0.005232  5.377583  0.004
H  H8  1  0.60525352  0.52595577  0.31014678  1  0.124421  0.000349  0.971325  0.001  0.132742  0.000328  1.041164  0.0  0.13473  0.000195  1.040037  0.0  0.104896  0.131346  0.000413  1.041989  0.0
H  H9  1  0.89472877  0.97401807  0.81013081  1  0.124395  -6.2e-05  0.971485  -0.001  0.132637  6.2e-05  1.041382  0.0  0.134635  9.2e-05  1.040255  0.0  0.104932  0.131235  5.5e-05  1.042219  0.0
H  H10  1  0.39473277  0.47401895  0.68987453  1  0.124435  0.000339  0.97151  0.001  0.132632  0.000322  1.041422  0.0  0.134621  0.000187  1.040303  0.0  0.104923  0.131239  0.000414  1.04225  0.0
H  H11  1  0.10525308  0.02594297  0.18985286  1  0.124454  2.2e-05  0.9714  0.001  0.132745  -8.9e-05  1.041206  0.0  0.134736  -0.000115  1.040077  0.0  0.104921  0.131345  -8.5e-05  1.042039  0.0
H  H12  1  0.44186173  0.56799083  0.27477523  1  0.114519  0.001774  0.950013  0.002  0.124409  0.001065  1.016253  0.001  0.124756  0.000609  1.016545  0.001  0.111285  0.124071  0.001539  1.016231  0.002
H  H13  1  0.05812259  0.93199436  0.77473114  1  0.114372  -0.001883  0.950029  -0.002  0.124293  -0.001079  1.016219  -0.001  0.12465  -0.000637  1.016513  -0.001  0.111184  0.123949  -0.001505  1.016176  -0.002
H  H14  1  0.55812599  0.43199501  0.72524833  1  0.114456  0.001735  0.950093  0.002  0.124359  0.001048  1.016283  0.001  0.124707  0.000602  1.016588  0.001  0.111232  0.123993  0.00149  1.016297  0.002
H  H15  1  0.94186306  0.06796837  0.22525027  1  0.114534  0.001758  0.94998  0.002  0.124324  0.001014  1.016263  0.001  0.124666  0.000574  1.016567  0.001  0.11127  0.124011  0.001474  1.016189  0.002
H  H16  1  0.42547987  0.57384452  0.01804719  1  0.431291  2.4e-05  0.883243  0.0  0.396211  3.7e-05  0.954601  0.0  0.408351  1.7e-05  0.93725  0.0  0.296343  0.387832  5.4e-05  0.966502  0.0
H  H17  1  0.07447533  0.92614782  0.51804104  1  0.431432  1e-06  0.883006  0.0  0.396351  -1.1e-05  0.954342  0.0  0.40849  -1.4e-05  0.936993  0.0  0.296454  0.387961  -5e-06  0.96626  0.0
H  H18  1  0.57448848  0.42615165  0.98196132  1  0.431419  3.2e-05  0.883057  0.0  0.396397  4.6e-05  0.954316  0.0  0.40854  2.6e-05  0.93696  0.0  0.296451  0.388009  6.2e-05  0.96623  0.0
H  H19  1  0.92548346  0.07383555  0.48195316  1  0.431392  -2e-05  0.883104  0.0  0.39635  -2e-06  0.954391  0.0  0.408485  2e-06  0.937047  0.0  0.296389  0.387965  -1.1e-05  0.966302  0.0
H  H20  1  0.62910605  0.34466326  0.20077597  1  0.102337  0.003862  0.922898  0.005  0.115668  0.002443  0.98246  0.003  0.115679  0.001535  0.98307  0.002  0.112791  0.115597  0.003102  0.982084  0.004
H  H21  1  0.87087830  0.15533287  0.70077401  1  0.102332  -0.004177  0.923063  -0.005  0.115692  -0.00261  0.982565  -0.003  0.115703  -0.00167  0.983179  -0.002  0.112812  0.115613  -0.003252  0.982185  -0.004
H  H22  1  0.37089081  0.65535078  0.79922200  1  0.10229  0.003859  0.922809  0.005  0.115627  0.00245  0.982416  0.003  0.115641  0.001538  0.983021  0.002  0.112788  0.115552  0.003121  0.982056  0.004
H  H23  1  0.12911156  0.84464953  0.29923977  1  0.102404  0.003884  0.923007  0.005  0.115766  0.002477  0.982505  0.003  0.115767  0.001561  0.98312  0.002  0.112865  0.115685  0.003146  0.982135  0.004
H  H24  1  0.47034599  0.23164155  0.22951669  1  0.108632  -0.000376  0.93567  0.0  0.122729  -0.000376  0.998599  0.0  0.123568  -0.000335  0.998574  0.0  0.118205  0.121952  -0.000405  0.998823  0.0
H  H25  1  0.02964917  0.26834703  0.72950275  1  0.108715  0.00043  0.935618  0.0  0.122767  0.000399  0.998621  0.0  0.123603  0.000356  0.998596  0.0  0.118215  0.122009  0.000423  0.998816  0.0
H  H26  1  0.52967020  0.76835531  0.77047978  1  0.108584  -5.6e-05  0.935676  0.0  0.122666  4.4e-05  0.998635  0.0  0.123505  -1.5e-05  0.998609  0.0  0.118209  0.121899  0.000105  0.998858  0.0
H  H27  1  0.97036092  0.73163103  0.27048769  1  0.108689  1e-06  0.935729  0.0  0.122798  7.6e-05  0.998648  0.0  0.123632  1.8e-05  0.998628  0.0  0.118209  0.122042  0.000135  0.998838  0.0
H  H28  1  0.45213001  0.33693763  0.58380723  1  0.077801  0.001144  0.979565  0.002  0.085689  0.001061  1.047171  0.001  0.087207  0.000768  1.046305  0.001  0.107953  0.084068  0.001279  1.048635  0.002
H  H29  1  0.04794962  0.16314445  0.08378788  1  0.077738  -0.001175  0.979696  -0.002  0.085751  -0.001061  1.047142  -0.001  0.087265  -0.000811  1.046276  -0.001  0.107999  0.084128  -0.001227  1.04857  -0.002
H  H30  1  0.54794222  0.66310868  0.41619902  1  0.077623  0.001137  0.979744  0.002  0.085605  0.001048  1.047231  0.001  0.087106  0.000761  1.046382  0.001  0.107894  0.083985  0.001268  1.048691  0.002
H  H31  1  0.95211932  0.83689502  0.91621761  1  0.077905  0.001052  0.979638  0.002  0.08573  0.000978  1.04728  0.001  0.087248  0.000732  1.04641  0.001  0.107955  0.084109  0.00115  1.048719  0.002
H  H32  1  0.69140433  0.28875703  0.63783890  1  0.096714  0.000394  0.948027  0.0  0.110451  0.0004  1.002907  0.0  0.11324  0.000305  1.003118  0.0  0.105009  0.108362  0.000489  1.003166  0.001
H  H33  1  0.80863035  0.21125014  0.13784696  1  0.096723  -0.000379  0.948114  0.0  0.110577  -0.000357  1.002836  0.0  0.113363  -0.000285  1.003047  0.0  0.105103  0.108473  -0.000409  1.003112  -0.001
H  H34  1  0.30865656  0.71125423  0.36215078  1  0.096752  0.000514  0.948012  0.0  0.11062  0.000614  1.002722  0.0  0.113407  0.000436  1.002936  0.0  0.105057  0.108501  0.000787  1.003023  0.001
H  H35  1  0.19141089  0.78873722  0.86216381  1  0.09688  0.000466  0.947907  0.0  0.110629  0.000537  1.00277  0.0  0.113416  0.000385  1.002986  0.0  0.105027  0.108521  0.000676  1.003056  0.001
H  H36  1  0.86682344  0.25247197  0.50208484  1  0.116667  0.000129  0.943823  0.0  0.127024  -5.3e-05  1.000516  0.0  0.130034  -5.3e-05  0.997739  0.0  0.112498  0.12416  -3.4e-05  1.00378  0.0
H  H37  1  0.63317709  0.24749415  0.00210755  1  0.116737  -0.000121  0.943539  0.0  0.126945  7.6e-05  1.000426  0.0  0.129947  6.2e-05  0.997661  0.0  0.112495  0.124083  7.5e-05  1.00369  0.0
H  H38  1  0.13320588  0.74751201  0.49789657  1  0.116813  9.9e-05  0.943633  0.0  0.126954  -6.8e-05  1.000594  0.0  0.129952  -6.1e-05  0.997835  0.0  0.112571  0.124091  -5.6e-05  1.003853  0.0
H  H39  1  0.36685083  0.75248214  0.99790397  1  0.116648  0.000134  0.943681  0.0  0.12693  -4.3e-05  1.000483  0.0  0.12994  -5e-05  0.997699  0.0  0.112436  0.124065  -2.1e-05  1.003758  0.0
H  H40  1  0.79402803  0.26328862  0.32352627  1  0.109941  0.000703  0.94095  0.001  0.121879  0.000691  0.997264  0.001  0.124886  0.000502  0.996923  0.001  0.108281  0.119409  0.000868  0.998247  0.001
H  H41  1  0.70596008  0.23668330  0.82354069  1  0.110257  -0.000764  0.940934  -0.001  0.122046  -0.000747  0.997367  -0.001  0.125045  -0.000549  0.99703  -0.001  0.108414  0.119581  -0.000919  0.99834  -0.001
H  H42  1  0.20597937  0.73669116  0.67646116  1  0.110164  0.000702  0.94108  0.001  0.121956  0.000713  0.997479  0.001  0.124946  0.000512  0.997166  0.001  0.108381  0.119498  0.000899  0.998452  0.001
H  H43  1  0.29407201  0.76330923  0.17646707  1  0.109885  0.00073  0.941028  0.001  0.121908  0.000743  0.997249  0.001  0.124903  0.000536  0.996929  0.001  0.108311  0.119435  0.000934  0.998235  0.001
H  H44  1  0.27832292  0.27431753  0.16880200  1  0.112279  2.1e-05  0.94781  0.0  0.125211  -0.000123  1.010913  0.0  0.12667  -0.000164  1.009559  0.0  0.111717  0.124035  -9.7e-05  1.012165  0.0
H  H45  1  0.22164871  0.22568154  0.66880306  1  0.112272  -6.6e-05  0.947707  0.0  0.125213  0.000109  1.010856  0.0  0.126682  0.000156  1.009493  0.0  0.11168  0.124056  8.1e-05  1.012084  0.0
H  H46  1  0.72164980  0.72568547  0.83119898  1  0.11227  9.3e-05  0.947795  0.0  0.125184  7.1e-05  1.010953  0.0  0.12665  -2.6e-05  1.009597  0.0  0.111689  0.124014  0.000133  1.012198  0.0
H  H47  1  0.77831446  0.77430865  0.33119040  1  0.112315  8.3e-05  0.947699  0.0  0.125205  6e-05  1.010843  0.0  0.126668  -3.1e-05  1.009487  0.0  0.111698  0.124043  0.000128  1.012065  0.0
H  H48  1  0.36478819  0.39491520  0.09564972  1  0.099061  0.004195  0.949785  0.006  0.109643  0.002553  1.014044  0.004  0.109811  0.00156  1.013743  0.002  0.115353  0.109236  0.003236  1.014561  0.004
H  H49  1  0.13523711  0.10507067  0.59565148  1  0.099091  -0.004515  0.949721  -0.006  0.109679  -0.002716  1.014018  -0.004  0.109855  -0.001693  1.013725  -0.002  0.115425  0.109252  -0.003365  1.014551  -0.004
H  H50  1  0.63523174  0.60507652  0.90434448  1  0.09907  0.004145  0.94974  0.006  0.109625  0.002523  1.014077  0.003  0.109802  0.001538  1.013776  0.002  0.11541  0.109212  0.003197  1.01459  0.004
H  H51  1  0.86477614  0.89489710  0.40435853  1  0.099099  0.004176  0.94968  0.006  0.109674  0.002545  1.013911  0.004  0.10984  0.001557  1.013622  0.002  0.115417  0.109257  0.003204  1.014434  0.004
H  H52  1  0.03794835  0.47024812  0.41050855  1  0.08329  0.00108  0.968374  0.002  0.08918  0.00098  1.037167  0.001  0.091279  0.000704  1.03522  0.001  0.106461  0.08734  0.001218  1.039249  0.002
H  H53  1  0.46206279  0.02980756  0.91053406  1  0.083236  -0.001063  0.968345  -0.002  0.089087  -0.00091  1.037177  -0.001  0.091188  -0.000669  1.035222  -0.001  0.10646  0.087259  -0.001106  1.039268  -0.002
H  H54  1  0.96205808  0.52981552  0.58945254  1  0.083047  0.001086  0.968495  0.002  0.089034  0.000982  1.0372  0.001  0.091141  0.000704  1.03522  0.001  0.106502  0.087186  0.001222  1.039311  0.002
H  H55  1  0.53795412  0.97024835  0.08950155  1  0.083243  0.000952  0.968364  0.002  0.089149  0.000838  1.037149  0.001  0.091245  0.0006  1.035216  0.001  0.106456  0.087318  0.001038  1.039235  0.002
H  H56  1  0.86990096  0.53957543  0.29071206  1  0.111969  0.001778  0.976495  0.001  0.12231  0.001699  1.037454  0.001  0.125874  0.001315  1.035745  0.001  0.09902  0.119794  0.001994  1.038543  0.001
H  H57  1  0.63007657  0.96044156  0.79074870  1  0.112067  0.000906  0.976181  0.0  0.122193  0.000817  1.037394  0.0  0.125763  0.000644  1.035663  0.0  0.09903  0.119663  0.000929  1.038539  0.0
H  H58  1  0.13006963  0.46043100  0.70923472  1  0.111971  0.001777  0.976336  0.001  0.122175  0.001707  1.037451  0.001  0.12574  0.001317  1.035739  0.001  0.099006  0.11967  0.002004  1.03854  0.001
H  H59  1  0.36991300  0.03957337  0.20929519  1  0.112045  -0.001041  0.976386  0.0  0.122358  -0.000917  1.037394  0.0  0.125927  -0.000741  1.035677  0.0  0.099028  0.119811  -0.001021  1.038546  0.0
H  H60  1  0.91754348  0.53292990  0.10606060  1  0.106312  0.000166  0.960321  0.0  0.116218  -6e-06  1.018919  0.0  0.119227  -2.2e-05  1.016197  0.0  0.108778  0.113824  1e-05  1.021145  0.0
H  H61  1  0.58243900  0.96705748  0.60608548  1  0.106108  -0.000191  0.960484  0.0  0.116206  3.2e-05  1.018902  0.0  0.119216  3.3e-05  1.016172  0.0  0.108782  0.113814  3.3e-05  1.021121  0.0
H  H62  1  0.08244258  0.46705081  0.89389221  1  0.106191  0.000179  0.960393  0.0  0.116175  -2e-06  1.018933  0.0  0.119195  -1.8e-05  1.016201  0.0  0.108719  0.113765  1.4e-05  1.021158  0.0
H  H63  1  0.41755685  0.03293004  0.39395615  1  0.106246  0.000157  0.960326  0.0  0.116194  -4.2e-05  1.0189  0.0  0.119202  -4.2e-05  1.016171  0.0  0.10872  0.113801  -4.4e-05  1.021113  0.0
H  H64  1  0.13985112  0.45864385  0.04753956  1  0.123536  0.000604  0.959897  0.001  0.13308  0.00056  1.017466  0.001  0.136329  0.000407  1.016761  0.0  0.110246  0.130622  0.000686  1.018244  0.001
H  H65  1  0.36012099  0.04133924  0.54756044  1  0.123323  -0.00064  0.959988  -0.001  0.133083  -0.000594  1.017321  -0.001  0.136331  -0.000439  1.016618  0.0  0.110164  0.130592  -0.000684  1.018121  -0.001
H  H66  1  0.86013580  0.54134284  0.95243433  1  0.123318  0.000588  0.960012  0.001  0.133135  0.000549  1.017271  0.001  0.136382  0.000396  1.016565  0.0  0.110231  0.130672  0.000677  1.01805  0.001
H  H67  1  0.63987516  0.95865255  0.45246614  1  0.123653  0.000563  0.959754  0.001  0.133266  0.000541  1.01724  0.001  0.136514  0.00039  1.016535  0.0  0.110253  0.130779  0.000632  1.018045  0.001
C  C68  1  0.51850810  0.51586254  0.25190563  1  -0.367435  0.001198  3.617541  -0.002  -0.404724  0.001497  3.873377  -0.002  -0.407326  -0.000256  3.881596  -0.003  -0.091062  -0.402427  0.003539  3.867897  0.0
C  C69  1  0.98147033  0.98412264  0.75188158  1  -0.367323  -0.001634  3.617693  0.003  -0.404475  -0.001541  3.873361  0.002  -0.40709  1.6e-05  3.881561  0.003  -0.091117  -0.402153  -0.003289  3.867843  0.0
C  C70  1  0.48147694  0.48412502  0.74811568  1  -0.367487  0.001238  3.61805  -0.002  -0.404598  0.001536  3.873763  -0.001  -0.407217  -0.00023  3.881956  -0.003  -0.091211  -0.402335  0.003498  3.868328  0.0
C  C71  1  0.01851890  0.01584779  0.24810435  1  -0.367526  0.000693  3.617731  -0.003  -0.404617  0.001116  3.87338  -0.002  -0.407201  -0.000454  3.881578  -0.003  -0.091089  -0.402293  0.002998  3.867861  0.0
C  C72  1  0.53522800  0.31642348  0.25338664  1  -0.097515  -0.002826  3.613116  -0.006  -0.155897  0.000745  3.85988  -0.003  -0.152825  -1e-05  3.873038  -0.003  -0.059526  -0.157568  0.001541  3.851163  -0.002
C  C73  1  0.96476264  0.18357143  0.75337995  1  -0.097585  0.002202  3.613458  0.006  -0.155976  -0.00102  3.860118  0.003  -0.152914  -0.000287  3.873287  0.003  -0.059593  -0.157646  -0.001775  3.851374  0.002
C  C74  1  0.46477416  0.68357685  0.74661208  1  -0.097249  -0.002744  3.613006  -0.006  -0.155667  0.000926  3.859739  -0.002  -0.152596  0.000121  3.872888  -0.003  -0.059507  -0.157341  0.001812  3.851029  -0.002
C  C75  1  0.03524019  0.81641094  0.24662329  1  -0.097913  -0.002689  3.613589  -0.006  -0.156388  0.000969  3.860333  -0.002  -0.153305  0.000163  3.873482  -0.002  -0.059727  -0.158062  0.001829  3.851601  -0.002
C  C76  1  0.58829210  0.30865360  0.35961217  1  0.241662  -0.002649  3.700844  -0.002  0.243636  0.00155  3.945744  0.001  0.25394  9e-06  3.966269  0.0  0.122785  0.236744  0.002717  3.932186  0.003
C  C77  1  0.91171822  0.19135769  0.85961266  1  0.24182  0.002045  3.701088  0.002  0.24373  -0.001853  3.946009  -0.001  0.254021  -0.000387  3.966587  0.0  0.12276  0.236835  -0.002899  3.932451  -0.003
C  C78  1  0.41172662  0.69135781  0.64038355  1  0.241795  -0.002673  3.700935  -0.002  0.243666  0.001532  3.945942  0.001  0.253961  7e-06  3.966478  0.0  0.122789  0.236789  0.002648  3.932363  0.003
C  C79  1  0.08831177  0.80864170  0.14039509  1  0.241526  -0.002719  3.700739  -0.002  0.243586  0.001519  3.945685  0.001  0.253879  -2.2e-05  3.96622  0.0  0.122491  0.236689  0.00266  3.932153  0.003
C  C80  1  0.53317990  0.32059975  0.52986742  1  0.124363  -0.008093  3.718583  -0.008  0.091109  -0.001797  3.980192  -0.003  0.099615  -0.002709  4.000759  -0.004  0.044391  0.085883  -0.001033  3.967681  -0.002
C  C81  1  0.96686716  0.17944310  0.02986049  1  0.124952  0.007258  3.718409  0.009  0.091584  0.00142  3.98002  0.003  0.100097  0.002167  4.000626  0.004  0.044532  0.086368  0.000797  3.967481  0.002
C  C82  1  0.46687491  0.67942950  0.47013206  1  0.124864  -0.008209  3.718447  -0.008  0.091562  -0.001887  3.98002  -0.003  0.100075  -0.002752  4.000604  -0.004  0.044656  0.08633  -0.001099  3.967498  -0.002
C  C83  1  0.03318840  0.82057845  0.97014801  1  0.124359  -0.007978  3.719056  -0.008  0.091185  -0.001642  3.980741  -0.003  0.099686  -0.002521  4.001326  -0.004  0.044354  0.085983  -0.000953  3.968203  -0.002
C  C84  1  0.66510825  0.29341744  0.55826410  1  -0.122061  0.008058  3.747589  0.008  -0.137705  0.003216  4.004436  0.004  -0.146447  0.003081  4.026199  0.004  -0.084659  -0.132386  0.003299  3.990013  0.004
C  C85  1  0.83492748  0.20659709  0.05827005  1  -0.122304  -0.00902  3.747221  -0.008  -0.138011  -0.003609  4.004139  -0.004  -0.146758  -0.003546  4.025909  -0.004  -0.08486  -0.132695  -0.003548  3.989737  -0.004
C  C86  1  0.33494945  0.70660068  0.44172709  1  -0.122205  0.00821  3.747209  0.008  -0.137883  0.003383  4.004045  0.004  -0.146628  0.003192  4.025821  0.004  -0.084764  -0.132544  0.003535  3.98963  0.004
C  C87  1  0.16512065  0.79340823  0.94174147  1  -0.122333  0.008387  3.747798  0.009  -0.137975  0.003517  4.004574  0.004  -0.146722  0.003353  4.026339  0.004  -0.084718  -0.132655  0.003643  3.99018  0.004
C  C88  1  0.76146007  0.27295025  0.48379554  1  0.025407  -0.008261  3.673619  -0.007  0.005711  -0.002639  3.921386  -0.002  0.012595  -0.00298  3.936246  -0.003  -0.057837  0.00158  -0.002294  3.911817  -0.002
C  C89  1  0.73855045  0.22703601  0.98381063  1  0.025739  0.007872  3.673309  0.007  0.006056  0.002684  3.921235  0.002  0.012932  0.002882  3.936103  0.003  -0.057739  0.001913  0.00242  3.91172  0.002
C  C90  1  0.23857585  0.72704741  0.51618888  1  0.025547  -0.008397  3.673518  -0.007  0.005835  -0.002714  3.921525  -0.002  0.012708  -0.003017  3.9364  -0.003  -0.057895  0.001693  -0.002367  3.911995  -0.002
C  C91  1  0.26148733  0.77295736  0.01620089  1  0.025579  -0.008332  3.67358  -0.007  0.006011  -0.002698  3.921298  -0.002  0.012879  -0.003043  3.936198  -0.003  -0.057667  0.001876  -0.002397  3.911762  -0.002
C  C92  1  0.72124546  0.27972461  0.38325269  1  -0.152184  0.0064  3.697314  0.006  -0.16997  0.002462  3.94442  0.002  -0.17854  0.002601  3.965023  0.003  -0.079251  -0.164167  0.002338  3.930938  0.002
C  C93  1  0.77874966  0.22026252  0.88326387  1  -0.152864  -0.007112  3.697891  -0.006  -0.170507  -0.002796  3.945057  -0.002  -0.179078  -0.002985  3.965684  -0.003  -0.079438  -0.164702  -0.002605  3.931571  -0.002
C  C94  1  0.27876832  0.72027483  0.61673549  1  -0.152737  0.006539  3.697865  0.006  -0.170282  0.002558  3.944994  0.002  -0.178855  0.002684  3.96562  0.003  -0.079365  -0.16447  0.002421  3.931489  0.002
C  C95  1  0.22127465  0.77973603  0.11674615  1  -0.15211  0.006481  3.697384  0.006  -0.170077  0.002599  3.944629  0.002  -0.178645  0.002731  3.965228  0.003  -0.079236  -0.164278  0.002478  3.931172  0.002
C  C96  1  0.32005884  0.36778919  0.17066523  1  -0.109952  -0.002628  3.63231  -0.006  -0.16591  0.000796  3.872812  -0.002  -0.162978  -6.1e-05  3.885762  -0.002  -0.066531  -0.167952  0.001613  3.865066  -0.002
C  C97  1  0.17993624  0.13220899  0.67067516  1  -0.110142  0.002022  3.632494  0.006  -0.166288  -0.001074  3.873214  0.002  -0.163368  -0.000255  3.886137  0.002  -0.066774  -0.168274  -0.001795  3.865435  0.002
C  C98  1  0.67994035  0.63221201  0.82932521  1  -0.110003  -0.002724  3.632302  -0.006  -0.166016  0.000765  3.872835  -0.002  -0.163118  -0.000113  3.885801  -0.002  -0.066728  -0.168002  0.0016  3.865052  -0.002
C  C99  1  0.82005963  0.86778195  0.32933334  1  -0.110084  -0.002834  3.632233  -0.006  -0.165966  0.000717  3.872551  -0.002  -0.163057  -0.000127  3.885549  -0.002  -0.066619  -0.167957  0.001508  3.864746  -0.002
C  C100  1  0.19464201  0.42065464  0.19791727  1  0.250596  -0.003544  3.696138  -0.003  0.253961  0.000896  3.937044  0.001  0.264031  -0.000476  3.957921  -0.001  0.119924  0.247053  0.001981  3.923779  0.002
C  C101  1  0.30537088  0.07937500  0.69794013  1  0.250753  0.002733  3.69542  0.003  0.254068  -0.001191  3.936417  -0.001  0.264146  9.5e-05  3.95732  0.001  0.119959  0.247079  -0.002223  3.923237  -0.002
C  C102  1  0.80537527  0.57937902  0.80205661  1  0.250774  -0.003623  3.695328  -0.003  0.254048  0.000854  3.936355  0.001  0.264129  -0.000508  3.957207  -0.001  0.119921  0.247073  0.001941  3.92318  0.002
C  C103  1  0.69464036  0.92064670  0.30208268  1  0.250606  -0.00338  3.696132  -0.003  0.253967  0.000893  3.937034  0.001  0.264028  -0.000445  3.957945  -0.001  0.120003  0.247036  0.001989  3.923764  0.002
C  C104  1  0.05350295  0.46812478  0.32929295  1  0.130721  -0.007288  3.709076  -0.008  0.103687  -0.001146  3.958901  -0.002  0.112838  -0.00214  3.978986  -0.003  0.045472  0.097634  -0.000553  3.946756  -0.002
C  C105  1  0.44650489  0.03192796  0.82932030  1  0.130475  0.006454  3.709021  0.007  0.103476  0.001073  3.958778  0.002  0.112624  0.001892  3.978882  0.003  0.04542  0.097394  0.000591  3.94665  0.002
C  C106  1  0.94650559  0.53193201  0.67066738  1  0.13061  -0.00739  3.708738  -0.008  0.103483  -0.001206  3.958543  -0.002  0.112626  -0.002176  3.978635  -0.003  0.045351  0.097427  -0.000626  3.946394  -0.002
C  C107  1  0.55351576  0.96812280  0.17071455  1  0.130716  -0.007232  3.709236  -0.007  0.103671  -0.001336  3.959099  -0.002  0.112824  -0.002262  3.979185  -0.003  0.045501  0.09759  -0.000773  3.94697  -0.002
C  C108  1  0.96133675  0.50646189  0.26182402  1  -0.134428  0.01004  3.735637  0.01  -0.14796  0.005146  3.984869  0.006  -0.156329  0.004541  4.005369  0.005  -0.090249  -0.14256  0.005411  3.971497  0.006
C  C109  1  0.53865581  0.99357142  0.76184736  1  -0.134158  -0.007656  3.735357  -0.007  -0.147567  -0.002392  3.984718  -0.003  -0.155939  -0.002498  4.005237  -0.003  -0.090135  -0.142118  -0.002116  3.971326  -0.002
C  C110  1  0.03865454  0.49356501  0.73812954  1  -0.134024  0.010106  3.735524  0.01  -0.147454  0.005167  3.9848  0.006  -0.155832  0.004551  4.005322  0.005  -0.090147  -0.142046  0.005442  3.971412  0.006
C  C111  1  0.46135036  0.00645800  0.23818975  1  -0.134451  0.007029  3.735723  0.007  -0.147969  0.002178  3.984968  0.003  -0.156343  0.002248  4.005464  0.003  -0.090259  -0.142527  0.001945  3.971593  0.002
C  C112  1  0.98965880  0.50295786  0.15894075  1  0.009769  -0.008384  3.705946  -0.007  -0.009916  -0.002663  3.956085  -0.002  -0.003705  -0.003001  3.972243  -0.003  -0.065056  -0.014145  -0.00227  3.945557  -0.002
C  C113  1  0.51033229  0.99705225  0.65895868  1  0.009896  0.00766  3.705791  0.007  -0.010028  0.002667  3.95606  0.003  -0.003823  0.002845  3.97223  0.003  -0.065073  -0.014269  0.002434  3.945489  0.002
C  C114  1  0.01033826  0.49704677  0.84101883  1  0.009918  -0.008471  3.706066  -0.007  -0.009916  -0.002698  3.956297  -0.002  -0.003711  -0.003015  3.972462  -0.003  -0.064923  -0.014123  -0.002328  3.945754  -0.002
C  C115  1  0.48967835  0.00296089  0.34107317  1  0.009674  -0.008206  3.706059  -0.007  -0.010052  -0.002808  3.956238  -0.003  -0.003837  -0.003057  3.972395  -0.003  -0.065095  -0.014296  -0.002508  3.945673  -0.002
C  C116  1  0.10898590  0.46022126  0.12658424  1  -0.157586  0.006836  3.685956  0.007  -0.173261  0.002712  3.927863  0.003  -0.182264  0.002735  3.948892  0.003  -0.08277  -0.167314  0.002695  3.913959  0.003
C  C117  1  0.39100758  0.03978692  0.62660377  1  -0.157285  -0.00701  3.685522  -0.006  -0.173106  -0.002688  3.927436  -0.002  -0.182129  -0.002803  3.948488  -0.003  -0.082561  -0.167103  -0.002556  3.913535  -0.002
C  C118  1  0.89101495  0.53978507  0.87338286  1  -0.157393  0.006903  3.685827  0.007  -0.173237  0.002728  3.927695  0.003  -0.18225  0.002736  3.948735  0.003  -0.082623  -0.167261  0.002725  3.9138  0.003
C  C119  1  0.60900222  0.96022366  0.37342356  1  -0.157495  0.006531  3.685855  0.006  -0.173229  0.002555  3.92774  0.002  -0.182235  0.002622  3.948773  0.003  -0.082631  -0.167259  0.002471  3.913835  0.002
N  N120  1  0.43503421  0.39459064  0.24993175  1  -0.072214  0.131557  3.296552  0.162  -0.013353  0.087004  3.563217  0.114  -0.045753  0.067084  3.595967  0.094  -0.330339  0.0058  0.098254  3.542994  0.124
N  N121  1  0.06496012  0.10540446  0.74993404  1  -0.072377  -0.142248  3.297107  -0.161  -0.013163  -0.09266  3.563455  -0.114  -0.045515  -0.072987  3.596178  -0.094  -0.330196  0.006017  -0.10266  3.543191  -0.123
N  N122  1  0.56495708  0.60540288  0.75006772  1  -0.072501  0.131323  3.297032  0.162  -0.013316  0.086913  3.563299  0.114  -0.045641  0.067061  3.595999  0.094  -0.330229  0.005835  0.098055  3.543062  0.124
N  N123  1  0.93504407  0.89457875  0.25007372  1  -0.072029  0.131543  3.297017  0.162  -0.013032  0.086972  3.563362  0.114  -0.045446  0.067066  3.596115  0.094  -0.330169  0.006143  0.098013  3.543119  0.124
N  N124  1  0.49622561  0.32859721  0.43294397  1  -0.324977  0.070724  3.330249  0.087  -0.274101  0.051517  3.614047  0.067  -0.30471  0.044123  3.636486  0.061  -0.347862  -0.256866  0.054901  3.601815  0.068
N  N125  1  0.00381373  0.17145126  0.93293552  1  -0.324991  -0.076943  3.330629  -0.087  -0.274088  -0.055088  3.614541  -0.067  -0.304841  -0.048218  3.637037  -0.061  -0.347743  -0.256838  -0.057465  3.602296  -0.068
N  N126  1  0.50380615  0.67142099  0.56705550  1  -0.325014  0.070706  3.330765  0.087  -0.274227  0.051524  3.61471  0.067  -0.304869  0.044147  3.637162  0.061  -0.347858  -0.256929  0.054845  3.602441  0.068
N  N127  1  0.99623235  0.82856776  0.06707223  1  -0.324998  0.070993  3.330381  0.087  -0.274171  0.051695  3.614276  0.067  -0.30483  0.044288  3.636703  0.061  -0.347734  -0.256982  0.054949  3.602069  0.068
N  N128  1  0.16711720  0.42541392  0.29785488  1  -0.338791  0.071336  3.320669  0.088  -0.287845  0.051504  3.60195  0.067  -0.31867  0.043946  3.623858  0.06  -0.349712  -0.270572  0.054925  3.590004  0.068
N  N129  1  0.33289123  0.07463031  0.79787712  1  -0.338685  -0.077496  3.320132  -0.088  -0.287651  -0.055008  3.601425  -0.067  -0.318588  -0.047881  3.623347  -0.06  -0.349795  -0.270258  -0.057642  3.589491  -0.068
N  N130  1  0.83288857  0.57463433  0.70211674  1  -0.338777  0.071594  3.320042  0.088  -0.287797  0.051564  3.601384  0.067  -0.318632  0.043973  3.623268  0.06  -0.34987  -0.270471  0.055034  3.589478  0.068
N  N131  1  0.66712965  0.92541446  0.20214720  1  -0.338837  0.071198  3.320573  0.087  -0.287873  0.051503  3.601915  0.067  -0.318766  0.043934  3.623834  0.06  -0.349781  -0.270543  0.054797  3.589955  0.068
Cl  Cl132  1  0.20860651  0.39280610  0.53454235  1  -0.547412  0.094524  0.929764  0.108  -0.532787  0.063957  1.213883  0.077  -0.555891  0.050637  1.190478  0.064  -0.308937  -0.518487  0.071379  1.23195  0.082
Cl  Cl133  1  0.29120479  0.10701974  0.03456910  1  -0.54733  -0.103348  0.929715  -0.107  -0.532773  -0.068737  1.21393  -0.076  -0.555967  -0.056029  1.190441  -0.064  -0.30872  -0.518262  -0.07468  1.231998  -0.081
Cl  Cl134  1  0.79128568  0.60709191  0.46544508  1  -0.547188  0.09432  0.929876  0.108  -0.532785  0.063819  1.214141  0.076  -0.555875  0.050588  1.190723  0.064  -0.308883  -0.518371  0.071142  1.232173  0.082
Cl  Cl135  1  0.70867836  0.89282696  0.96544543  1  -0.547475  0.094309  0.929604  0.108  -0.532698  0.063801  1.213662  0.076  -0.555898  0.050568  1.190214  0.064  -0.308828  -0.518318  0.070803  1.231762  0.082
O  O136  1  0.72561915  0.68238724  0.16840652  1  -0.836098  0.007137  1.97147  0.011  -0.777727  0.002273  2.255571  0.004  -0.808378  0.000696  2.235716  0.002  -0.389472  -0.755835  0.00438  2.268163  0.007
O  O137  1  0.77426708  0.81765770  0.66836158  1  -0.836488  -0.009852  1.971385  -0.011  -0.777816  -0.003555  2.255293  -0.004  -0.808428  -0.002015  2.235528  -0.002  -0.38965  -0.755973  -0.005196  2.267854  -0.006
O  O138  1  0.27429818  0.31765189  0.83163888  1  -0.836476  0.009316  1.971455  0.011  -0.777787  0.003506  2.255396  0.004  -0.808431  0.001942  2.235536  0.002  -0.389675  -0.755976  0.005226  2.267954  0.006
O  O139  1  0.22563967  0.18237547  0.33160252  1  -0.836145  0.006995  1.971301  0.011  -0.777885  0.002145  2.255525  0.004  -0.80846  0.00062  2.235684  0.002  -0.389604  -0.755909  0.004225  2.268003  0.007
O  O140  1  0.47565622  0.62251642  0.07872595  1  -0.772815  0.002407  2.034024  0.003  -0.706938  0.001086  2.269543  0.002  -0.729842  0.000472  2.245728  0.001  -0.400014  -0.690216  0.001788  2.285385  0.003
O  O141  1  0.02425049  0.87744684  0.57868783  1  -0.773101  -0.002217  2.03416  -0.003  -0.707096  -0.000961  2.269585  -0.001  -0.729946  -0.000513  2.245679  -0.001  -0.400104  -0.690395  -0.001489  2.285502  -0.002
O  O142  1  0.52427464  0.37745420  0.92130740  1  -0.77308  0.002477  2.034012  0.003  -0.7072  0.001206  2.269502  0.002  -0.730091  0.000613  2.245631  0.001  -0.400178  -0.690539  0.001853  2.285439  0.003
O  O143  1  0.97566563  0.12250501  0.42127626  1  -0.772946  0.001966  2.033796  0.003  -0.707112  0.000781  2.269381  0.001  -0.730037  0.000335  2.245644  0.001  -0.400047  -0.690377  0.001346  2.285231  0.002
O  O144  1  0.65473394  0.49044048  0.07054883  1  -0.852122  0.002204  1.941306  0.003  -0.774249  0.000726  2.179481  0.001  -0.799153  0.000232  2.159265  0.0  -0.378838  -0.755517  0.001205  2.191961  0.002
O  O145  1  0.84526109  0.00960017  0.57054733  1  -0.852413  -0.001355  1.941003  -0.002  -0.774433  -4.8e-05  2.179169  0.0  -0.79929  0.000122  2.158906  0.0  -0.378938  -0.755726  -0.000251  2.191721  0.0
O  O146  1  0.34528184  0.50960858  0.92944989  1  -0.852349  0.002158  1.940914  0.003  -0.774301  0.000663  2.179035  0.001  -0.799179  0.000174  2.158767  0.0  -0.378948  -0.755586  0.001149  2.191514  0.002
O  O147  1  0.15474809  0.99043523  0.42945892  1  -0.852242  0.001204  1.940983  0.002  -0.774203  1.9e-05  2.179104  0.0  -0.799103  -0.000144  2.158944  0.0  -0.378815  -0.755455  0.000219  2.191589  0.0
