# generated using pymatgen
data_TbCdH12C22N5O8
_symmetry_space_group_name_H-M   'P 1'
_cell_length_a   11.02183841
_cell_length_b   13.63105646
_cell_length_c   17.85506745
_cell_angle_alpha   89.99998101
_cell_angle_beta   89.59413936
_cell_angle_gamma   89.99998281
_symmetry_Int_Tables_number   1
_chemical_formula_structural   TbCdH12C22N5O8
_chemical_formula_sum   'Tb4 Cd4 H48 C88 N20 O32'
_cell_volume   2682.46556368
_cell_formula_units_Z   4
loop_
 _symmetry_equiv_pos_site_id
 _symmetry_equiv_pos_as_xyz
  1  'x, y, z'
loop_
 _atom_site_type_symbol
 _atom_site_label
 _atom_site_symmetry_multiplicity
 _atom_site_fract_x
 _atom_site_fract_y
 _atom_site_fract_z
 _atom_site_occupancy
 _atom_site_pbe_bader_charge
 _atom_site_pbe_bader_spin_density
 _atom_site_pbe_cm5_charge
 _atom_site_pbe_ddec_charge
 _atom_site_pbe_ddec_spin_density
 _atom_site_pbe_ddec_sum_bond_order
 _atom_site_pbe_magmom
Tb  Tb0  1  0.56377072  0.86421079  0.99629643  1  2.172254  0  1.526726  2.02511  0  2.209006  0
Tb  Tb1  1  0.93622951  0.36421072  0.50370312  1  2.172196  0  1.526705  2.025094  0  2.208992  0
Tb  Tb2  1  0.43622940  0.13578913  0.00370362  1  2.172166  0  1.526722  2.025134  0  2.208952  0
Tb  Tb3  1  0.06377061  0.63578920  0.49629693  1  2.172273  0  1.526705  2.025101  0  2.208998  0
Cd  Cd4  1  0.25774172  0.64391615  0.73342394  1  1.242259  0  0.78894  0.787728  0  2.339286  0
Cd  Cd5  1  0.24225865  0.14391675  0.76657682  1  1.242257  0  0.78892  0.787704  0  2.339341  0
Cd  Cd6  1  0.74225841  0.35608304  0.26657666  1  1.242245  0  0.788903  0.787669  0  2.339378  0
Cd  Cd7  1  0.75774148  0.85608244  0.23342379  1  1.242246  0  0.788917  0.787703  0  2.339329  0
H  H8  1  0.02703542  0.01856774  0.70515183  1  0.117225  0  0.10953  0.112383  0  1.010834  0
H  H9  1  0.47296680  0.51856706  0.79484784  1  0.117226  0  0.109529  0.112351  0  1.010859  0
H  H10  1  0.97296652  0.98143365  0.29484765  1  0.117233  0  0.109523  0.112345  0  1.010886  0
H  H11  1  0.52703242  0.48143286  0.20515221  1  0.117202  0  0.109528  0.112365  0  1.01083  0
H  H12  1  0.87082174  0.99408192  0.60629963  1  0.046167  0  0.113244  0.120074  0  0.976236  0
H  H13  1  0.62917935  0.49408175  0.89370043  1  0.046232  0  0.113236  0.120066  0  0.976246  0
H  H14  1  0.12917929  0.00591874  0.39369985  1  0.046232  0  0.11323  0.120055  0  0.976279  0
H  H15  1  0.37081986  0.50591890  0.10629962  1  0.046216  0  0.113248  0.12007  0  0.976241  0
H  H16  1  0.89095968  0.84893104  0.51917036  1  0.137253  0  0.121867  0.094248  0  0.999447  0
H  H17  1  0.60904056  0.34893158  0.98083030  1  0.137233  0  0.121906  0.094322  0  0.999474  0
H  H18  1  0.10904044  0.15106814  0.48083024  1  0.13724  0  0.121886  0.094294  0  0.999491  0
H  H19  1  0.39095956  0.65106834  0.01916974  1  0.137239  0  0.121879  0.094271  0  0.999459  0
H  H20  1  0.22036660  0.77234423  0.61035966  1  0.116141  0  0.120574  0.091386  0  1.030856  0
H  H21  1  0.27963462  0.27234403  0.88964107  1  0.116137  0  0.12057  0.091437  0  1.0308  0
H  H22  1  0.77963352  0.22765569  0.38964094  1  0.116131  0  0.120563  0.091402  0  1.030829  0
H  H23  1  0.72036551  0.72765515  0.11035898  1  0.116144  0  0.120555  0.091447  0  1.030809  0
H  H24  1  0.21307690  0.75829700  0.13369498  1  0.090521  0  0.11265  0.121087  0  1.000817  0
H  H25  1  0.28692307  0.25829681  0.36630498  1  0.090859  0  0.112654  0.121093  0  1.000812  0
H  H26  1  0.78692323  0.24170292  0.86630506  1  0.090526  0  0.112652  0.121091  0  1.000815  0
H  H27  1  0.71307705  0.74170311  0.63369507  1  0.09086  0  0.112649  0.121085  0  1.000816  0
H  H28  1  0.08272717  0.03722967  0.05577543  1  0.121299  0  0.113408  0.125706  0  1.013088  0
H  H29  1  0.41727288  0.53722967  0.44422403  1  0.121311  0  0.113416  0.125714  0  1.013084  0
H  H30  1  0.91727296  0.96277025  0.94422406  1  0.121307  0  0.113412  0.125703  0  1.013094  0
H  H31  1  0.58272725  0.46277025  0.55577602  1  0.12131  0  0.113415  0.125712  0  1.013085  0
H  H32  1  0.88017505  0.99690792  0.11411996  1  0.095808  0  0.117581  0.088269  0  1.004727  0
H  H33  1  0.61982479  0.49690777  0.38587989  1  0.095811  0  0.117584  0.088272  0  1.004725  0
H  H34  1  0.11982417  0.00309273  0.88588009  1  0.095815  0  0.117583  0.088272  0  1.004752  0
H  H35  1  0.38017534  0.50309289  0.61412015  1  0.095659  0  0.117579  0.088263  0  1.004734  0
H  H36  1  0.00779064  0.73108709  0.19392012  1  0.1117  0  0.117648  0.089491  0  0.989995  0
H  H37  1  0.49220934  0.23108761  0.30608041  1  0.111712  0  0.117659  0.0895  0  0.98999  0
H  H38  1  0.99220949  0.26891283  0.80607993  1  0.111697  0  0.117645  0.089488  0  0.99  0
H  H39  1  0.50779079  0.76891231  0.69391964  1  0.111713  0  0.117661  0.089511  0  0.989982  0
H  H40  1  0.77953124  0.74391200  0.76906812  1  0.121329  0  0.109991  0.119283  0  1.013154  0
H  H41  1  0.72046814  0.24391188  0.73093202  1  0.121343  0  0.10999  0.119276  0  1.013164  0
H  H42  1  0.22046889  0.25608792  0.23093193  1  0.121271  0  0.110003  0.119278  0  1.013146  0
H  H43  1  0.27953108  0.75608804  0.26906803  1  0.121338  0  0.109998  0.119283  0  1.01314  0
H  H44  1  0.98323343  0.73367574  0.97351804  1  0.085904  0  0.110697  0.122766  0  1.001406  0
H  H45  1  0.51676595  0.23367577  0.52648210  1  0.085898  0  0.110694  0.122747  0  1.001423  0
H  H46  1  0.01676579  0.26632418  0.02648201  1  0.08591  0  0.110689  0.122749  0  1.001433  0
H  H47  1  0.48323417  0.76632415  0.47351795  1  0.085919  0  0.110682  0.122734  0  1.001408  0
H  H48  1  0.96233338  0.67443095  0.70176391  1  0.096115  0  0.119095  0.094365  0  1.009483  0
H  H49  1  0.53766602  0.17443085  0.79823568  1  0.096125  0  0.119096  0.094333  0  1.009505  0
H  H50  1  0.03766584  0.32556971  0.29823558  1  0.096127  0  0.119105  0.094344  0  1.009482  0
H  H51  1  0.46233411  0.82556907  0.20176380  1  0.096112  0  0.119102  0.094365  0  1.009498  0
H  H52  1  0.16041435  0.66766263  0.89835242  1  0.088583  0  0.117067  0.091558  0  0.993265  0
H  H53  1  0.33958510  0.16766255  0.60164778  1  0.088577  0  0.117068  0.091563  0  0.993267  0
H  H54  1  0.83958487  0.33233802  0.10164763  1  0.088572  0  0.117061  0.091553  0  0.993254  0
H  H55  1  0.66041503  0.83233737  0.39835226  1  0.088577  0  0.11707  0.091575  0  0.993264  0
C  C56  1  0.38986938  0.75493905  0.86200614  1  1.619065  0  0.22115  0.610007  0  4.212423  0
C  C57  1  0.11013094  0.25494047  0.63799403  1  1.61891  0  0.221165  0.610031  0  4.212318  0
C  C58  1  0.61013165  0.24505940  0.13799390  1  1.61891  0  0.221146  0.609987  0  4.212328  0
C  C59  1  0.88986828  0.74506019  0.36200602  1  1.618924  0  0.221121  0.609947  0  4.212407  0
C  C60  1  0.34392661  0.83623944  0.81347062  1  0.438618  0  0.082183  0.005285  0  3.957481  0
C  C61  1  0.15607186  0.33623936  0.68652954  1  0.438765  0  0.082178  0.005266  0  3.957418  0
C  C62  1  0.65607261  0.16376048  0.18652999  1  0.438772  0  0.082179  0.0053  0  3.957402  0
C  C63  1  0.84392735  0.66376056  0.31347107  1  0.438751  0  0.082203  0.005324  0  3.957394  0
C  C64  1  0.33803032  0.93910381  0.82120711  1  0.39822  0  0.073051  -0.004126  0  3.980198  0
C  C65  1  0.16196811  0.43910593  0.67879303  1  0.398209  0  0.073057  -0.004097  0  3.980156  0
C  C66  1  0.66196799  0.06089391  0.17879350  1  0.398208  0  0.073064  -0.004058  0  3.980108  0
C  C67  1  0.83803110  0.56089472  0.32120758  1  0.398201  0  0.073028  -0.004146  0  3.980152  0
C  C68  1  0.39158063  0.00751789  0.87475270  1  1.545083  0  0.218651  0.610207  0  4.183209  0
C  C69  1  0.10841978  0.50751957  0.62524698  1  1.54515  0  0.218587  0.610125  0  4.183236  0
C  C70  1  0.60841949  0.99248057  0.12524734  1  1.545094  0  0.218622  0.61017  0  4.183254  0
C  C71  1  0.89158035  0.49248181  0.37475363  1  1.545145  0  0.218631  0.610188  0  4.183178  0
C  C72  1  0.22604592  0.89635293  0.72689979  1  0.996174  0  0.207292  0.303113  0  4.04816  0
C  C73  1  0.27395344  0.39635352  0.77310091  1  0.996167  0  0.207328  0.303159  0  4.048129  0
C  C74  1  0.77395420  0.10364699  0.27310081  1  0.996169  0  0.207287  0.303186  0  4.048121  0
C  C75  1  0.72604487  0.60364566  0.22689970  1  0.996158  0  0.207296  0.303135  0  4.048154  0
C  C76  1  0.13546729  0.89491507  0.66753193  1  -0.037771  0  -0.00385  -0.02356  0  4.00055  0
C  C77  1  0.36453389  0.39491487  0.83246709  1  -0.037775  0  -0.003822  -0.023604  0  4.00064  0
C  C78  1  0.86453375  0.10508559  0.33246755  1  -0.037856  0  -0.003852  -0.023604  0  4.000651  0
C  C79  1  0.63546714  0.60508431  0.16753351  1  -0.037778  0  -0.003861  -0.023578  0  4.000578  0
C  C80  1  0.03599944  0.95893800  0.66500016  1  -0.047388  0  -0.059142  -0.042074  0  3.915117  0
C  C81  1  0.46400171  0.45893704  0.83499940  1  -0.047378  0  -0.059112  -0.041971  0  3.915148  0
C  C82  1  0.96400159  0.04106266  0.33499988  1  -0.047301  0  -0.059137  -0.042021  0  3.915167  0
C  C83  1  0.53599751  0.54106214  0.16500009  1  -0.047341  0  -0.059124  -0.04204  0  3.915089  0
C  C84  1  0.94814663  0.94458978  0.61037351  1  0.029489  0  -0.081691  -0.130333  0  3.982963  0
C  C85  1  0.55185539  0.44458890  0.88962601  1  0.02941  0  -0.081695  -0.130331  0  3.983006  0
C  C86  1  0.05185531  0.05541161  0.38962597  1  0.029404  0  -0.081685  -0.130327  0  3.983011  0
C  C87  1  0.44814382  0.55541102  0.11037348  1  0.029395  0  -0.081682  -0.130303  0  3.982958  0
C  C88  1  0.95869955  0.86506991  0.56163892  1  0.471276  0  0.05347  0.104191  0  3.959724  0
C  C89  1  0.54130160  0.36506975  0.93836174  1  0.471261  0  0.053381  0.104028  0  3.959841  0
C  C90  1  0.04130148  0.13493075  0.43836112  1  0.47127  0  0.053457  0.104133  0  3.959793  0
C  C91  1  0.45869853  0.63493017  0.06163887  1  0.471257  0  0.053422  0.104113  0  3.959826  0
C  C92  1  0.14152030  0.82034859  0.61367279  1  0.51627  0  0.05217  0.063991  0  3.946685  0
C  C93  1  0.35848000  0.32034911  0.88632737  1  0.516305  0  0.052148  0.063903  0  3.946694  0
C  C94  1  0.85848073  0.17965133  0.38632669  1  0.516292  0  0.052203  0.064006  0  3.946681  0
C  C95  1  0.64151922  0.67965081  0.11367324  1  0.51632  0  0.052178  0.063892  0  3.946695  0
C  C96  1  0.28557817  0.92593259  0.05724140  1  1.620514  0  0.229283  0.628836  0  4.156684  0
C  C97  1  0.21442174  0.42593238  0.44275908  1  1.620547  0  0.229271  0.628798  0  4.156709  0
C  C98  1  0.71442196  0.07406733  0.94275921  1  1.620521  0  0.229308  0.628848  0  4.156629  0
C  C99  1  0.78557839  0.57406754  0.55724096  1  1.620548  0  0.229292  0.62883  0  4.156694  0
C  C100  1  0.16303230  0.90086044  0.09111731  1  -0.05334  0  0.008091  0.021685  0  3.90937  0
C  C101  1  0.33696762  0.40086095  0.40888317  1  -0.053331  0  0.008063  0.021679  0  3.909406  0
C  C102  1  0.83696783  0.09913948  0.90888273  1  -0.053461  0  0.008084  0.021703  0  3.909373  0
C  C103  1  0.66303251  0.59913897  0.59111687  1  -0.053331  0  0.008111  0.021718  0  3.90932  0
C  C104  1  0.14124464  0.81291494  0.12921996  1  0.015115  0  -0.077187  -0.145905  0  3.947032  0
C  C105  1  0.35875531  0.31291546  0.37077999  1  0.014796  0  -0.077172  -0.145904  0  3.946997  0
C  C106  1  0.85875549  0.18708498  0.87077953  1  0.015122  0  -0.077183  -0.14591  0  3.947006  0
C  C107  1  0.64124482  0.68708446  0.62922006  1  0.014796  0  -0.077204  -0.145923  0  3.946963  0
C  C108  1  0.06799919  0.96837099  0.08537999  1  -0.033625  0  -0.07474  -0.138939  0  3.933028  0
C  C109  1  0.43200070  0.46837074  0.41461992  1  -0.033682  0  -0.074733  -0.138933  0  3.933078  0
C  C110  1  0.93200093  0.03162893  0.91462006  1  -0.033489  0  -0.07472  -0.138911  0  3.933074  0
C  C111  1  0.56799943  0.53162918  0.58538013  1  -0.033674  0  -0.074735  -0.138938  0  3.93302  0
C  C112  1  0.95656624  0.94637405  0.11808388  1  0.499367  0  0.049455  0.097015  0  3.948404  0
C  C113  1  0.54343362  0.44637391  0.38191598  1  0.499367  0  0.049463  0.09702  0  3.948404  0
C  C114  1  0.04343389  0.05362587  0.88191560  1  0.499363  0  0.049459  0.097004  0  3.948419  0
C  C115  1  0.45656651  0.55362601  0.61808407  1  0.499517  0  0.049466  0.097041  0  3.948386  0
C  C116  1  0.02758878  0.79749868  0.16188992  1  0.445519  0  0.047737  0.090516  0  3.95354  0
C  C117  1  0.47241117  0.29749919  0.33811003  1  0.445518  0  0.047774  0.090576  0  3.953609  0
C  C118  1  0.97241134  0.20250124  0.83810957  1  0.445512  0  0.047753  0.090529  0  3.953608  0
C  C119  1  0.52758896  0.70250073  0.66189001  1  0.44552  0  0.047763  0.090542  0  3.953595  0
C  C120  1  0.76153573  0.78532402  0.91807303  1  1.604423  0  0.186753  0.556184  0  4.257346  0
C  C121  1  0.73846363  0.28532323  0.58192709  1  1.604138  0  0.186697  0.555992  0  4.257518  0
C  C122  1  0.23846348  0.21467664  0.08192702  1  1.604402  0  0.186741  0.556157  0  4.257421  0
C  C123  1  0.26153650  0.71467669  0.41807295  1  1.604143  0  0.186703  0.556002  0  4.257496  0
C  C124  1  0.86870115  0.74389435  0.87615387  1  -0.011632  0  0.007062  0.031349  0  3.929128  0
C  C125  1  0.63129822  0.24389431  0.62384570  1  -0.011651  0  0.007052  0.031303  0  3.929214  0
C  C126  1  0.13129897  0.25610556  0.12384561  1  -0.011636  0  0.007061  0.03133  0  3.929142  0
C  C127  1  0.36870190  0.75610561  0.37615378  1  -0.011655  0  0.007052  0.031322  0  3.929182  0
C  C128  1  0.86268753  0.72704168  0.79903041  1  -0.054953  0  -0.075818  -0.138853  0  3.931433  0
C  C129  1  0.63731186  0.22704160  0.70096917  1  -0.054971  0  -0.075762  -0.138722  0  3.931388  0
C  C130  1  0.13731169  0.27295897  0.20096964  1  -0.054861  0  -0.075812  -0.138779  0  3.931448  0
C  C131  1  0.36268827  0.77295832  0.29903088  1  -0.054969  0  -0.07579  -0.138781  0  3.93136  0
C  C132  1  0.97649110  0.72157325  0.91335055  1  0.015413  0  -0.078254  -0.141937  0  3.94052  0
C  C133  1  0.52350919  0.22157398  0.58664903  1  0.015405  0  -0.078235  -0.141871  0  3.940561  0
C  C134  1  0.02350903  0.27842667  0.08664893  1  0.015414  0  -0.078274  -0.14196  0  3.940542  0
C  C135  1  0.47649093  0.77842594  0.41335046  1  0.015415  0  -0.078238  -0.141873  0  3.940528  0
C  C136  1  0.96371167  0.68886635  0.76194943  1  0.516435  0  0.046048  0.089645  0  3.939537  0
C  C137  1  0.53628772  0.18886628  0.73805016  1  0.516473  0  0.046035  0.089647  0  3.939531  0
C  C138  1  0.03628754  0.31113357  0.23805006  1  0.516424  0  0.046049  0.089667  0  3.939596  0
C  C139  1  0.46371241  0.81113364  0.26194933  1  0.516469  0  0.04603  0.089622  0  3.939499  0
C  C140  1  0.07375087  0.68465987  0.87203273  1  0.43548  0  0.042236  0.083575  0  3.962753  0
C  C141  1  0.42624857  0.18465975  0.62796747  1  0.4355  0  0.042228  0.083555  0  3.962793  0
C  C142  1  0.92624835  0.31534005  0.12796732  1  0.435494  0  0.042262  0.083618  0  3.962739  0
C  C143  1  0.57375156  0.81534017  0.37203258  1  0.435497  0  0.042233  0.08352  0  3.962747  0
N  N144  1  0.27512553  0.81188111  0.75294823  1  -1.186739  0  -0.356582  -0.383436  0  3.485983  0
N  N145  1  0.22487296  0.31188173  0.74705194  1  -1.186892  0  -0.356558  -0.383404  0  3.485919  0
N  N146  1  0.72487278  0.18811734  0.24705239  1  -1.186911  0  -0.35651  -0.383414  0  3.485985  0
N  N147  1  0.77512626  0.68811819  0.25294811  1  -1.186868  0  -0.356534  -0.383373  0  3.485886  0
N  N148  1  0.26249704  0.97506142  0.76654885  1  -1.205773  0  -0.354157  -0.369291  0  3.446786  0
N  N149  1  0.23750319  0.47506204  0.73345127  1  -1.205755  0  -0.354144  -0.369276  0  3.446787  0
N  N150  1  0.73750399  0.02493777  0.23345063  1  -1.205754  0  -0.354159  -0.369362  0  3.446782  0
N  N151  1  0.76249512  0.52493715  0.26654991  1  -1.205761  0  -0.354125  -0.369289  0  3.446769  0
N  N152  1  0.05429181  0.80344970  0.56342133  1  -1.262042  0  -0.378938  -0.339385  0  3.51367  0
N  N153  1  0.44570940  0.30344944  0.93657883  1  -1.262053  0  -0.378926  -0.339314  0  3.513675  0
N  N154  1  0.94570831  0.19655022  0.43657872  1  -1.262039  0  -0.378941  -0.339367  0  3.513646  0
N  N155  1  0.55429073  0.69654974  0.06342121  1  -1.262025  0  -0.378927  -0.339335  0  3.513674  0
N  N156  1  0.93680049  0.86317506  0.15683136  1  -1.236948  0  -0.323449  -0.239414  0  3.493882  0
N  N157  1  0.56319940  0.36317567  0.34316797  1  -1.236962  0  -0.323498  -0.239471  0  3.494012  0
N  N158  1  0.06319964  0.13682486  0.84316813  1  -1.236961  0  -0.323485  -0.239434  0  3.493948  0
N  N159  1  0.43679982  0.63682498  0.65683152  1  -1.236956  0  -0.323499  -0.239478  0  3.493973  0
N  N160  1  0.06785336  0.66848799  0.79772418  1  -1.232948  0  -0.327244  -0.241142  0  3.490571  0
N  N161  1  0.43214518  0.16848784  0.70227602  1  -1.232986  0  -0.327267  -0.241182  0  3.490625  0
N  N162  1  0.93214586  0.33151193  0.20227587  1  -1.232968  0  -0.327261  -0.241185  0  3.490625  0
N  N163  1  0.56785404  0.83151208  0.29772347  1  -1.232969  0  -0.327247  -0.241116  0  3.490542  0
O  O164  1  0.37331762  0.66723565  0.83971465  1  -1.160755  0  -0.330804  -0.550341  0  2.242405  0
O  O165  1  0.12668273  0.16723559  0.66028555  1  -1.160727  0  -0.330855  -0.550402  0  2.242359  0
O  O166  1  0.62668341  0.33276353  0.16028595  1  -1.160716  0  -0.330863  -0.550398  0  2.242336  0
O  O167  1  0.87331830  0.83276506  0.33971449  1  -1.160744  0  -0.330809  -0.55033  0  2.242338  0
O  O168  1  0.43579679  0.77477535  0.92497684  1  -1.193929  0  -0.419807  -0.657889  0  2.406941  0
O  O169  1  0.06420352  0.27477534  0.57502277  1  -1.193785  0  -0.419811  -0.657909  0  2.406953  0
O  O170  1  0.56420334  0.22522384  0.07502321  1  -1.193783  0  -0.419804  -0.657891  0  2.406974  0
O  O171  1  0.93579660  0.72522531  0.42497727  1  -1.193778  0  -0.419806  -0.657895  0  2.406978  0
O  O172  1  0.46891429  0.98017909  0.92296738  1  -1.197722  0  -0.426746  -0.701813  0  2.508612  0
O  O173  1  0.03108595  0.48018055  0.57703330  1  -1.197665  0  -0.426739  -0.701809  0  2.508649  0
O  O174  1  0.53108674  0.01981937  0.07703322  1  -1.1976  0  -0.426746  -0.701821  0  2.508715  0
O  O175  1  0.96891509  0.51981937  0.42296730  1  -1.197783  0  -0.426766  -0.701841  0  2.508649  0
O  O176  1  0.35791915  0.09810295  0.87462575  1  -1.177988  0  -0.357097  -0.616143  0  2.31669  0
O  O177  1  0.14208213  0.59810242  0.62537390  1  -1.17804  0  -0.357057  -0.616074  0  2.316673  0
O  O178  1  0.64208188  0.90189771  0.12537373  1  -1.178016  0  -0.357083  -0.616137  0  2.316713  0
O  O179  1  0.85791890  0.40189750  0.37462614  1  -1.177999  0  -0.357067  -0.616075  0  2.316601  0
O  O180  1  0.36957775  0.86255377  0.06207640  1  -1.173829  0  -0.367639  -0.637336  0  2.26602  0
O  O181  1  0.13042218  0.36255286  0.43792353  1  -1.173808  0  -0.367617  -0.637303  0  2.266055  0
O  O182  1  0.63042238  0.13744688  0.93792364  1  -1.173798  0  -0.367615  -0.637326  0  2.26603  0
O  O183  1  0.86957794  0.63744706  0.56207651  1  -1.173809  0  -0.367628  -0.637323  0  2.266035  0
O  O184  1  0.29169522  0.00987814  0.02685159  1  -1.185481  0  -0.379473  -0.643  0  2.345744  0
O  O185  1  0.20830393  0.50987818  0.47314899  1  -1.185528  0  -0.379492  -0.643009  0  2.345753  0
O  O186  1  0.70830400  0.99012252  0.97314958  1  -1.185477  0  -0.379529  -0.643032  0  2.345705  0
O  O187  1  0.79169620  0.49012174  0.52685105  1  -1.185529  0  -0.379492  -0.643016  0  2.345752  0
O  O188  1  0.67218246  0.81797961  0.88092961  1  -1.167065  0  -0.374005  -0.605308  0  2.163529  0
O  O189  1  0.82781870  0.31797879  0.61906993  1  -1.166774  0  -0.373962  -0.605211  0  2.163523  0
O  O190  1  0.32781767  0.18202104  0.11906931  1  -1.167036  0  -0.373987  -0.605293  0  2.163538  0
O  O191  1  0.17218142  0.68202113  0.38093011  1  -1.166771  0  -0.373958  -0.605202  0  2.16351  0
O  O192  1  0.76434386  0.78643103  0.98954567  1  -1.18911  0  -0.377016  -0.628833  0  2.221056  0
O  O193  1  0.73565640  0.28643101  0.51045445  1  -1.189106  0  -0.377013  -0.628768  0  2.221103  0
O  O194  1  0.23565626  0.21356889  0.01045438  1  -1.189128  0  -0.37702  -0.628825  0  2.221078  0
O  O195  1  0.26434372  0.71356891  0.48954559  1  -1.189122  0  -0.377016  -0.628771  0  2.221097  0
