# generated using pymatgen
data_MnH22C16S2(NO4)2
_symmetry_space_group_name_H-M   'P 1'
_cell_length_a   9.63014353
_cell_length_b   9.73895807
_cell_length_c   10.34230000
_cell_angle_alpha   89.36914853
_cell_angle_beta   78.83952187
_cell_angle_gamma   87.59684324
_symmetry_Int_Tables_number   1
_chemical_formula_structural   MnH22C16S2(NO4)2
_chemical_formula_sum   'Mn2 H44 C32 S4 N4 O16'
_cell_volume   950.79466547
_cell_formula_units_Z   2
loop_
 _symmetry_equiv_pos_site_id
 _symmetry_equiv_pos_as_xyz
  1  'x, y, z'
loop_
 _atom_site_type_symbol
 _atom_site_label
 _atom_site_symmetry_multiplicity
 _atom_site_fract_x
 _atom_site_fract_y
 _atom_site_fract_z
 _atom_site_occupancy
 _atom_site_pbe_bader_charge
 _atom_site_pbe_bader_spin_density
 _atom_site_pbe_cm5_charge
 _atom_site_pbe_ddec_charge
 _atom_site_pbe_ddec_spin_density
 _atom_site_pbe_ddec_sum_bond_order
 _atom_site_pbe_magmom
Mn  Mn0  1  0.49647432  0.00356205  0.75038878  1  1.585515  -4.585426  0.626337  1.152622  -4.680606  2.21355  -4.527
Mn  Mn1  1  0.50347690  0.99645332  0.24965118  1  1.585853  4.587683  0.626244  1.153384  4.682582  2.204983  4.528
H  H2  1  0.15171113  0.86597909  0.81699188  1  0.112654  0.000124  0.111028  0.116489  0.000374  1.022174  0.0
H  H3  1  0.84811326  0.13339910  0.18218220  1  0.116478  -0.000125  0.111345  0.116962  -0.000379  1.021017  0.0
H  H4  1  0.08601816  0.03616519  0.20802484  1  0.101515  -3.2e-05  0.11007  0.118286  -0.000254  1.005873  0.0
H  H5  1  0.91387332  0.96343087  0.79102563  1  0.105151  2.9e-05  0.110292  0.118574  0.00025  1.005639  0.0
H  H6  1  0.83632994  0.86826472  0.39514216  1  0.12001  -4.4e-05  0.110914  0.117708  -0.00034  1.014875  0.0
H  H7  1  0.16377761  0.13198600  0.60578574  1  0.111725  3.9e-05  0.111203  0.118336  0.000341  1.014677  0.0
H  H8  1  0.92689531  0.23706238  0.58143145  1  0.062094  4e-05  0.105086  0.102766  5.4e-05  1.02086  0.0
H  H9  1  0.07313876  0.76314826  0.41956619  1  0.066196  -4.1e-05  0.105273  0.102331  -5.4e-05  1.020714  0.0
H  H10  1  0.51425166  0.37654964  0.67609085  1  0.067218  -0.000225  0.106091  0.128869  0.000138  0.993438  0.0
H  H11  1  0.48562685  0.62307828  0.32369163  1  0.067849  0.00022  0.106084  0.129181  -0.000141  0.993427  0.0
H  H12  1  0.55327607  0.36418832  0.83476488  1  0.109822  -0.000133  0.102822  0.131143  -7.1e-05  1.023014  0.0
H  H13  1  0.44699951  0.63558759  0.16486908  1  0.105284  0.00013  0.102925  0.13142  6.9e-05  1.022578  0.0
H  H14  1  0.43689763  0.61390286  0.73649290  1  0.077974  -1.5e-05  0.097726  0.107171  0.000217  1.005003  0.0
H  H15  1  0.56323464  0.38588333  0.26337951  1  0.076278  1.4e-05  0.097825  0.107232  -0.000218  1.004937  0.0
H  H16  1  0.42156956  0.57494846  0.90581967  1  0.034908  -3e-05  0.091684  0.091747  0.000126  1.012498  0.0
H  H17  1  0.57872510  0.42477607  0.09401830  1  0.03486  3e-05  0.09168  0.091899  -0.000127  1.012092  0.0
H  H18  1  0.17975604  0.57492482  0.91251258  1  0.066354  -0.000246  0.098652  0.072925  -0.000122  1.026408  0.0
H  H19  1  0.82056728  0.42487370  0.08763854  1  0.021534  0.000253  0.098679  0.072754  0.000123  1.025771  0.0
H  H20  1  0.20059455  0.55780725  0.73879423  1  0.090769  -0.000423  0.099857  0.084352  -0.000239  1.022126  0.0
H  H21  1  0.79938640  0.44213002  0.26135624  1  0.0906  0.000417  0.099965  0.084108  0.000235  1.022011  0.0
H  H22  1  0.03021185  0.33486461  0.78625244  1  0.049095  -0.000403  0.102183  0.113751  -0.000242  1.007294  0.0
H  H23  1  0.96988868  0.66474379  0.21377643  1  0.049329  0.000401  0.102106  0.113645  0.000241  1.007008  0.0
H  H24  1  0.02201971  0.35136658  0.95821038  1  0.06177  -0.000267  0.100127  0.106888  -0.000162  1.03016  0.0
H  H25  1  0.97812706  0.64809793  0.04185323  1  0.059944  0.000266  0.10038  0.107403  0.000161  1.029831  0.0
H  H26  1  0.10341571  0.20040491  0.87447234  1  0.08713  -0.000235  0.108502  0.126455  0.00017  1.047437  0.0
H  H27  1  0.89695517  0.79929392  0.12539567  1  0.09099  0.000232  0.108437  0.126858  -0.000169  1.04719  0.0
H  H28  1  0.62731666  0.67418435  0.90265491  1  0.071647  -0.000178  0.109798  0.132227  -2.3e-05  0.97771  0.0
H  H29  1  0.37248676  0.32589782  0.09742163  1  0.073195  0.000175  0.109979  0.132342  2.2e-05  0.977502  0.0
H  H30  1  0.75095471  0.80384052  0.88153749  1  0.090612  -1.5e-05  0.104623  0.129343  0.000181  1.022599  0.0
H  H31  1  0.24879800  0.19628995  0.11852545  1  0.090358  1.2e-05  0.104607  0.129493  -0.00018  1.022112  0.0
H  H32  1  0.83574988  0.52200484  0.89656350  1  0.040205  -3.3e-05  0.096363  0.098799  -2.3e-05  1.025843  0.0
H  H33  1  0.16421951  0.47818319  0.10348396  1  0.038818  3.2e-05  0.096577  0.099248  2.3e-05  1.025881  0.0
H  H34  1  0.94715814  0.64433959  0.80433824  1  0.049422  -1e-06  0.092472  0.088806  5e-06  1.001943  0.0
H  H35  1  0.05267063  0.35594607  0.19573839  1  0.049827  -0.0  0.092324  0.088825  -6e-06  1.001666  0.0
H  H36  1  0.93353313  0.50421411  0.62216331  1  0.010021  -0.000347  0.098642  0.06832  -0.000208  1.000329  0.0
H  H37  1  0.06646430  0.49603763  0.37788134  1  0.008389  0.000347  0.098647  0.068517  0.000208  1.000047  0.0
H  H38  1  0.77384108  0.43006365  0.70416007  1  0.066968  -0.000355  0.107716  0.094024  -0.000172  0.99459  0.0
H  H39  1  0.22617760  0.57005963  0.29581924  1  0.065263  0.000357  0.107776  0.093916  0.000172  0.994226  0.0
H  H40  1  0.81981165  0.61534063  0.41931767  1  0.027548  -0.000258  0.098154  0.098695  -0.000143  1.029989  0.0
H  H41  1  0.17978939  0.38510124  0.58063207  1  0.02667  0.00026  0.098315  0.099035  0.000143  1.029997  0.0
H  H42  1  0.64591128  0.69108611  0.47438049  1  0.104532  -0.000274  0.116866  0.137608  -4e-05  1.004533  0.0
H  H43  1  0.35383787  0.30945854  0.52592439  1  0.106636  0.000272  0.116973  0.13801  3.9e-05  1.003601  0.0
H  H44  1  0.67845686  0.50759939  0.48477956  1  0.123988  -0.000254  0.108948  0.136461  -0.000132  0.999891  0.0
H  H45  1  0.32105688  0.49290517  0.51518333  1  0.081358  0.000261  0.108616  0.135892  0.000132  0.999367  0.0
C  C46  1  0.13147144  0.94617867  0.01392263  1  -0.168736  0.002697  -0.011272  -0.082316  0.002429  3.964444  0.002
C  C47  1  0.86841265  0.05346776  0.98518473  1  -0.165648  -0.002763  -0.010993  -0.081699  -0.002479  3.964582  -0.002
C  C48  1  0.08434112  0.92362244  0.89664011  1  0.05078  0.00096  -0.077723  -0.084755  0.001019  3.961206  0.001
C  C49  1  0.91555334  0.07595307  0.10245934  1  -0.006883  -0.000991  -0.078629  -0.08558  -0.00104  3.962614  -0.001
C  C50  1  0.04802028  0.02175050  0.11676112  1  -0.034654  -0.000262  -0.08159  -0.094768  -0.000412  3.975111  0.0
C  C51  1  0.95185387  0.97788050  0.88231048  1  -0.109399  0.000248  -0.08263  -0.095865  0.000396  3.974884  0.0
C  C52  1  0.86906337  0.05734531  0.48728496  1  -0.157065  0.002875  -0.01242  -0.07634  0.0026  3.945185  0.002
C  C53  1  0.13117640  0.94303387  0.51331417  1  -0.16192  -0.002941  -0.012066  -0.076094  -0.002649  3.946105  -0.002
C  C54  1  0.90874510  0.92420207  0.44172377  1  0.027538  -0.000483  -0.082853  -0.087395  -0.000451  3.978511  0.0
C  C55  1  0.09143420  0.07612984  0.55902889  1  -0.052309  0.000476  -0.082049  -0.086499  0.000439  3.978199  0.0
C  C56  1  0.95987989  0.13359128  0.54592699  1  0.012575  0.00054  -0.083357  -0.089144  0.000547  3.976125  0.0
C  C57  1  0.04027543  0.86670671  0.45487772  1  -0.065997  -0.000562  -0.08249  -0.087054  -0.00056  3.975834  0.0
C  C58  1  0.34770232  0.29781250  0.81767433  1  1.321088  -0.008208  0.253707  0.486993  -0.007606  4.03865  -0.008
C  C59  1  0.65237502  0.70199630  0.18244850  1  1.313868  0.008151  0.25346  0.487516  0.007526  4.037424  0.008
C  C60  1  0.46861702  0.39314720  0.78106679  1  -0.061814  -0.001054  -0.16312  -0.305297  -0.000591  3.916481  -0.001
C  C61  1  0.53149007  0.60660816  0.21874955  1  -0.055504  0.001058  -0.162924  -0.305598  0.000593  3.91761  0.001
C  C62  1  0.40064187  0.53732392  0.81226151  1  -0.019674  -0.000148  -0.162676  -0.152275  5.7e-05  3.887767  0.0
C  C63  1  0.59951309  0.46245097  0.18760112  1  -0.018976  0.000148  -0.162793  -0.153285  -5.6e-05  3.888302  0.0
C  C64  1  0.24040000  0.52018681  0.82594091  1  0.244052  -0.000552  -0.060893  -0.066172  -0.000585  3.866781  0.0
C  C65  1  0.75971216  0.47964973  0.17410090  1  0.287432  0.00054  -0.060293  -0.064438  0.000581  3.86454  0.0
C  C66  1  0.08764762  0.31169278  0.86654842  1  0.291653  -0.000139  -0.13562  -0.266379  -0.0001  3.925903  0.0
C  C67  1  0.91251845  0.68799372  0.13344366  1  0.290227  0.000138  -0.135542  -0.266863  9.8e-05  3.925619  0.0
C  C68  1  0.69122236  0.73257074  0.70337524  1  1.35956  -0.006857  0.256076  0.485701  -0.006637  4.042614  -0.007
C  C69  1  0.30858698  0.26752171  0.29665759  1  1.35895  0.006845  0.255814  0.485436  0.006619  4.041978  0.007
C  C70  1  0.72476051  0.70839997  0.83864274  1  -0.004462  -0.000963  -0.15654  -0.287223  -0.000544  3.892171  -0.001
C  C71  1  0.27503900  0.29169967  0.16143239  1  -0.005613  0.000965  -0.156154  -0.286763  0.000546  3.892128  0.001
C  C72  1  0.84402884  0.59680070  0.81612858  1  -0.048922  -0.000119  -0.159991  -0.159229  -0.000107  3.902051  0.0
C  C73  1  0.15585810  0.40335957  0.18389439  1  -0.04673  0.00012  -0.160323  -0.159864  0.000107  3.902925  0.0
C  C74  1  0.83013081  0.52663468  0.68680140  1  0.335333  -0.000628  -0.056002  -0.060238  -0.000663  3.873399  0.0
C  C75  1  0.16982231  0.47351224  0.31317787  1  0.335741  0.00062  -0.056052  -0.060583  0.000657  3.873675  0.0
C  C76  1  0.72125498  0.60928124  0.49312893  1  0.238054  -0.000248  -0.132667  -0.272244  -0.000192  3.90764  0.0
C  C77  1  0.27844368  0.39110410  0.50691790  1  0.278112  0.000237  -0.13187  -0.271556  0.000188  3.907293  0.0
S  S78  1  0.29572024  0.86810029  0.03635617  1  3.191586  0.001655  0.537635  1.199626  0.001498  6.139419  0.001
S  S79  1  0.70414614  0.13164069  0.96306474  1  3.194176  -0.001809  0.536898  1.198106  -0.001769  6.14217  -0.002
S  S80  1  0.70237655  0.13346076  0.46724112  1  3.219683  0.001036  0.534509  1.201433  0.000911  6.151265  0.001
S  S81  1  0.29792829  0.86705818  0.53328006  1  3.210908  -0.001286  0.534607  1.200899  -0.00117  6.154124  -0.001
N  N82  1  0.74884461  0.62796710  0.62401274  1  -1.21251  -0.007697  -0.279605  -0.054777  -0.005651  3.655016  -0.006
N  N83  1  0.25106470  0.37216440  0.37600553  1  -1.210282  0.007706  -0.279558  -0.055013  0.005661  3.654912  0.006
N  N84  1  0.22435586  0.37220448  0.84157321  1  -1.212721  -0.008749  -0.283442  -0.062176  -0.006474  3.668861  -0.007
N  N85  1  0.77572628  0.62764132  0.15842654  1  -1.20994  0.008709  -0.283629  -0.062811  0.00645  3.668394  0.007
O  O86  1  0.38920135  0.86399457  0.90515736  1  -1.351835  -0.045449  -0.320268  -0.613665  -0.034951  2.339478  -0.017
O  O87  1  0.61085926  0.13588514  0.09438471  1  -1.348821  0.045233  -0.320187  -0.613932  0.034762  2.338177  0.017
O  O88  1  0.26253135  0.73055642  0.08846761  1  -1.324338  -0.003631  -0.333814  -0.590088  -0.003017  2.174602  -0.003
O  O89  1  0.73723623  0.26914241  0.91080329  1  -1.326698  0.003561  -0.333559  -0.589298  0.002971  2.174804  0.003
O  O90  1  0.34556576  0.95871059  0.12970702  1  -1.353432  0.048214  -0.324187  -0.630038  0.037656  2.388703  0.018
O  O91  1  0.65415859  0.04085773  0.86997719  1  -1.35782  -0.048604  -0.323262  -0.62832  -0.037892  2.392839  -0.018
O  O92  1  0.61074035  0.13852636  0.59960873  1  -1.345165  -0.048008  -0.324621  -0.622046  -0.036706  2.350555  -0.018
O  O93  1  0.38939269  0.86124133  0.40081679  1  -1.344391  0.047784  -0.324579  -0.621763  0.036521  2.347878  0.018
O  O94  1  0.65281394  0.03955253  0.37679254  1  -1.357529  0.046829  -0.321303  -0.619722  0.036214  2.385466  0.017
O  O95  1  0.34768467  0.96159743  0.62302967  1  -1.34778  -0.047253  -0.321318  -0.619665  -0.036504  2.389672  -0.017
O  O96  1  0.73244170  0.27086075  0.41420222  1  -1.336163  -0.003995  -0.341282  -0.603198  -0.003232  2.181249  -0.003
O  O97  1  0.26789326  0.72997576  0.58717175  1  -1.338811  0.003959  -0.341122  -0.602784  0.00321  2.181955  0.003
O  O98  1  0.61858781  0.82929387  0.66591631  1  -1.201347  -0.053428  -0.288893  -0.523813  -0.038616  2.369306  -0.022
O  O99  1  0.38120027  0.17067422  0.33404332  1  -1.199234  0.053287  -0.288758  -0.523899  0.03853  2.367697  0.022
O  O100  1  0.35457205  0.16898877  0.82473934  1  -1.168155  -0.054078  -0.294505  -0.528937  -0.039202  2.353486  -0.021
O  O101  1  0.64541330  0.83086833  0.17571285  1  -1.164396  0.05408  -0.29419  -0.529071  0.039112  2.351128  0.021
