# generated using pymatgen
data_ZnH14C13(NCl)2
_symmetry_space_group_name_H-M   'P 1'
_cell_length_a   5.29403487
_cell_length_b   9.71011710
_cell_length_c   13.16359010
_cell_angle_alpha   89.99696348
_cell_angle_beta   89.99818287
_cell_angle_gamma   91.31731112
_symmetry_Int_Tables_number   1
_chemical_formula_structural   ZnH14C13(NCl)2
_chemical_formula_sum   'Zn2 H28 C26 N4 Cl4'
_cell_volume   676.50470155
_cell_formula_units_Z   2
loop_
 _symmetry_equiv_pos_site_id
 _symmetry_equiv_pos_as_xyz
  1  'x, y, z'
loop_
 _atom_site_type_symbol
 _atom_site_label
 _atom_site_symmetry_multiplicity
 _atom_site_fract_x
 _atom_site_fract_y
 _atom_site_fract_z
 _atom_site_occupancy
 _atom_site_hle17_bader_spin_density
 _atom_site_hle17_ddec_charge
 _atom_site_hle17_ddec_spin_density
 _atom_site_hle17_ddec_sum_bond_order
 _atom_site_hle17_magmom
 _atom_site_hse06_10hf_bader_spin_density
 _atom_site_hse06_10hf_ddec_charge
 _atom_site_hse06_10hf_ddec_spin_density
 _atom_site_hse06_10hf_ddec_sum_bond_order
 _atom_site_hse06_10hf_magmom
 _atom_site_hse06_bader_spin_density
 _atom_site_hse06_ddec_charge
 _atom_site_hse06_ddec_spin_density
 _atom_site_hse06_ddec_sum_bond_order
 _atom_site_hse06_magmom
 _atom_site_pbe_bader_spin_density
 _atom_site_pbe_cm5_charge
 _atom_site_pbe_ddec_charge
 _atom_site_pbe_ddec_spin_density
 _atom_site_pbe_ddec_sum_bond_order
 _atom_site_pbe_magmom
Zn  Zn0  1  0.57586628  0.28821155  0.25000085  1  0  0.836211  0  2.107225  0  0  0.654549  0  2.598909  0  0  0.693491  0  2.554782  0  0  0.561679  0.628079  0  2.628552  0
Zn  Zn1  1  0.42412206  0.71178636  0.75000058  1  0  0.836275  0  2.107243  0  0  0.654646  0  2.59896  0  0  0.693554  0  2.554821  0  0  0.561733  0.628175  0  2.628603  0
H  H2  1  0.03869134  0.42313821  0.34869487  1  0  0.073242  0  0.97257  0  0  0.080283  0  1.042801  0  0  0.082685  0  1.040263  0  0  0.104055  0.078609  0  1.044394  0
H  H3  1  0.96125296  0.57687782  0.84870710  1  0  0.073298  0  0.972627  0  0  0.080226  0  1.042943  0  0  0.082628  0  1.040407  0  0  0.104041  0.078557  0  1.044523  0
H  H4  1  0.96129566  0.57686590  0.65130731  1  0  0.073248  0  0.972589  0  0  0.08025  0  1.04285  0  0  0.082652  0  1.040311  0  0  0.104051  0.078578  0  1.044437  0
H  H5  1  0.03871336  0.42312759  0.15129204  1  0  0.073309  0  0.972412  0  0  0.080231  0  1.042754  0  0  0.082634  0  1.040215  0  0  0.104059  0.078564  0  1.044332  0
H  H6  1  0.29265526  0.38917632  0.50479352  1  0  0.113783  0  0.93595  0  0  0.124064  0  0.994262  0  0  0.127439  0  0.993683  0  0  0.107261  0.121703  0  0.994829  0
H  H7  1  0.70729315  0.61083383  0.00481053  1  0  0.113809  0  0.935954  0  0  0.12414  0  0.994218  0  0  0.127516  0  0.993634  0  0  0.107312  0.121776  0  0.994787  0
H  H8  1  0.70733937  0.61082872  0.49520715  1  0  0.113863  0  0.935963  0  0  0.124179  0  0.994217  0  0  0.127556  0  0.993635  0  0  0.107307  0.121817  0  0.994784  0
H  H9  1  0.29269214  0.38917237  0.99519013  1  0  0.113754  0  0.936051  0  0  0.124091  0  0.994298  0  0  0.127468  0  0.993715  0  0  0.107315  0.121731  0  0.994863  0
H  H10  1  0.77555734  0.05837294  0.58770386  1  0  0.109001  0  0.973272  0  0  0.116774  0  1.040076  0  0  0.120022  0  1.039202  0  0  0.097779  0.114508  0  1.040618  0
H  H11  1  0.22444275  0.94161191  0.08769159  1  0  0.108937  0  0.973233  0  0  0.116725  0  1.039984  0  0  0.119975  0  1.039107  0  0  0.097789  0.114448  0  1.040543  0
H  H12  1  0.22443685  0.94162695  0.41229452  1  0  0.109002  0  0.973249  0  0  0.116751  0  1.040103  0  0  0.119997  0  1.039226  0  0  0.097763  0.114493  0  1.040617  0
H  H13  1  0.77555998  0.05837756  0.91230680  1  0  0.109033  0  0.97317  0  0  0.116798  0  1.039946  0  0  0.120048  0  1.039068  0  0  0.097808  0.114516  0  1.040516  0
H  H14  1  0.53780785  0.10612482  0.42612686  1  0  0.068062  0  0.979223  0  0  0.07611  0  1.047612  0  0  0.078314  0  1.045879  0  0  0.10444  0.074478  0  1.048756  0
H  H15  1  0.46221054  0.89385777  0.92611206  1  0  0.068042  0  0.979208  0  0  0.076034  0  1.04765  0  0  0.078263  0  1.045888  0  0  0.104434  0.074409  0  1.048778  0
H  H16  1  0.46219982  0.89387798  0.57387305  1  0  0.068013  0  0.979199  0  0  0.076043  0  1.047591  0  0  0.078261  0  1.045857  0  0  0.104416  0.074417  0  1.048721  0
H  H17  1  0.53778689  0.10613589  0.07388328  1  0  0.068061  0  0.979217  0  0  0.076084  0  1.047621  0  0  0.078308  0  1.045869  0  0  0.104437  0.074458  0  1.048749  0
H  H18  1  0.38818096  0.24362427  0.65131512  1  0  0.084935  0  0.94815  0  0  0.099598  0  1.012543  0  0  0.100899  0  1.012674  0  0  0.087206  0.098445  0  1.012716  0
H  H19  1  0.61182401  0.75636617  0.15133816  1  0  0.084873  0  0.948232  0  0  0.099596  0  1.012575  0  0  0.100903  0  1.012698  0  0  0.087187  0.098441  0  1.012751  0
H  H20  1  0.61182680  0.75637956  0.34867946  1  0  0.084859  0  0.94828  0  0  0.099599  0  1.012601  0  0  0.100903  0  1.012728  0  0  0.087195  0.098444  0  1.01278  0
H  H21  1  0.38818195  0.24363871  0.84866858  1  0  0.084886  0  0.948254  0  0  0.099585  0  1.012608  0  0  0.100884  0  1.012736  0  0  0.087189  0.09843  0  1.012782  0
H  H22  1  0.23394218  0.07941524  0.65930650  1  0  0.080772  0  0.943557  0  0  0.096366  0  1.009694  0  0  0.097122  0  1.01007  0  0  0.091235  0.095694  0  1.009596  0
H  H23  1  0.76604746  0.92057999  0.15930519  1  0  0.080794  0  0.943542  0  0  0.096354  0  1.009718  0  0  0.097111  0  1.0101  0  0  0.091189  0.095683  0  1.009616  0
H  H24  1  0.76606728  0.92058651  0.34069416  1  0  0.080774  0  0.943517  0  0  0.096407  0  1.009618  0  0  0.097165  0  1.009997  0  0  0.091257  0.095736  0  1.009518  0
H  H25  1  0.23397342  0.07942263  0.84069547  1  0  0.080828  0  0.943615  0  0  0.096394  0  1.009765  0  0  0.09715  0  1.010144  0  0  0.091192  0.095723  0  1.009664  0
H  H26  1  0.86916926  0.18976406  0.75000291  1  0  0.067163  0  0.943875  0  0  0.086106  0  1.005491  0  0  0.086743  0  1.006398  0  0  0.084008  0.085556  0  1.004941  0
H  H27  1  0.13084227  0.81023972  0.24999851  1  0  0.067141  0  0.943864  0  0  0.086137  0  1.005459  0  0  0.086774  0  1.006365  0  0  0.08403  0.08558  0  1.004922  0
H  H28  1  0.04181236  0.34784256  0.74999417  1  0  0.065171  0  0.954734  0  0  0.079858  0  1.023422  0  0  0.080541  0  1.023864  0  0  0.077869  0.079548  0  1.022714  0
H  H29  1  0.95820457  0.65215806  0.25000725  1  0  0.065119  0  0.954752  0  0  0.079828  0  1.023465  0  0  0.080512  0  1.023907  0  0  0.077858  0.07952  0  1.022755  0
C  C30  1  0.98406166  0.34357600  0.40338703  1  0  0.13588  0  3.721229  0  0  0.101095  0  3.974145  0  0  0.109263  0  3.99223  0  0  0.043079  0.096085  0  3.961891  0
C  C31  1  0.01591085  0.65642329  0.90339696  1  0  0.135906  0  3.721204  0  0  0.101334  0  3.974159  0  0  0.109504  0  3.99224  0  0  0.043159  0.096324  0  3.961906  0
C  C32  1  0.01593423  0.65642180  0.59661591  1  0  0.135901  0  3.72107  0  0  0.10117  0  3.974005  0  0  0.109339  0  3.992087  0  0  0.043041  0.096161  0  3.961752  0
C  C33  1  0.98406995  0.34357471  0.09659990  1  0  0.135893  0  3.720969  0  0  0.1013  0  3.973912  0  0  0.109471  0  3.991995  0  0  0.043131  0.096288  0  3.961661  0
C  C34  1  0.12596356  0.32386024  0.49088777  1  0  -0.174816  0  3.699671  0  0  -0.191472  0  3.948255  0  0  -0.200936  0  3.970551  0  0  -0.084264  -0.185477  0  3.933443  0
C  C35  1  0.87399994  0.67613692  0.99090320  1  0  -0.174922  0  3.699496  0  0  -0.191744  0  3.948117  0  0  -0.201208  0  3.970404  0  0  -0.08436  -0.185749  0  3.933312  0
C  C36  1  0.87403108  0.67614480  0.50911442  1  0  -0.174932  0  3.699662  0  0  -0.191662  0  3.948273  0  0  -0.20112  0  3.970545  0  0  -0.08428  -0.185664  0  3.933463  0
C  C37  1  0.12597736  0.32386423  0.00909595  1  0  -0.174837  0  3.699677  0  0  -0.191679  0  3.948255  0  0  -0.201142  0  3.970543  0  0  -0.084367  -0.185684  0  3.933449  0
C  C38  1  0.05634941  0.21939713  0.55928422  1  0  0.175189  0  3.696883  0  0  0.190335  0  3.931731  0  0  0.196666  0  3.95307  0  0  0.020833  0.185881  0  3.91698  0
C  C39  1  0.94365743  0.78059588  0.05928858  1  0  0.175196  0  3.697281  0  0  0.190419  0  3.932046  0  0  0.196754  0  3.953392  0  0  0.0209  0.185964  0  3.917292  0
C  C40  1  0.94366015  0.78060564  0.44071644  1  0  0.175277  0  3.696959  0  0  0.19048  0  3.931742  0  0  0.19682  0  3.95308  0  0  0.020873  0.186024  0  3.916995  0
C  C41  1  0.05635168  0.21940174  0.94071208  1  0  0.175242  0  3.697092  0  0  0.190541  0  3.93175  0  0  0.196876  0  3.95309  0  0  0.020893  0.186084  0  3.916996  0
C  C42  1  0.83842349  0.14039169  0.53628199  1  0  -0.169565  0  3.697242  0  0  -0.185146  0  3.942452  0  0  -0.193948  0  3.964563  0  0  -0.084881  -0.179535  0  3.927367  0
C  C43  1  0.16156932  0.85959289  0.03627449  1  0  -0.169524  0  3.697508  0  0  -0.185109  0  3.942643  0  0  -0.193914  0  3.964765  0  0  -0.084944  -0.179494  0  3.927549  0
C  C44  1  0.16158022  0.85960910  0.46371867  1  0  -0.169555  0  3.697246  0  0  -0.185156  0  3.94245  0  0  -0.19396  0  3.96457  0  0  -0.08486  -0.17954  0  3.927366  0
C  C45  1  0.83843494  0.14039243  0.96372465  1  0  -0.169619  0  3.697477  0  0  -0.185226  0  3.942623  0  0  -0.19403  0  3.964744  0  0  -0.084965  -0.17961  0  3.927535  0
C  C46  1  0.70647407  0.16564882  0.44767272  1  0  0.123511  0  3.725159  0  0  0.091956  0  3.973008  0  0  0.099231  0  3.991696  0  0  0.038255  0.087662  0  3.960349  0
C  C47  1  0.29351614  0.83433361  0.94766538  1  0  0.123584  0  3.725054  0  0  0.092132  0  3.972874  0  0  0.099387  0  3.991556  0  0  0.038295  0.087849  0  3.960192  0
C  C48  1  0.29352596  0.83435306  0.55232794  1  0  0.123564  0  3.725032  0  0  0.092052  0  3.972892  0  0  0.099305  0  3.991572  0  0  0.038262  0.087757  0  3.960237  0
C  C49  1  0.70648075  0.16565387  0.05233225  1  0  0.123529  0  3.725154  0  0  0.092033  0  3.972969  0  0  0.099289  0  3.991652  0  0  0.038246  0.087745  0  3.960297  0
C  C50  1  0.20256238  0.19095006  0.65410757  1  0  -0.17021  0  3.699997  0  0  -0.210603  0  3.944926  0  0  -0.21264  0  3.957158  0  0  -0.162988  -0.208934  0  3.936495  0
C  C51  1  0.79743516  0.80904441  0.15411790  1  0  -0.170132  0  3.700026  0  0  -0.210496  0  3.944874  0  0  -0.212549  0  3.957135  0  0  -0.162817  -0.208826  0  3.936441  0
C  C52  1  0.79744708  0.80905168  0.34589157  1  0  -0.170255  0  3.699987  0  0  -0.210735  0  3.945001  0  0  -0.212785  0  3.957253  0  0  -0.162995  -0.209068  0  3.936573  0
C  C53  1  0.20257601  0.19095526  0.84588504  1  0  -0.170316  0  3.700158  0  0  -0.21071  0  3.944916  0  0  -0.212752  0  3.95716  0  0  -0.162912  -0.209039  0  3.936487  0
C  C54  1  0.06136576  0.23545753  0.74999780  1  0  -0.085666  0  3.661285  0  0  -0.122024  0  3.912228  0  0  -0.123466  0  3.926716  0  0  -0.162681  -0.120906  0  3.901742  0
C  C55  1  0.93864739  0.76454314  0.25000438  1  0  -0.085576  0  3.661097  0  0  -0.122093  0  3.912292  0  0  -0.123533  0  3.92679  0  0  -0.162767  -0.120973  0  3.901805  0
N  N56  1  0.77845933  0.26503130  0.38135026  1  0  -0.331697  0  3.350143  0  0  -0.242991  0  3.621709  0  0  -0.262734  0  3.637797  0  0  -0.340515  -0.230239  0  3.610793  0
N  N57  1  0.22151849  0.73496541  0.88134925  1  0  -0.331751  0  3.350335  0  0  -0.243204  0  3.62197  0  0  -0.262939  0  3.63805  0  0  -0.340582  -0.230451  0  3.61106  0
N  N58  1  0.22154268  0.73497158  0.61865192  1  0  -0.331729  0  3.349978  0  0  -0.243059  0  3.621561  0  0  -0.262793  0  3.637642  0  0  -0.340516  -0.230307  0  3.61065  0
N  N59  1  0.77847138  0.26502835  0.11864913  1  0  -0.331669  0  3.350018  0  0  -0.243064  0  3.621592  0  0  -0.262812  0  3.637694  0  0  -0.340463  -0.230313  0  3.610681  0
Cl  Cl60  1  0.29368673  0.10919463  0.25000155  1  0  -0.55608  0  0.937404  0  0  -0.492419  0  1.213486  0  0  -0.506477  0  1.193111  0  0  -0.298863  -0.481971  0  1.226867  0
Cl  Cl61  1  0.70630360  0.89080428  0.74999835  1  0  -0.556087  0  0.937381  0  0  -0.492437  0  1.213473  0  0  -0.506489  0  1.193098  0  0  -0.298869  -0.481985  0  1.226854  0
Cl  Cl62  1  0.45078679  0.50791071  0.24999801  1  0  -0.562983  0  0.925322  0  0  -0.498801  0  1.197575  0  0  -0.513592  0  1.175703  0  0  -0.30508  -0.488074  0  1.211829  0
Cl  Cl63  1  0.54921684  0.49208905  0.75000114  1  0  -0.56301  0  0.925333  0  0  -0.498825  0  1.197569  0  0  -0.513605  0  1.175689  0  0  -0.30509  -0.4881  0  1.211822  0
