# generated using pymatgen
data_Zn4H24C36N4O17
_symmetry_space_group_name_H-M   'P 1'
_cell_length_a   18.39899058
_cell_length_b   18.39915096
_cell_length_c   25.00717678
_cell_angle_alpha   111.61511745
_cell_angle_beta   111.61344855
_cell_angle_gamma   89.89559318
_symmetry_Int_Tables_number   1
_chemical_formula_structural   Zn4H24C36N4O17
_chemical_formula_sum   'Zn8 H48 C72 N8 O34'
_cell_volume   7228.62143645
_cell_formula_units_Z   2
loop_
 _symmetry_equiv_pos_site_id
 _symmetry_equiv_pos_as_xyz
  1  'x, y, z'
loop_
 _atom_site_type_symbol
 _atom_site_label
 _atom_site_symmetry_multiplicity
 _atom_site_fract_x
 _atom_site_fract_y
 _atom_site_fract_z
 _atom_site_occupancy
 _atom_site_pbe_bader_charge
 _atom_site_pbe_bader_spin_density
 _atom_site_pbe_cm5_charge
 _atom_site_pbe_ddec_charge
 _atom_site_pbe_ddec_spin_density
 _atom_site_pbe_ddec_sum_bond_order
 _atom_site_pbe_magmom
Zn  Zn0  1  0.18990157  0.77641424  0.55337468  1  1.322517  0  0.671047  0.961396  0  2.384468  0
Zn  Zn1  1  0.81010066  0.22358593  0.44662650  1  1.322485  0  0.671121  0.961479  0  2.384318  0
Zn  Zn2  1  0.77687467  0.36354166  0.55334576  1  1.315966  0  0.671229  0.962059  0  2.38413  0
Zn  Zn3  1  0.22312625  0.63645996  0.44665589  1  1.316014  0  0.671268  0.962088  0  2.384055  0
Zn  Zn4  1  0.36354001  0.77687513  0.55333998  1  1.316137  0  0.671454  0.96226  0  2.383429  0
Zn  Zn5  1  0.63646274  0.22312864  0.44666233  1  1.316015  0  0.671322  0.962109  0  2.383705  0
Zn  Zn6  1  0.77641711  0.18990674  0.55338107  1  1.32253  0  0.671084  0.961461  0  2.384473  0
Zn  Zn7  1  0.22358640  0.81009510  0.44662080  1  1.322425  0  0.671005  0.961367  0  2.384619  0
H  H8  1  0.25633840  0.86669174  0.74591025  1  0.131242  0  0.111748  0.134798  0  0.999873  0
H  H9  1  0.74365994  0.13330401  0.25409238  1  0.131391  0  0.111724  0.134744  0  0.999949  0
H  H10  1  0.87931120  0.48961180  0.74587397  1  0.097581  0  0.111839  0.134599  0  0.999514  0
H  H11  1  0.12068443  0.51039083  0.25412890  1  0.097582  0  0.111813  0.134551  0  0.999527  0
H  H12  1  0.48960491  0.87930717  0.74586455  1  0.097471  0  0.111775  0.134482  0  0.999614  0
H  H13  1  0.51039191  0.12069305  0.25413535  1  0.097439  0  0.111805  0.134474  0  0.999563  0
H  H14  1  0.86669336  0.25635053  0.74591289  1  0.131397  0  0.111751  0.134758  0  1.000025  0
H  H15  1  0.13330919  0.74365071  0.25408802  1  0.131344  0  0.111748  0.134754  0  1.000005  0
H  H16  1  0.02569309  0.92906401  0.57123567  1  0.110636  0  0.109546  0.115098  0  0.99244  0
H  H17  1  0.97430785  0.07093460  0.42876540  1  0.110459  0  0.109556  0.115123  0  0.992489  0
H  H18  1  0.92910641  0.54573293  0.57129311  1  0.083624  0  0.108806  0.113851  0  0.994143  0
H  H19  1  0.07089630  0.45426608  0.42870856  1  0.083499  0  0.10879  0.113804  0  0.994165  0
H  H20  1  0.54549349  0.64215726  0.57122610  1  0.12869  0  0.109639  0.115127  0  0.993014  0
H  H21  1  0.45450751  0.35784592  0.42877445  1  0.128739  0  0.109633  0.1151  0  0.993005  0
H  H22  1  0.64215784  0.02563898  0.57126209  1  0.1234  0  0.108664  0.113725  0  0.993465  0
H  H23  1  0.35785040  0.97436125  0.42873801  1  0.123554  0  0.108654  0.113781  0  0.993404  0
H  H24  1  0.45427114  0.07089259  0.42871032  1  0.081786  0  0.108821  0.113892  0  0.994224  0
H  H25  1  0.54573459  0.92910626  0.57128964  1  0.083603  0  0.108808  0.113931  0  0.994188  0
H  H26  1  0.35784247  0.45451046  0.42877325  1  0.128732  0  0.109655  0.115129  0  0.992894  0
H  H27  1  0.64215510  0.54549046  0.57122445  1  0.128759  0  0.109634  0.115086  0  0.992948  0
H  H28  1  0.97436358  0.35784884  0.42873770  1  0.123389  0  0.108678  0.113816  0  0.993545  0
H  H29  1  0.02563657  0.64215239  0.57126081  1  0.12343  0  0.108677  0.113824  0  0.993482  0
H  H30  1  0.07093937  0.97430500  0.42876398  1  0.110494  0  0.109508  0.115049  0  0.992418  0
H  H31  1  0.92906133  0.02569419  0.57123685  1  0.110579  0  0.10952  0.115063  0  0.992389  0
H  H32  1  0.28817774  0.82183189  0.87472359  1  0.058229  0  0.098896  0.095558  0  0.995046  0
H  H33  1  0.21085640  0.83898645  0.81282622  1  0.05136  0  0.095196  0.090091  0  0.99933  0
H  H34  1  0.22280609  0.89067739  0.89267030  1  0.064132  0  0.109295  0.115709  0  0.967119  0
H  H35  1  0.78914460  0.16101400  0.18717551  1  0.051313  0  0.095178  0.090092  0  0.999326  0
H  H36  1  0.71182351  0.17816274  0.12527483  1  0.058296  0  0.098892  0.095582  0  0.99511  0
H  H37  1  0.77719615  0.10931713  0.10733209  1  0.064068  0  0.109283  0.115686  0  0.967046  0
H  H38  1  0.97383673  0.60209331  0.81285302  1  0.050511  0  0.095617  0.090743  0  0.997764  0
H  H39  1  0.05276871  0.58659524  0.87476280  1  0.052075  0  0.098797  0.095604  0  0.995938  0
H  H40  1  0.00186525  0.66990809  0.89268734  1  0.072043  0  0.10959  0.116403  0  0.968054  0
H  H41  1  0.94722962  0.41340606  0.12523804  1  0.052484  0  0.098761  0.09558  0  0.996038  0
H  H42  1  0.02615642  0.39790775  0.18714854  1  0.050502  0  0.095663  0.090807  0  0.99781  0
H  H43  1  0.99812911  0.33009287  0.10731484  1  0.072026  0  0.109578  0.116462  0  0.968001  0
H  H44  1  0.58657289  0.05276705  0.87477252  1  0.052506  0  0.098768  0.095551  0  0.995927  0
H  H45  1  0.60208392  0.97385811  0.81285430  1  0.050587  0  0.095557  0.090596  0  0.997959  0
H  H46  1  0.66990030  0.00187712  0.89268906  1  0.072117  0  0.109585  0.116346  0  0.968029  0
H  H47  1  0.39791203  0.02614832  0.18714711  1  0.050508  0  0.095681  0.090816  0  0.99798  0
H  H48  1  0.41342071  0.94723595  0.12523068  1  0.052014  0  0.098784  0.095636  0  0.995975  0
H  H49  1  0.33009726  0.99812913  0.10731279  1  0.072098  0  0.109603  0.116493  0  0.968038  0
H  H50  1  0.83900475  0.21085072  0.81282314  1  0.051411  0  0.095154  0.090028  0  0.999347  0
H  H51  1  0.82182343  0.28816119  0.87471375  1  0.057605  0  0.098962  0.095622  0  0.995048  0
H  H52  1  0.89068420  0.22280676  0.89266826  1  0.064025  0  0.10928  0.115624  0  0.967151  0
H  H53  1  0.17818335  0.71184473  0.12529498  1  0.057301  0  0.098956  0.095598  0  0.995191  0
H  H54  1  0.16098885  0.78915501  0.18717888  1  0.051332  0  0.095179  0.090025  0  0.999315  0
H  H55  1  0.10931660  0.77719107  0.10733149  1  0.064064  0  0.109294  0.115667  0  0.967174  0
C  C56  1  0.32012067  0.88157388  0.77216890  1  0.071774  0  -0.099429  -0.232821  0  3.963777  0
C  C57  1  0.67987928  0.11842461  0.22783414  1  0.071677  0  -0.099374  -0.232698  0  3.963575  0
C  C58  1  0.57978715  0.52631847  0.54028922  1  -0.030978  0  -0.079108  -0.090768  0  3.972581  0
C  C59  1  0.98605986  0.42022778  0.45968280  1  -0.059926  0  -0.079377  -0.091031  0  3.97021  0
C  C60  1  0.01393688  0.57977101  0.54031169  1  -0.059696  0  -0.079336  -0.090884  0  3.970212  0
C  C61  1  0.03950133  0.98602847  0.45970510  1  0.021007  0  -0.079412  -0.091212  0  3.969427  0
C  C62  1  0.96049682  0.01397012  0.54029317  1  0.020892  0  -0.07943  -0.091196  0  3.969562  0
C  C63  1  0.94626488  0.05373358  0.50000201  1  7.6e-05  0  -0.012471  -0.029127  0  3.966915  0
C  C64  1  0.05373640  0.94626318  0.49999881  1  0.00066  0  -0.012488  -0.029055  0  3.966877  0
C  C65  1  0.05366893  0.55360064  0.49998425  1  0.023013  0  -0.013156  -0.030888  0  3.968841  0
C  C66  1  0.94632436  0.44639891  0.50000796  1  0.02305  0  -0.013116  -0.030629  0  3.968803  0
C  C67  1  0.55371268  0.44628886  0.50000076  1  0.067965  0  -0.013028  -0.029632  0  3.968819  0
C  C68  1  0.89071005  0.45210337  0.77214641  1  0.105928  0  -0.099314  -0.231687  0  3.962169  0
C  C69  1  0.44628845  0.55370995  0.49999814  1  0.067989  0  -0.013053  -0.029678  0  3.968732  0
C  C70  1  0.44639388  0.94632843  0.50000389  1  0.022507  0  -0.013187  -0.030544  0  3.96862  0
C  C71  1  0.55361056  0.05366644  0.49999179  1  0.02299  0  -0.013098  -0.030686  0  3.968469  0
C  C72  1  0.10928824  0.54789841  0.22785735  1  0.105834  0  -0.099307  -0.231596  0  3.962182  0
C  C73  1  0.43544936  0.93538629  0.87080782  1  0.086598  0  -0.011372  -0.179241  0  3.955838  0
C  C74  1  0.56455052  0.06461317  0.12919397  1  0.086617  0  -0.011306  -0.17915  0  3.955823  0
C  C75  1  0.93538751  0.43545336  0.87080891  1  0.086571  0  -0.011384  -0.179305  0  3.955995  0
C  C76  1  0.06461366  0.56454485  0.12919359  1  0.08657  0  -0.011283  -0.179269  0  3.955964  0
C  C77  1  0.25403341  0.86628925  0.86172872  1  0.383203  0  -0.133003  -0.164509  0  3.924087  0
C  C78  1  0.45209932  0.89070337  0.77214032  1  0.105461  0  -0.099261  -0.231528  0  3.962025  0
C  C79  1  0.74596484  0.13371049  0.13827322  1  0.383084  0  -0.132974  -0.164542  0  3.924052  0
C  C80  1  0.99533872  0.60776617  0.86174825  1  0.386638  0  -0.133985  -0.167039  0  3.925147  0
C  C81  1  0.00465516  0.39223586  0.13825286  1  0.38609  0  -0.134031  -0.167282  0  3.92536  0
C  C82  1  0.60775095  0.99534472  0.86174806  1  0.385756  0  -0.133945  -0.166793  0  3.925202  0
C  C83  1  0.39224518  0.00465938  0.13825353  1  0.386674  0  -0.134121  -0.16735  0  3.925534  0
C  C84  1  0.86629123  0.25403270  0.86172540  1  0.383904  0  -0.133006  -0.164425  0  3.924164  0
C  C85  1  0.13370982  0.74596969  0.13827758  1  0.384232  0  -0.133046  -0.164454  0  3.924335  0
C  C86  1  0.54790025  0.10929483  0.22786056  1  0.105476  0  -0.099247  -0.231416  0  3.96193  0
C  C87  1  0.88157310  0.32012518  0.77217027  1  0.071754  0  -0.09939  -0.232715  0  3.963762  0
C  C88  1  0.11842751  0.67987517  0.22783048  1  0.071797  0  -0.099409  -0.232812  0  3.963761  0
C  C89  1  0.35291648  0.91389004  0.83746957  1  0.379194  0  0.092066  0.247851  0  4.045176  0
C  C90  1  0.64708262  0.08610641  0.16253084  1  0.379344  0  0.092014  0.247751  0  4.045478  0
C  C91  1  0.92354544  0.48461113  0.83744604  1  0.402335  0  0.09173  0.246122  0  4.048731  0
C  C92  1  0.07645255  0.51538938  0.16255682  1  0.402344  0  0.091723  0.246001  0  4.048806  0
C  C93  1  0.48460325  0.92353880  0.83744092  1  0.402508  0  0.091636  0.2459  0  4.048653  0
C  C94  1  0.51539486  0.07646026  0.16256028  1  0.402505  0  0.09162  0.245895  0  4.048649  0
C  C95  1  0.91389185  0.35292224  0.83747122  1  0.379033  0  0.091927  0.247697  0  4.045531  0
C  C96  1  0.08610910  0.64707627  0.16252927  1  0.379061  0  0.09191  0.247775  0  4.045579  0
C  C97  1  0.36993233  0.86997453  0.73980351  1  -0.0814  0  -0.016244  0.008396  0  4.010255  0
C  C98  1  0.63006421  0.13002392  0.26019967  1  -0.081546  0  -0.016325  0.008243  0  4.010213  0
C  C99  1  0.86997738  0.36994014  0.73980681  1  -0.082023  0  -0.016265  0.008312  0  4.010117  0
C  C100  1  0.13002234  0.63006147  0.26019364  1  -0.082095  0  -0.016261  0.008395  0  4.010105  0
C  C101  1  0.53003901  0.03010487  0.06016095  1  1.021955  0  0.250119  0.294507  0  3.981971  0
C  C102  1  0.46996273  0.96989373  0.93984093  1  1.02187  0  0.250147  0.294723  0  3.981779  0
C  C103  1  0.03010559  0.53003348  0.06015927  1  1.021883  0  0.250077  0.294526  0  3.981715  0
C  C104  1  0.96989519  0.46996463  0.93984223  1  1.021809  0  0.250123  0.29453  0  3.981827  0
C  C105  1  0.16502850  0.66505463  0.33018089  1  1.59424  0  0.229253  0.60786  0  4.15054  0
C  C106  1  0.83497214  0.33494271  0.66981929  1  1.593963  0  0.229415  0.608168  0  4.150395  0
C  C107  1  0.66505916  0.16503038  0.33018992  1  1.59414  0  0.229317  0.607794  0  4.150607  0
C  C108  1  0.33494454  0.83496893  0.66981096  1  1.594362  0  0.229273  0.607754  0  4.150958  0
C  C109  1  0.11111695  0.61093369  0.50001162  1  1.535574  0  0.22881  0.60591  0  4.166151  0
C  C110  1  0.88888223  0.38905950  0.49997937  1  1.535848  0  0.228751  0.6057  0  4.166446  0
C  C111  1  0.61116462  0.38881218  0.49999404  1  1.55023  0  0.228967  0.604786  0  4.169936  0
C  C112  1  0.38883325  0.61118737  0.50000633  1  1.550126  0  0.22899  0.604823  0  4.170011  0
C  C113  1  0.38907786  0.88887912  0.49999086  1  1.535986  0  0.22868  0.605654  0  4.165953  0
C  C114  1  0.61093559  0.11111812  0.50001387  1  1.536651  0  0.228605  0.605538  0  4.166072  0
C  C115  1  0.88878491  0.11121860  0.50000077  1  1.505696  0  0.22823  0.602431  0  4.167897  0
C  C116  1  0.11121787  0.88878216  0.50000097  1  1.505596  0  0.22826  0.602445  0  4.168212  0
C  C117  1  0.01396904  0.96049727  0.54029369  1  -0.103019  0  -0.079377  -0.091198  0  3.969222  0
C  C118  1  0.98603285  0.03949951  0.45970418  1  -0.102605  0  -0.079362  -0.091186  0  3.969219  0
C  C119  1  0.96054035  0.52643147  0.54033748  1  -0.048521  0  -0.079295  -0.09037  0  3.971152  0
C  C120  1  0.03945152  0.47356574  0.45965329  1  -0.048525  0  -0.079172  -0.090096  0  3.970879  0
C  C121  1  0.52632677  0.57979259  0.54029479  1  -0.154758  0  -0.079147  -0.091047  0  3.972176  0
C  C122  1  0.47367393  0.42020932  0.45970486  1  -0.154809  0  -0.079109  -0.090932  0  3.972156  0
C  C123  1  0.57977057  0.01393896  0.54030884  1  -0.059834  0  -0.079358  -0.09069  0  3.970618  0
C  C124  1  0.42023594  0.98605758  0.45968834  1  -0.059326  0  -0.079336  -0.090906  0  3.970618  0
C  C125  1  0.47356610  0.03945343  0.45965335  1  -0.046871  0  -0.079222  -0.090328  0  3.970437  0
C  C126  1  0.52643963  0.96054301  0.54034244  1  -0.048312  0  -0.079155  -0.090552  0  3.970585  0
C  C127  1  0.42021293  0.47368102  0.45970921  1  -0.030972  0  -0.079156  -0.090893  0  3.972603  0
N  N128  1  0.51868365  0.03993939  0.96902507  1  -0.632644  0  -0.155693  -0.150499  0  3.192862  0
N  N129  1  0.48131875  0.96005845  0.03097628  1  -0.632721  0  -0.155746  -0.150469  0  3.192921  0
N  N130  1  0.92907613  0.45039129  0.96905671  1  -0.472734  0  -0.155846  -0.149993  0  3.191418  0
N  N131  1  0.07092554  0.54960557  0.03094509  1  -0.472782  0  -0.155748  -0.149925  0  3.191258  0
N  N132  1  0.45037537  0.92908800  0.96905726  1  -0.472553  0  -0.15573  -0.14983  0  3.191444  0
N  N133  1  0.54962702  0.07090993  0.03094468  1  -0.47265  0  -0.155786  -0.149769  0  3.191568  0
N  N134  1  0.03995406  0.51866560  0.96902517  1  -0.63244  0  -0.155711  -0.150269  0  3.192675  0
N  N135  1  0.96004681  0.48133125  0.03097583  1  -0.632497  0  -0.155673  -0.150248  0  3.192823  0
O  O136  1  0.25004585  0.74995196  0.49999699  1  -1.251703  0  -0.57187  -1.027682  0  2.538958  0
O  O137  1  0.82282272  0.38325069  0.64271374  1  -1.17639  0  -0.315893  -0.545884  0  2.338537  0
O  O138  1  0.61675509  0.17717814  0.35729481  1  -1.17652  0  -0.315815  -0.545712  0  2.33896  0
O  O139  1  0.38323730  0.82282504  0.64270836  1  -1.176812  0  -0.315664  -0.545542  0  2.339502  0
O  O140  1  0.18000977  0.74046717  0.35725758  1  -1.159823  0  -0.315231  -0.545022  0  2.336343  0
O  O141  1  0.81998973  0.25953997  0.64274443  1  -1.159745  0  -0.31533  -0.545194  0  2.336677  0
O  O142  1  0.74047083  0.18001220  0.35726250  1  -1.159985  0  -0.315277  -0.544997  0  2.336375  0
O  O143  1  0.25952300  0.81998790  0.64273736  1  -1.159879  0  -0.315363  -0.545139  0  2.336192  0
O  O144  1  0.17717936  0.61675667  0.35728849  1  -1.176598  0  -0.315826  -0.545781  0  2.338999  0
O  O145  1  0.74995638  0.25004812  0.50000360  1  -1.251704  0  -0.5719  -1.027762  0  2.539022  0
O  O146  1  0.14466504  0.58338428  0.46173956  1  -1.15364  0  -0.314124  -0.54684  0  2.339841  0
O  O147  1  0.85533608  0.41661472  0.53826051  1  -1.153663  0  -0.314138  -0.546835  0  2.339344  0
O  O148  1  0.58373342  0.31702352  0.46177031  1  -1.181019  0  -0.314207  -0.546575  0  2.343309  0
O  O149  1  0.41626127  0.68297561  0.53823162  1  -1.180996  0  -0.314254  -0.546622  0  2.343407  0
O  O150  1  0.31727205  0.87804891  0.46168810  1  -1.176868  0  -0.314552  -0.547211  0  2.339066  0
O  O151  1  0.68273211  0.12194692  0.53830968  1  -1.177328  0  -0.314408  -0.546956  0  2.339774  0
O  O152  1  0.87798592  0.14481748  0.46176948  1  -1.157777  0  -0.314036  -0.545499  0  2.340895  0
O  O153  1  0.12201948  0.85518562  0.53823489  1  -1.15794  0  -0.314031  -0.545482  0  2.341011  0
O  O154  1  0.68298209  0.41626314  0.53823741  1  -1.180114  0  -0.314483  -0.546976  0  2.341822  0
O  O155  1  0.31701886  0.58373810  0.46176190  1  -1.180001  0  -0.314484  -0.546989  0  2.342017  0
O  O156  1  0.12194478  0.68272184  0.53830262  1  -1.176962  0  -0.314513  -0.547129  0  2.340039  0
O  O157  1  0.87805560  0.31727890  0.46169671  1  -1.177305  0  -0.314452  -0.546987  0  2.340673  0
O  O158  1  0.85518491  0.12201953  0.53823827  1  -1.157931  0  -0.314092  -0.545626  0  2.340739  0
O  O159  1  0.14481539  0.87797966  0.46176216  1  -1.157915  0  -0.314074  -0.545614  0  2.340839  0
O  O160  1  0.41661551  0.85533929  0.53825522  1  -1.15436  0  -0.314035  -0.546711  0  2.34041  0
O  O161  1  0.58339108  0.14466140  0.46174619  1  -1.154551  0  -0.314068  -0.546773  0  2.340035  0
O  O162  1  0.30691088  0.93177473  0.87177091  1  -1.082105  0  -0.204856  -0.190843  0  2.535469  0
O  O163  1  0.69308979  0.06822201  0.12823286  1  -1.081947  0  -0.204803  -0.190739  0  2.535623  0
O  O164  1  0.93983058  0.56490703  0.87170717  1  -1.071747  0  -0.203854  -0.188356  0  2.53537  0
O  O165  1  0.06016758  0.43509115  0.12829587  1  -1.071584  0  -0.203816  -0.188145  0  2.535231  0
O  O166  1  0.56490184  0.93981449  0.87169345  1  -1.071214  0  -0.203733  -0.188247  0  2.535365  0
O  O167  1  0.43509847  0.06018460  0.12830640  1  -1.071557  0  -0.203703  -0.188137  0  2.535313  0
O  O168  1  0.93177231  0.30692332  0.87177564  1  -1.081857  0  -0.204744  -0.190713  0  2.535706  0
O  O169  1  0.06822827  0.69307490  0.12822270  1  -1.081776  0  -0.204718  -0.190703  0  2.535669  0
