# generated using pymatgen
data_Co3H22(C15O8)2
_symmetry_space_group_name_H-M   'P 1'
_cell_length_a   14.67866553
_cell_length_b   19.11803674
_cell_length_c   19.11895295
_cell_angle_alpha   113.68791058
_cell_angle_beta   104.83568293
_cell_angle_gamma   104.82839358
_symmetry_Int_Tables_number   1
_chemical_formula_structural   Co3H22(C15O8)2
_chemical_formula_sum   'Co9 H66 C90 O48'
_cell_volume   4341.85715413
_cell_formula_units_Z   3
loop_
 _symmetry_equiv_pos_site_id
 _symmetry_equiv_pos_as_xyz
  1  'x, y, z'
loop_
 _atom_site_type_symbol
 _atom_site_label
 _atom_site_symmetry_multiplicity
 _atom_site_fract_x
 _atom_site_fract_y
 _atom_site_fract_z
 _atom_site_occupancy
 _atom_site_pbe_bader_charge
 _atom_site_pbe_bader_spin_density
 _atom_site_pbe_cm5_charge
 _atom_site_pbe_ddec_charge
 _atom_site_pbe_ddec_spin_density
 _atom_site_pbe_ddec_sum_bond_order
 _atom_site_pbe_magmom
Co  Co0  1  0.42036847  0.33378420  0.03538589  1  1.283175  2.587278  0.624759  0.969491  2.780554  2.398821  2.567
Co  Co1  1  0.38492545  0.96469059  0.29840869  1  1.281872  2.58734  0.624573  0.968279  2.78075  2.400453  2.567
Co  Co2  1  0.08649079  0.70152270  0.66616395  1  1.286071  2.587393  0.624755  0.96941  2.779471  2.399865  2.567
Co  Co3  1  0.57965334  0.66623257  0.96464099  1  1.282902  2.587303  0.624694  0.969379  2.780691  2.398742  2.567
Co  Co4  1  0.61506293  0.03530431  0.70156568  1  1.281891  2.587302  0.624549  0.968172  2.780711  2.400724  2.566
Co  Co5  1  0.91348490  0.29844971  0.33381929  1  1.28611  2.587399  0.624804  0.969597  2.779434  2.39968  2.567
Co  Co6  1  0.50000957  0.50001161  0.00000590  1  1.39041  2.661998  0.675297  1.111107  2.880225  2.341176  2.649
Co  Co7  1  0.49999148  0.00001260  0.49999848  1  1.39458  2.661921  0.674626  1.109431  2.879488  2.341595  2.649
Co  Co8  1  0.99999929  0.49999672  0.49998777  1  1.393752  2.661598  0.674813  1.10995  2.879864  2.340271  2.649
H  H9  1  0.37985920  0.63947502  0.16503612  1  0.086243  0.000186  0.101926  0.104926  2.6e-05  1.012524  0.0
H  H10  1  0.21480094  0.83510820  0.47452764  1  0.07921  0.000192  0.102265  0.105289  2.7e-05  1.013123  0.0
H  H11  1  0.74021625  0.52558922  0.36044673  1  0.084137  0.000182  0.102031  0.104903  2.7e-05  1.013026  0.0
H  H12  1  0.62013516  0.36053050  0.83496253  1  0.085375  0.000186  0.101913  0.104945  2.6e-05  1.012592  0.0
H  H13  1  0.78520956  0.16491544  0.52546524  1  0.079044  0.000192  0.102258  0.105254  2.7e-05  1.013199  0.0
H  H14  1  0.25976352  0.47440255  0.63952887  1  0.084591  0.000182  0.101988  0.104866  2.7e-05  1.012807  0.0
H  H15  1  0.35025447  0.72206760  0.28954744  1  0.065521  4.4e-05  0.101149  0.105764  -7.2e-05  1.008755  0.0
H  H16  1  0.06076597  0.71050483  0.43259458  1  0.062146  4.5e-05  0.10095  0.105113  -7.3e-05  1.009377  0.0
H  H17  1  0.62800461  0.56754917  0.27792140  1  0.047034  4.4e-05  0.101067  0.105274  -7.2e-05  1.009377  0.0
H  H18  1  0.64972957  0.27792855  0.71044697  1  0.065531  4.4e-05  0.101098  0.105755  -7.2e-05  1.008814  0.0
H  H19  1  0.93925948  0.28950506  0.56741509  1  0.061789  4.4e-05  0.101014  0.105219  -7.3e-05  1.009449  0.0
H  H20  1  0.37198311  0.43245572  0.72206993  1  0.04746  4.4e-05  0.101098  0.105308  -7.2e-05  1.009457  0.0
H  H21  1  0.30161351  0.51830260  0.33982932  1  0.064887  0.000148  0.099511  0.100091  5.5e-05  1.005209  0.0
H  H22  1  0.96176740  0.66014801  0.17849827  1  0.033315  0.000152  0.09962  0.100132  5.5e-05  1.005459  0.0
H  H23  1  0.78317268  0.82162046  0.48178003  1  0.052499  0.00015  0.099338  0.099639  5.5e-05  1.004815  0.0
H  H24  1  0.69840419  0.48170167  0.66017761  1  0.064684  0.000148  0.099519  0.100136  5.5e-05  1.00516  0.0
H  H25  1  0.03825347  0.33982877  0.82149616  1  0.033561  0.000152  0.099697  0.100199  5.5e-05  1.005419  0.0
H  H26  1  0.21680122  0.17837382  0.51823621  1  0.052206  0.00015  0.099304  0.099651  5.5e-05  1.004678  0.0
H  H27  1  0.32515648  0.43469631  0.21222361  1  0.068418  0.000208  0.096948  0.097171  -1e-06  1.015855  0.0
H  H28  1  0.11295965  0.78773179  0.22246268  1  0.073098  0.000216  0.096618  0.097178  -1e-06  1.015379  0.0
H  H29  1  0.89047020  0.77757290  0.56528130  1  0.083214  0.000207  0.096763  0.097348  0.0  1.015417  0.0
H  H30  1  0.67486716  0.56531420  0.78778700  1  0.067928  0.000208  0.096946  0.097157  -0.0  1.015964  0.0
H  H31  1  0.88703729  0.21224499  0.77750401  1  0.073735  0.000216  0.096587  0.097137  -1e-06  1.015644  0.0
H  H32  1  0.10948801  0.22239700  0.43471683  1  0.083547  0.000206  0.096747  0.097364  0.0  1.015515  0.0
H  H33  1  0.44589949  0.79104651  0.43557754  1  0.112486  0.000206  0.107416  0.114258  -2e-06  1.02369  0.0
H  H34  1  0.01032878  0.56443781  0.35555247  1  0.115665  0.000209  0.107616  0.11524  -3e-06  1.023027  0.0
H  H35  1  0.65473046  0.64456493  0.20893694  1  0.096758  0.000199  0.107698  0.115232  -2e-06  1.023434  0.0
H  H36  1  0.55408330  0.20895838  0.56441281  1  0.112488  0.000206  0.107473  0.114421  -2e-06  1.023555  0.0
H  H37  1  0.98968254  0.43553959  0.64444137  1  0.115752  0.00021  0.107688  0.115308  -3e-06  1.022907  0.0
H  H38  1  0.34527016  0.35544746  0.79106779  1  0.096445  0.000198  0.10766  0.115182  -3e-06  1.02371  0.0
H  H39  1  0.33378721  0.81023117  0.62635549  1  0.094713  0.000692  0.106768  0.116126  0.000291  1.006865  0.0
H  H40  1  0.70745571  0.37354970  0.18380515  1  0.10948  0.000695  0.10659  0.116148  0.000293  1.006199  0.0
H  H41  1  0.52355886  0.81622754  0.18970999  1  0.095878  0.000697  0.10662  0.116145  0.000291  1.007565  0.0
H  H42  1  0.66621101  0.18976935  0.37363929  1  0.094278  0.000692  0.106748  0.116091  0.000291  1.006883  0.0
H  H43  1  0.29254235  0.62644769  0.81619566  1  0.109448  0.000695  0.106589  0.116162  0.000293  1.006202  0.0
H  H44  1  0.47644819  0.18377798  0.81029743  1  0.096023  0.000698  0.10668  0.116189  0.000291  1.007569  0.0
H  H45  1  0.19648612  0.57938303  0.39376046  1  0.081139  0.000212  0.106338  0.110878  5.1e-05  1.008151  0.0
H  H46  1  0.80278230  0.60617179  0.18559641  1  0.08319  0.000223  0.106418  0.111182  5.1e-05  1.009204  0.0
H  H47  1  0.61698737  0.81442612  0.42052760  1  0.079835  0.000224  0.106266  0.111032  5.1e-05  1.008535  0.0
H  H48  1  0.80351414  0.42060187  0.60623682  1  0.081324  0.000212  0.106337  0.110857  5.1e-05  1.008172  0.0
H  H49  1  0.19725010  0.39383935  0.81442507  1  0.082713  0.000223  0.106345  0.111104  5.1e-05  1.009245  0.0
H  H50  1  0.38300087  0.18558127  0.57948105  1  0.079688  0.000224  0.106288  0.111018  5.1e-05  1.008352  0.0
H  H51  1  0.37855792  0.25936743  0.12442700  1  0.617864  0.001653  0.342828  0.418827  0.00074  0.854366  0.001
H  H52  1  0.25426450  0.87571344  0.13499661  1  0.605686  0.001722  0.342793  0.417203  0.00074  0.85427  0.001
H  H53  1  0.11921104  0.86501083  0.74068813  1  0.638579  0.00159  0.343201  0.418528  0.000745  0.852937  0.001
H  H54  1  0.62145492  0.74062996  0.87557988  1  0.617426  0.001653  0.342854  0.418748  0.00074  0.854359  0.001
H  H55  1  0.74574766  0.12431207  0.86498324  1  0.605309  0.001723  0.342687  0.417029  0.00074  0.854389  0.001
H  H56  1  0.88079850  0.13497157  0.25933980  1  0.637837  0.001593  0.343076  0.418603  0.000745  0.852852  0.001
H  H57  1  0.49768682  0.30770788  0.15372648  1  0.631649  -3.9e-05  0.335681  0.414961  -0.000284  0.866217  0.0
H  H58  1  0.34398621  0.84628482  0.15402628  1  0.633964  -3.3e-05  0.335296  0.413073  -0.000281  0.867412  0.0
H  H59  1  0.18997535  0.84599367  0.69232307  1  0.63123  -2.9e-05  0.336152  0.415229  -0.00028  0.865818  0.0
H  H60  1  0.50233443  0.69231764  0.84630746  1  0.632345  -4e-05  0.3355  0.41444  -0.000285  0.866634  0.0
H  H61  1  0.65600427  0.15370445  0.84595514  1  0.634013  -3.3e-05  0.335323  0.413013  -0.000281  0.867523  0.0
H  H62  1  0.81002989  0.15398998  0.30769876  1  0.630467  -2.7e-05  0.336065  0.415171  -0.00028  0.865859  0.0
H  H63  1  0.23009811  0.29256203  0.98948731  1  0.628066  -0.000469  0.316172  0.40121  -0.000625  0.899722  0.0
H  H64  1  0.24059879  0.01068322  0.30320359  1  0.619655  -0.00049  0.316287  0.401613  -0.000623  0.899404  0.0
H  H65  1  0.93736623  0.69674565  0.70739990  1  0.632401  -0.000498  0.31654  0.401935  -0.000622  0.898968  0.0
H  H66  1  0.76993931  0.70745786  0.01057738  1  0.626803  -0.000469  0.316173  0.401207  -0.000624  0.899712  0.0
H  H67  1  0.75938483  0.98929793  0.69676380  1  0.620052  -0.00049  0.316325  0.401729  -0.000623  0.899235  0.0
H  H68  1  0.06260899  0.30322863  0.29258452  1  0.633088  -0.000498  0.316562  0.402007  -0.000622  0.898866  0.0
H  H69  1  0.23139726  0.21696089  0.91604147  1  0.604085  -0.000127  0.328176  0.409045  -0.000284  0.871287  0.0
H  H70  1  0.31540158  0.08398827  0.30090536  1  0.600309  -0.000152  0.328419  0.408881  -0.000288  0.871298  0.0
H  H71  1  0.01438802  0.69899944  0.78299563  1  0.596513  -0.000122  0.328358  0.408805  -0.000283  0.871767  0.0
H  H72  1  0.76861348  0.78304650  0.08401294  1  0.603698  -0.000127  0.327996  0.408618  -0.000284  0.871699  0.0
H  H73  1  0.68459591  0.91601787  0.69909729  1  0.600594  -0.000153  0.328283  0.408658  -0.000289  0.871507  0.0
H  H74  1  0.98559650  0.30098921  0.21700058  1  0.59666  -0.000121  0.328164  0.40849  -0.000283  0.872169  0.0
C  C75  1  0.35505817  0.53220064  0.18131097  1  -0.051974  0.009824  -0.024364  -0.045495  0.005208  3.977758  0.008
C  C76  1  0.17374908  0.81873083  0.35092468  1  0.037082  0.009828  -0.024562  -0.045171  0.005215  3.979264  0.008
C  C77  1  0.82276202  0.64914160  0.46774639  1  -0.026298  0.009888  -0.02447  -0.046543  0.005212  3.978344  0.008
C  C78  1  0.64495733  0.46781050  0.81869515  1  -0.051542  0.009825  -0.024449  -0.045517  0.005208  3.977518  0.008
C  C79  1  0.82624507  0.18127281  0.64906375  1  0.03678  0.009831  -0.024606  -0.045239  0.005216  3.979174  0.008
C  C80  1  0.17720551  0.35083705  0.53224454  1  -0.025683  0.009882  -0.02449  -0.046528  0.00521  3.977931  0.008
C  C81  1  0.36107027  0.61303620  0.20303072  1  -0.056122  0.000344  -0.08328  -0.081116  -0.000272  3.979691  0.0
C  C82  1  0.15802408  0.79706849  0.41007063  1  -0.043895  0.000347  -0.083574  -0.082277  -0.000269  3.984934  0.0
C  C83  1  0.74784697  0.59002777  0.38693103  1  -0.033489  0.000338  -0.083514  -0.080818  -0.000264  3.982516  0.0
C  C84  1  0.63893013  0.38696870  0.79697043  1  -0.0557  0.000344  -0.083153  -0.081009  -0.000272  3.979645  0.0
C  C85  1  0.84198517  0.20294141  0.58992486  1  -0.043321  0.000347  -0.083669  -0.082396  -0.000269  3.985157  0.0
C  C86  1  0.25212972  0.40996213  0.61305367  1  -0.03293  0.00034  -0.083368  -0.080537  -0.000262  3.981833  0.0
C  C87  1  0.34570129  0.65928320  0.27319053  1  0.007401  0.000696  -0.090545  -0.132932  0.000279  3.969074  0.001
C  C88  1  0.07254576  0.72688963  0.38617258  1  0.00263  0.000691  -0.09003  -0.130851  0.000279  3.970971  0.001
C  C89  1  0.68621086  0.61396992  0.34072777  1  0.008574  0.000694  -0.090256  -0.132527  0.000279  3.971081  0.001
C  C90  1  0.65429339  0.34071732  0.72680931  1  0.007457  0.000696  -0.090467  -0.132915  0.000279  3.96895  0.001
C  C91  1  0.92747759  0.27311464  0.61382658  1  0.0022  0.000691  -0.090103  -0.130994  0.000279  3.971192  0.001
C  C92  1  0.31377459  0.38603185  0.65926343  1  0.008159  0.000693  -0.09028  -0.132739  0.000278  3.97102  0.001
C  C93  1  0.32561804  0.62649416  0.32423610  1  -0.028538  -0.000735  -0.003209  0.078064  -0.00084  3.994777  0.0
C  C94  1  0.00141283  0.67579451  0.30231150  1  -0.027396  -0.000727  -0.004608  0.076053  -0.000831  3.994307  0.0
C  C95  1  0.69898388  0.69782933  0.37353567  1  -0.019139  -0.000718  -0.003318  0.078844  -0.000821  3.993875  0.0
C  C96  1  0.67438197  0.37350574  0.67576297  1  -0.02859  -0.000735  -0.003277  0.078004  -0.000839  3.994673  0.0
C  C97  1  0.99861022  0.32420351  0.69768352  1  -0.026959  -0.000728  -0.004553  0.076232  -0.000832  3.994073  0.0
C  C98  1  0.30099640  0.30217057  0.62645846  1  -0.01925  -0.000716  -0.003315  0.078875  -0.000818  3.993561  0.0
C  C99  1  0.31584409  0.54419890  0.30025758  1  -0.035618  0.000729  -0.095763  -0.140092  0.000338  4.002913  0.001
C  C100  1  0.01556439  0.69975669  0.24397362  1  0.011896  0.000722  -0.094937  -0.138836  0.000338  4.000472  0.001
C  C101  1  0.77151790  0.75614273  0.45584660  1  -0.062872  0.000728  -0.095102  -0.139013  0.000337  3.998905  0.001
C  C102  1  0.68416884  0.45580287  0.69974322  1  -0.035408  0.000728  -0.095826  -0.140229  0.000338  4.0031  0.001
C  C103  1  0.98445641  0.30022696  0.75601466  1  0.012332  0.000722  -0.094998  -0.138977  0.000338  4.000326  0.001
C  C104  1  0.22845555  0.24384779  0.54415654  1  -0.062712  0.000727  -0.095156  -0.139055  0.000336  3.999297  0.001
C  C105  1  0.32986807  0.49760570  0.22960970  1  -0.030051  0.00016  -0.093349  -0.09595  -0.00023  4.018873  0.0
C  C106  1  0.10026289  0.77039600  0.26801083  1  -0.148978  0.00023  -0.092783  -0.096335  -0.000225  4.01626  0.0
C  C107  1  0.83220986  0.73206310  0.50238004  1  -0.066839  0.000203  -0.093254  -0.09615  -0.000216  4.015606  0.0
C  C108  1  0.67015190  0.50240169  0.77039318  1  -0.029692  0.000161  -0.093308  -0.095885  -0.000229  4.018925  0.0
C  C109  1  0.89974232  0.22959452  0.73197086  1  -0.14976  0.000229  -0.092707  -0.096174  -0.000225  4.01662  0.0
C  C110  1  0.16775148  0.26791305  0.49761599  1  -0.068115  0.000206  -0.093179  -0.096199  -0.000214  4.015703  0.0
C  C111  1  0.32208243  0.67819689  0.40448818  1  0.031005  0.001543  -0.00455  0.065449  0.000638  4.003265  0.001
C  C112  1  0.91763947  0.59549872  0.27372862  1  -0.004585  0.001551  -0.00417  0.066086  0.000637  4.001048  0.001
C  C113  1  0.64377258  0.72636323  0.32178481  1  -0.005301  0.001552  -0.004855  0.063624  0.000636  4.00572  0.001
C  C114  1  0.67791031  0.32180113  0.59550713  1  0.031062  0.001542  -0.004415  0.065622  0.000637  4.003112  0.001
C  C115  1  0.08238692  0.40450180  0.72628219  1  -0.004473  0.00155  -0.004034  0.06619  0.000637  4.00116  0.001
C  C116  1  0.35622177  0.27364792  0.67822341  1  -0.00554  0.001551  -0.004855  0.063712  0.000635  4.005213  0.001
C  C117  1  0.39207562  0.76218935  0.45595057  1  -0.138741  -0.00293  -0.069951  -0.116526  -0.003491  3.883566  -0.002
C  C118  1  0.93613902  0.54404932  0.30628656  1  -0.051438  -0.002956  -0.070316  -0.117651  -0.003496  3.881753  -0.002
C  C119  1  0.62977925  0.69382478  0.23779270  1  -0.058154  -0.002945  -0.070275  -0.117092  -0.003485  3.884641  -0.002
C  C120  1  0.60791273  0.23781117  0.54404017  1  -0.138548  -0.002925  -0.070046  -0.116788  -0.003485  3.883653  -0.002
C  C121  1  0.06388105  0.45593996  0.69371221  1  -0.052054  -0.002956  -0.070544  -0.11789  -0.003496  3.88199  -0.002
C  C122  1  0.37021268  0.30618574  0.76221113  1  -0.05783  -0.002946  -0.070417  -0.117323  -0.003485  3.884854  -0.002
C  C123  1  0.39727823  0.80888215  0.53610178  1  0.049014  0.003139  -0.017329  -0.026112  0.001482  4.014927  0.002
C  C124  1  0.86116581  0.46389578  0.27283744  1  -0.001773  0.003155  -0.017402  -0.026581  0.001483  4.012609  0.002
C  C125  1  0.58829996  0.72726269  0.19106066  1  -0.027931  0.003187  -0.01724  -0.026229  0.001489  4.010664  0.002
C  C126  1  0.60271153  0.19112399  0.46389045  1  0.048847  0.003141  -0.017301  -0.025925  0.001482  4.014902  0.002
C  C127  1  0.13884714  0.53609474  0.72715519  1  -0.00128  0.003153  -0.017426  -0.026743  0.001483  4.012706  0.002
C  C128  1  0.41170176  0.27274908  0.80894456  1  -0.028487  0.003188  -0.016969  -0.025881  0.00149  4.010081  0.002
C  C129  1  0.32903045  0.77362232  0.56384422  1  -0.004698  -0.001651  -0.077678  -0.111342  -0.002292  3.939975  -0.001
C  C130  1  0.76522501  0.43608258  0.20973762  1  0.003711  -0.001638  -0.077654  -0.111122  -0.002283  3.937055  -0.001
C  C131  1  0.55541556  0.79033350  0.22632665  1  0.035808  -0.001665  -0.077398  -0.110291  -0.002283  3.935949  -0.001
C  C132  1  0.67096534  0.22637758  0.43614984  1  -0.004887  -0.001647  -0.077691  -0.111427  -0.002287  3.940053  -0.001
C  C133  1  0.23478167  0.56391232  0.79025762  1  0.00293  -0.001637  -0.077603  -0.111001  -0.002282  3.937373  -0.001
C  C134  1  0.44458122  0.20967265  0.77368266  1  0.035898  -0.001665  -0.077609  -0.110435  -0.002283  3.935949  -0.001
C  C135  1  0.25508011  0.69164966  0.51143335  1  -0.015566  0.010885  -0.018949  -0.033125  0.005598  3.996918  0.009
C  C136  1  0.74373391  0.48847850  0.18014084  1  -0.072094  0.010871  -0.019127  -0.033423  0.005598  3.996767  0.009
C  C137  1  0.56343438  0.81988016  0.30828412  1  -0.039885  0.010876  -0.019656  -0.035064  0.005594  4.00042  0.009
C  C138  1  0.74492171  0.30834399  0.48856722  1  -0.01546  0.010881  -0.018924  -0.032985  0.005596  3.997113  0.009
C  C139  1  0.25628120  0.51152764  0.81986424  1  -0.071529  0.01087  -0.019151  -0.033633  0.005599  3.996786  0.009
C  C140  1  0.43656279  0.18012536  0.69172606  1  -0.039772  0.010877  -0.019711  -0.035452  0.005594  4.000702  0.009
C  C141  1  0.25358413  0.64375804  0.43299867  1  -0.053766  -0.003252  -0.074093  -0.129226  -0.003885  3.913065  -0.002
C  C142  1  0.82064918  0.56692448  0.21070623  1  -0.016174  -0.003302  -0.07414  -0.129806  -0.003889  3.915873  -0.002
C  C143  1  0.60976615  0.78933776  0.35618817  1  -0.000189  -0.003264  -0.073538  -0.127716  -0.003864  3.916549  -0.002
C  C144  1  0.74641143  0.35623436  0.56699651  1  -0.053918  -0.003247  -0.074214  -0.129445  -0.00388  3.913318  -0.002
C  C145  1  0.17937634  0.43307854  0.78930750  1  -0.015687  -0.003303  -0.074049  -0.12952  -0.003889  3.915353  -0.002
C  C146  1  0.39023203  0.21067401  0.64382629  1  0.000477  -0.003264  -0.073476  -0.127523  -0.003864  3.916182  -0.002
C  C147  1  0.38126532  0.48462947  0.11117450  1  1.524158  -0.001194  0.217924  0.603596  -0.002498  4.150924  -0.001
C  C148  1  0.27014505  0.88880885  0.37346297  1  1.549203  -0.001234  0.218497  0.603854  -0.00253  4.153209  -0.001
C  C149  1  0.89662997  0.62656636  0.51526111  1  1.569774  -0.001318  0.219048  0.604796  -0.002509  4.152336  -0.001
C  C150  1  0.61874673  0.51538604  0.88883426  1  1.52462  -0.001196  0.218126  0.603711  -0.002498  4.151269  -0.001
C  C151  1  0.72983289  0.11119480  0.62651651  1  1.548674  -0.001232  0.218753  0.604131  -0.002531  4.152706  -0.001
C  C152  1  0.10335019  0.37340792  0.48472219  1  1.567943  -0.001301  0.219086  0.604967  -0.002501  4.152038  -0.001
C  C153  1  0.47767681  0.89445462  0.59447128  1  1.512487  -0.002293  0.206435  0.571003  -0.004729  4.158924  -0.002
C  C154  1  0.88306050  0.40550365  0.30004307  1  1.489873  -0.002324  0.206449  0.571362  -0.004731  4.160662  -0.002
C  C155  1  0.58301857  0.69999219  0.10546933  1  1.487938  -0.002233  0.206751  0.570861  -0.004715  4.161774  -0.002
C  C156  1  0.52231342  0.10555528  0.40551993  1  1.512173  -0.002283  0.206274  0.57099  -0.004721  4.159389  -0.002
C  C157  1  0.11693210  0.59448000  0.69994383  1  1.490037  -0.002329  0.206525  0.571545  -0.004733  4.160229  -0.002
C  C158  1  0.41698830  0.30002708  0.89454096  1  1.48964  -0.002223  0.206911  0.571058  -0.004714  4.161247  -0.002
C  C159  1  0.17637110  0.65695238  0.53880089  1  1.576458  -0.007164  0.218248  0.599764  -0.009282  4.170716  -0.006
C  C160  1  0.63761282  0.46109606  0.11809292  1  1.543892  -0.007024  0.218952  0.601447  -0.009234  4.169518  -0.006
C  C161  1  0.51940147  0.88190401  0.34300610  1  1.553704  -0.007095  0.218573  0.59959  -0.009222  4.17063  -0.006
C  C162  1  0.82362961  0.34304190  0.46120338  1  1.576634  -0.007153  0.218171  0.599702  -0.009269  4.170643  -0.006
C  C163  1  0.36240691  0.53892071  0.88191734  1  1.543301  -0.007025  0.218744  0.601042  -0.009239  4.16944  -0.006
C  C164  1  0.48059368  0.11810026  0.65699533  1  1.553481  -0.007106  0.218682  0.599896  -0.009234  4.170691  -0.006
O  O165  1  0.42997264  0.52386542  0.08354793  1  -1.149466  0.065756  -0.29379  -0.547003  0.034096  2.366393  0.058
O  O166  1  0.34651365  0.91635399  0.44028893  1  -1.153529  0.065843  -0.293777  -0.547025  0.034158  2.368874  0.058
O  O167  1  0.90608563  0.55970209  0.47598901  1  -1.156952  0.065842  -0.294136  -0.547424  0.034079  2.368247  0.058
O  O168  1  0.57004098  0.47614759  0.91645909  1  -1.149318  0.065759  -0.293917  -0.547105  0.034097  2.366693  0.058
O  O169  1  0.65346791  0.08365402  0.55968674  1  -1.153429  0.065871  -0.293763  -0.547106  0.034166  2.369103  0.058
O  O170  1  0.09391082  0.44028218  0.52399211  1  -1.156143  0.065834  -0.294283  -0.547551  0.034075  2.368059  0.058
O  O171  1  0.43283987  0.26964506  0.10482689  1  -1.184075  0.046491  -0.541563  -0.718765  0.024221  2.074265  0.033
O  O172  1  0.32813119  0.89522663  0.16489794  1  -1.174959  0.046514  -0.54114  -0.714892  0.024271  2.075663  0.034
O  O173  1  0.16311616  0.83505888  0.73029940  1  -1.20505  0.046547  -0.5423  -0.718629  0.024256  2.073218  0.033
O  O174  1  0.56719478  0.73038045  0.89520081  1  -1.184322  0.046478  -0.541427  -0.718168  0.024215  2.074388  0.033
O  O175  1  0.67187111  0.10477077  0.83509012  1  -1.174616  0.046501  -0.54109  -0.714672  0.024267  2.075685  0.034
O  O176  1  0.83688681  0.16492165  0.26971863  1  -1.203452  0.046543  -0.542106  -0.718702  0.024257  2.073252  0.033
O  O177  1  0.35388608  0.40565997  0.08628103  1  -1.163407  0.080911  -0.340102  -0.622305  0.041162  2.404058  0.066
O  O178  1  0.26762850  0.91374706  0.31942209  1  -1.16734  0.080895  -0.340585  -0.622058  0.041228  2.40494  0.066
O  O179  1  0.94822214  0.68062469  0.59423605  1  -1.184159  0.081023  -0.340792  -0.622803  0.041261  2.404564  0.066
O  O180  1  0.64613175  0.59435868  0.91373640  1  -1.163989  0.080915  -0.340168  -0.622368  0.041161  2.404024  0.066
O  O181  1  0.73233773  0.08624159  0.68054436  1  -1.167362  0.080902  -0.340778  -0.622144  0.041226  2.404809  0.066
O  O182  1  0.05176467  0.31935021  0.40574515  1  -1.183735  0.08101  -0.340738  -0.622934  0.041258  2.404402  0.066
O  O183  1  0.24801621  0.24421818  0.97572757  1  -1.187455  0.039413  -0.56285  -0.738739  0.019672  1.995456  0.031
O  O184  1  0.27221069  0.02432174  0.26853704  1  -1.173819  0.039509  -0.563032  -0.738786  0.019705  1.995603  0.032
O  O185  1  0.00364914  0.73139357  0.75571478  1  -1.185006  0.039557  -0.563284  -0.739159  0.019663  1.995196  0.031
O  O186  1  0.75200212  0.75579172  0.02432934  1  -1.185766  0.039425  -0.562623  -0.738271  0.019676  1.995845  0.032
O  O187  1  0.72779897  0.97568190  0.73145288  1  -1.174504  0.039514  -0.562947  -0.738698  0.019705  1.995395  0.032
O  O188  1  0.99632356  0.26858696  0.24427374  1  -1.185824  0.039553  -0.563079  -0.738878  0.019661  1.995414  0.031
O  O189  1  0.12212151  0.57928489  0.49774066  1  -1.161819  0.064156  -0.300434  -0.554421  0.033299  2.38554  0.057
O  O190  1  0.62435668  0.50217271  0.08151933  1  -1.147289  0.06418  -0.30084  -0.555671  0.033258  2.385111  0.057
O  O191  1  0.54285440  0.91847449  0.42067948  1  -1.143142  0.064195  -0.299839  -0.553791  0.033272  2.384863  0.057
O  O192  1  0.87787130  0.42071188  0.50225417  1  -1.162111  0.064138  -0.300346  -0.554287  0.033291  2.385289  0.057
O  O193  1  0.37565287  0.49783781  0.91848746  1  -1.147297  0.064177  -0.300703  -0.55546  0.033258  2.384845  0.057
O  O194  1  0.45713972  0.08153478  0.57932324  1  -1.142837  0.064188  -0.29992  -0.553882  0.033275  2.385069  0.057
O  O195  1  0.16950411  0.71124131  0.60203600  1  -1.168816  0.077095  -0.330811  -0.600317  0.039476  2.401153  0.066
O  O196  1  0.56752244  0.39785830  0.10915770  1  -1.169801  0.077136  -0.330757  -0.600275  0.039445  2.402248  0.066
O  O197  1  0.45817045  0.89082841  0.28873843  1  -1.169328  0.077107  -0.331356  -0.599867  0.039454  2.400432  0.066
O  O198  1  0.83049849  0.28875109  0.39796842  1  -1.169  0.077111  -0.330807  -0.600391  0.039479  2.401098  0.066
O  O199  1  0.43249822  0.60216034  0.89085349  1  -1.169059  0.077116  -0.330665  -0.599963  0.039436  2.401728  0.066
O  O200  1  0.54182032  0.10916711  0.71125811  1  -1.169036  0.077112  -0.331342  -0.599933  0.039461  2.400474  0.066
O  O201  1  0.52505552  0.93954303  0.56926706  1  -1.162649  0.108484  -0.308495  -0.601289  0.056715  2.482954  0.095
O  O202  1  0.95570247  0.43067325  0.37030597  1  -1.153171  0.108704  -0.308863  -0.601724  0.056705  2.484806  0.095
O  O203  1  0.58535392  0.62970554  0.06042768  1  -1.159322  0.108559  -0.308535  -0.601432  0.056632  2.486562  0.095
O  O204  1  0.47492429  0.06046998  0.43071864  1  -1.161966  0.108438  -0.308374  -0.601313  0.0567  2.483127  0.095
O  O205  1  0.04429545  0.56930977  0.62967912  1  -1.153515  0.108714  -0.308799  -0.601584  0.056708  2.484549  0.095
O  O206  1  0.41466805  0.37031997  0.93959072  1  -1.158865  0.108551  -0.308571  -0.601572  0.056625  2.48626  0.095
O  O207  1  0.50594720  0.92433123  0.67332913  1  -1.141846  0.088207  -0.316936  -0.541087  0.045167  2.186616  0.073
O  O208  1  0.83235366  0.32665590  0.25108135  1  -1.128361  0.088173  -0.316661  -0.541061  0.04513  2.186032  0.073
O  O209  1  0.58128384  0.74891434  0.07553592  1  -1.131986  0.088302  -0.317071  -0.541266  0.045122  2.18631  0.073
O  O210  1  0.49406691  0.07567992  0.32666625  1  -1.141356  0.088189  -0.316954  -0.541231  0.045163  2.186748  0.073
O  O211  1  0.16762084  0.67332962  0.74890849  1  -1.127891  0.088183  -0.316685  -0.541147  0.045136  2.185986  0.073
O  O212  1  0.41870425  0.25109556  0.92446900  1  -1.134012  0.088294  -0.317215  -0.541375  0.045122  2.186041  0.073
