# generated using pymatgen
data_NiH18C10(NO4)2
_symmetry_space_group_name_H-M   'P 1'
_cell_length_a   7.84116281
_cell_length_b   8.54788314
_cell_length_c   11.80603713
_cell_angle_alpha   90.00025629
_cell_angle_beta   89.99996525
_cell_angle_gamma   114.49875157
_symmetry_Int_Tables_number   1
_chemical_formula_structural   NiH18C10(NO4)2
_chemical_formula_sum   'Ni2 H36 C20 N4 O16'
_cell_volume   720.06286310
_cell_formula_units_Z   2
loop_
 _symmetry_equiv_pos_site_id
 _symmetry_equiv_pos_as_xyz
  1  'x, y, z'
loop_
 _atom_site_type_symbol
 _atom_site_label
 _atom_site_symmetry_multiplicity
 _atom_site_fract_x
 _atom_site_fract_y
 _atom_site_fract_z
 _atom_site_occupancy
 _atom_site_pbe_cm5_charge
 _atom_site_pbe_ddec_charge
 _atom_site_pbe_ddec_spin_density
 _atom_site_pbe_ddec_sum_bond_order
 _atom_site_pbe_magmom
Ni  Ni0  1  0.00000582  0.99999808  0.99999765  1  0.58779  0.892588  0.053335  2.312846  0.034
Ni  Ni1  1  0.50000494  0.00000298  0.50000001  1  0.587809  0.892706  -0.053323  2.312833  -0.034
H  H2  1  0.01594392  0.82812664  0.24550965  1  0.120758  0.045458  0.000299  1.034933  0.0
H  H3  1  0.51593612  0.82812631  0.25448799  1  0.120791  0.045521  -0.000298  1.034893  0.0
H  H4  1  0.98405198  0.17187213  0.75448524  1  0.120778  0.045535  0.000299  1.034816  0.0
H  H5  1  0.48405627  0.17187618  0.74552214  1  0.120783  0.045557  -0.000298  1.034903  0.0
H  H6  1  0.76979052  0.31543449  0.18684797  1  0.103286  0.118872  -0.000515  1.029845  0.0
H  H7  1  0.26980602  0.31543803  0.31315465  1  0.103318  0.118923  0.000515  1.029766  0.0
H  H8  1  0.23020043  0.68456162  0.81315200  1  0.1033  0.118894  -0.000515  1.029779  0.0
H  H9  1  0.73019098  0.68456332  0.68684786  1  0.103323  0.118945  0.000515  1.029773  0.0
H  H10  1  0.00953000  0.37463486  0.15278939  1  0.107279  0.133989  4e-06  0.998764  0.0
H  H11  1  0.50954411  0.37464719  0.34721015  1  0.107322  0.134005  -5e-06  0.998732  0.0
H  H12  1  0.99046169  0.62535999  0.84720888  1  0.107323  0.134015  5e-06  0.998742  0.0
H  H13  1  0.49045105  0.62535284  0.65279320  1  0.107298  0.13398  -5e-06  0.9987  0.0
H  H14  1  0.87356264  0.45311900  0.06800220  1  0.109086  0.125551  7.3e-05  1.019952  0.0
H  H15  1  0.37357417  0.45312835  0.43199828  1  0.109064  0.125589  -7.3e-05  1.019853  0.0
H  H16  1  0.12642850  0.54687456  0.93199692  1  0.109077  0.125575  7.3e-05  1.019869  0.0
H  H17  1  0.62641807  0.54686779  0.56800761  1  0.109067  0.125608  -7.3e-05  1.019877  0.0
H  H18  1  0.07643500  0.50285780  0.36220024  1  0.103766  0.121124  -9e-06  0.997754  0.0
H  H19  1  0.57643173  0.50285296  0.13779545  1  0.103762  0.121094  9e-06  0.997824  0.0
H  H20  1  0.92355739  0.49714470  0.63779972  1  0.10378  0.121102  -9e-06  0.997753  0.0
H  H21  1  0.42356468  0.49715599  0.86220960  1  0.103787  0.121152  9e-06  0.997773  0.0
H  H22  1  0.83446367  0.45371122  0.38248622  1  0.104153  0.128438  -4.1e-05  1.009146  0.0
H  H23  1  0.33445995  0.45370527  0.11751428  1  0.104133  0.128414  4.1e-05  1.009148  0.0
H  H24  1  0.16552743  0.54629124  0.61751289  1  0.10416  0.128421  -4.1e-05  1.009179  0.0
H  H25  1  0.66553483  0.54629983  0.88249077  1  0.104146  0.128462  4.1e-05  1.009106  0.0
H  H26  1  0.00757756  0.67275904  0.39005747  1  0.105439  0.118228  -3.1e-05  1.028134  0.0
H  H27  1  0.50757423  0.67275401  0.10993712  1  0.105488  0.118258  3.1e-05  1.028065  0.0
H  H28  1  0.99241483  0.32724346  0.60993656  1  0.105491  0.118243  -3.1e-05  1.028036  0.0
H  H29  1  0.49242090  0.32725491  0.89007217  1  0.105488  0.118241  3.1e-05  1.028139  0.0
H  H30  1  0.95502046  0.89671666  0.79616426  1  0.292501  0.373759  0.000566  0.976485  0.0
H  H31  1  0.45501417  0.89671379  0.70382941  1  0.292545  0.373759  -0.000567  0.976485  0.0
H  H32  1  0.04498815  0.10328499  0.20382893  1  0.292547  0.373814  0.000566  0.976379  0.0
H  H33  1  0.54498819  0.10328516  0.29617055  1  0.292544  0.373773  -0.000566  0.976467  0.0
H  H34  1  0.75887684  0.89000650  0.84106166  1  0.289143  0.365735  0.000465  0.988429  0.0
H  H35  1  0.25887427  0.89001231  0.65893377  1  0.28913  0.365691  -0.000466  0.988475  0.0
H  H36  1  0.24113181  0.10998626  0.15893576  1  0.289134  0.365709  0.000465  0.988442  0.0
H  H37  1  0.74113137  0.10999435  0.34106535  1  0.289111  0.3657  -0.000465  0.98845  0.0
C  C38  1  0.62138921  0.99555230  0.03403408  1  0.096449  0.152163  -0.003682  4.154478  -0.001
C  C39  1  0.12138131  0.99555501  0.46596406  1  0.096415  0.152046  0.003683  4.154309  0.001
C  C40  1  0.37862460  0.00444060  0.96596927  1  0.096299  0.151804  -0.003683  4.154432  -0.001
C  C41  1  0.87862457  0.00444022  0.53402490  1  0.096428  0.151944  0.003683  4.154364  0.001
C  C42  1  0.53521877  0.97000180  0.92043310  1  0.100187  0.151598  -0.00866  4.136016  -0.008
C  C43  1  0.03521566  0.97000323  0.57956100  1  0.100107  0.151723  0.008657  4.136102  0.008
C  C44  1  0.46479966  0.02998995  0.07956856  1  0.099974  0.151493  -0.008659  4.136205  -0.008
C  C45  1  0.96479260  0.02999460  0.42042711  1  0.10003  0.151568  0.008657  4.136064  0.008
C  C46  1  0.97832223  0.72477926  0.18189096  1  0.170099  0.292669  0.000386  4.101993  0.0
C  C47  1  0.47832301  0.72478118  0.31809596  1  0.170058  0.292675  -0.000387  4.101261  0.0
C  C48  1  0.02167571  0.27521830  0.81810138  1  0.170019  0.292579  0.000387  4.101654  0.0
C  C49  1  0.52167196  0.27522139  0.68191247  1  0.169947  0.292407  -0.000387  4.10159  0.0
C  C50  1  0.89718840  0.41974161  0.15423005  1  -0.13975  -0.280658  -0.000324  3.874737  0.0
C  C51  1  0.39719862  0.41974778  0.34576946  1  -0.139779  -0.280766  0.000324  3.874543  0.0
C  C52  1  0.10280384  0.58025453  0.84576822  1  -0.139769  -0.28068  -0.000324  3.874529  0.0
C  C53  1  0.60279784  0.58025228  0.65423559  1  -0.139752  -0.280693  0.000324  3.874548  0.0
C  C54  1  0.96652966  0.54882036  0.34715019  1  -0.13344  -0.273501  0.000124  3.881448  0.0
C  C55  1  0.46652657  0.54881595  0.15284802  1  -0.133378  -0.273437  -0.000125  3.881445  0.0
C  C56  1  0.03346402  0.45118217  0.65284808  1  -0.133481  -0.273412  0.000124  3.881508  0.0
C  C57  1  0.53347188  0.45119179  0.84715872  1  -0.133443  -0.273473  -0.000124  3.88164  0.0
N  N58  1  0.94685198  0.57061964  0.22618331  1  -0.285041  0.02544  0.000376  3.717432  0.0
N  N59  1  0.44685504  0.57062385  0.27381583  1  -0.285011  0.025552  -0.000376  3.717454  0.0
N  N60  1  0.05314025  0.42937650  0.77381496  1  -0.28504  0.025401  0.000376  3.717565  0.0
N  N61  1  0.55313864  0.42937868  0.72619176  1  -0.28499  0.02547  -0.000376  3.717603  0.0
O  O62  1  0.76411209  0.98857188  0.07845453  1  -0.28598  -0.403021  -0.047116  2.456972  -0.051
O  O63  1  0.26411476  0.98857838  0.42153844  1  -0.285943  -0.40301  0.047128  2.456751  0.051
O  O64  1  0.23590391  0.01142615  0.92154459  1  -0.285925  -0.402865  -0.047117  2.456824  -0.051
O  O65  1  0.73589882  0.01142594  0.57845306  1  -0.286033  -0.403093  0.047121  2.456785  0.051
O  O66  1  0.57890165  0.93291691  0.82439572  1  -0.282962  -0.413513  -0.002456  2.367093  -0.002
O  O67  1  0.07890026  0.93291651  0.67559739  1  -0.283051  -0.4137  0.002453  2.367117  0.002
O  O68  1  0.42110736  0.06707967  0.17560763  1  -0.282943  -0.413589  -0.002456  2.367042  -0.002
O  O69  1  0.92110668  0.06709018  0.32439156  1  -0.282916  -0.413554  0.002453  2.367044  0.002
O  O70  1  0.96661284  0.75167463  0.07844902  1  -0.295979  -0.468607  0.010523  2.364842  0.011
O  O71  1  0.46660518  0.75168086  0.42155749  1  -0.296062  -0.468819  -0.01053  2.364046  -0.011
O  O72  1  0.03339194  0.24831803  0.92155095  1  -0.295959  -0.468634  0.010524  2.364484  0.011
O  O73  1  0.53338869  0.24831914  0.57845264  1  -0.295944  -0.468591  -0.01053  2.364196  -0.011
O  O74  1  0.86900907  0.86445920  0.86304611  1  -0.572755  -0.759864  0.036239  2.270875  0.037
O  O75  1  0.36900610  0.86446104  0.63694749  1  -0.572803  -0.75981  -0.036241  2.270826  -0.037
O  O76  1  0.13100455  0.13553623  0.13694708  1  -0.572792  -0.759836  0.03624  2.270764  0.037
O  O77  1  0.63099716  0.13554301  0.36305162  1  -0.572793  -0.759834  -0.036241  2.270836  -0.037
