# generated using pymatgen
data_Zn4H39C36N3O13
_symmetry_space_group_name_H-M   'P 1'
_cell_length_a   19.29180299
_cell_length_b   19.50176868
_cell_length_c   19.56243086
_cell_angle_alpha   90.35492139
_cell_angle_beta   119.41497280
_cell_angle_gamma   119.35270867
_symmetry_Int_Tables_number   1
_chemical_formula_structural   Zn4H39C36N3O13
_chemical_formula_sum   'Zn8 H78 C72 N6 O26'
_cell_volume   5284.19670763
_cell_formula_units_Z   2
loop_
 _symmetry_equiv_pos_site_id
 _symmetry_equiv_pos_as_xyz
  1  'x, y, z'
loop_
 _atom_site_type_symbol
 _atom_site_label
 _atom_site_symmetry_multiplicity
 _atom_site_fract_x
 _atom_site_fract_y
 _atom_site_fract_z
 _atom_site_occupancy
 _atom_site_pbe_bader_charge
 _atom_site_pbe_bader_spin_density
 _atom_site_pbe_cm5_charge
 _atom_site_pbe_ddec_charge
 _atom_site_pbe_ddec_spin_density
 _atom_site_pbe_ddec_sum_bond_order
 _atom_site_pbe_magmom
Zn  Zn0  1  0.91325953  0.04631215  0.95311867  1  1.308301  0  0.660708  0.955663  0  2.34796  0
Zn  Zn1  1  0.07547659  0.04141229  0.11466042  1  1.300805  0  0.671  0.957897  0  2.397089  0
Zn  Zn2  1  0.08115628  0.04662142  0.95483514  1  1.319746  0  0.670985  0.959702  0  2.391005  0
Zn  Zn3  1  0.91609879  0.88260353  0.95190116  1  1.306069  0  0.671337  0.96  0  2.391339  0
Zn  Zn4  1  0.08170968  0.46330700  0.53676980  1  1.305097  0  0.668503  0.947459  0  2.440768  0
Zn  Zn5  1  0.92450339  0.46565105  0.37251560  1  1.31105  0  0.669002  0.962241  0  2.36181  0
Zn  Zn6  1  0.08005023  0.62545026  0.53867868  1  1.302909  0  0.669628  0.961909  0  2.362226  0
Zn  Zn7  1  0.91086174  0.45672866  0.53079883  1  1.312776  0  0.669648  0.963894  0  2.356638  0
H  H8  1  0.91756263  0.17422243  0.14486260  1  0.065539  0  0.101435  0.120041  0  0.972589  0
H  H9  1  0.95456684  0.12088147  0.21236459  1  0.083739  0  0.11368  0.134407  0  0.961685  0
H  H10  1  0.13093284  0.24739301  0.24531503  1  0.084751  0  0.108225  0.087835  0  1.009229  0
H  H11  1  0.07496880  0.30004716  0.22911923  1  0.036369  0  0.105289  0.078804  0  0.988646  0
H  H12  1  0.07686501  0.29381769  0.41369673  1  0.05765  0  0.111047  0.093917  0  0.994818  0
H  H13  1  0.96712106  0.22319330  0.31650862  1  0.015957  0  0.089921  0.053342  0  0.974156  0
H  H14  1  0.11764176  0.39822774  0.33681463  1  0.076214  0  0.114128  0.13385  0  0.952613  0
H  H15  1  0.99257281  0.33583153  0.25474455  1  0.040665  0  0.103831  0.121083  0  0.976034  0
H  H16  1  0.19943205  0.20512038  0.31816379  1  0.066278  0  0.098191  0.105187  0  1.025074  0
H  H17  1  0.24880291  0.12074773  0.39235487  1  0.054012  0  0.097466  0.093673  0  0.995519  0
H  H18  1  0.20162732  0.06758544  0.48907772  1  0.036621  0  0.094347  0.092499  0  1.010764  0
H  H19  1  0.10150610  0.10162203  0.50756919  1  0.040486  0  0.097507  0.093264  0  0.993022  0
H  H20  1  0.05008997  0.18507372  0.43299063  1  0.048183  0  0.095662  0.096831  0  1.03829  0
H  H21  1  0.99312615  0.24478277  0.84080351  1  0.045688  0  0.101242  0.120178  0  0.973806  0
H  H22  1  0.10980244  0.26519437  0.88560317  1  0.077655  0  0.113133  0.134196  0  0.963258  0
H  H23  1  0.00845673  0.13072259  0.75128546  1  0.060875  0  0.107498  0.086103  0  1.007411  0
H  H24  1  0.93881260  0.17117784  0.70743172  1  0.041133  0  0.106167  0.080487  0  0.984185  0
H  H25  1  0.12459338  0.35411734  0.70849249  1  0.082147  0  0.110721  0.094261  0  1.001947  0
H  H26  1  0.09392649  0.36060505  0.77915147  1  0.009318  0  0.090067  0.054929  0  0.973138  0
H  H27  1  0.94375729  0.23309113  0.60474196  1  0.067174  0  0.114444  0.134182  0  0.952595  0
H  H28  1  0.92143658  0.27600877  0.66601738  1  0.050111  0  0.103458  0.120786  0  0.974906  0
H  H29  1  0.12573213  0.13842026  0.78875546  1  0.070813  0  0.098304  0.106081  0  1.02392  0
H  H30  1  0.28584874  0.16496157  0.86450310  1  0.03645  0  0.097916  0.093635  0  0.995496  0
H  H31  1  0.43275133  0.30806067  0.91411983  1  0.028268  0  0.094927  0.092958  0  1.009403  0
H  H32  1  0.41273516  0.42419048  0.88616776  1  0.060983  0  0.098052  0.094189  0  0.992602  0
H  H33  1  0.25321057  0.39928177  0.81144266  1  0.033714  0  0.095669  0.09711  0  1.037483  0
H  H34  1  0.60303317  0.85736324  0.75577181  1  0.056038  0  0.101233  0.120182  0  0.973922  0
H  H35  1  0.62983200  0.78838876  0.73323768  1  0.071187  0  0.113164  0.133983  0  0.963457  0
H  H36  1  0.62735530  0.75232419  0.86753948  1  0.066977  0  0.107542  0.086458  0  1.005451  0
H  H37  1  0.54020154  0.77506822  0.82660098  1  0.023085  0  0.106379  0.080975  0  0.986117  0
H  H38  1  0.36483674  0.59315305  0.64531817  1  0.080165  0  0.110355  0.092689  0  1.00156  0
H  H39  1  0.42637374  0.69306350  0.63725431  1  0.009133  0  0.090103  0.054522  0  0.972727  0
H  H40  1  0.37682627  0.66673814  0.76540678  1  0.062644  0  0.114384  0.134038  0  0.953923  0
H  H41  1  0.39466215  0.74966222  0.72289717  1  0.040886  0  0.103236  0.120422  0  0.977028  0
H  H42  1  0.66475416  0.67937379  0.85860945  1  0.090609  0  0.097941  0.10624  0  1.027727  0
H  H43  1  0.71979148  0.60015243  0.83205313  1  0.070593  0  0.09778  0.093835  0  0.995505  0
H  H44  1  0.62873360  0.50304281  0.68998176  1  0.044867  0  0.094221  0.092095  0  1.011195  0
H  H45  1  0.48086726  0.48997693  0.57487583  1  0.053423  0  0.098162  0.094006  0  0.993534  0
H  H46  1  0.42506273  0.56953947  0.59969897  1  0.04775  0  0.09543  0.097073  0  1.037911  0
H  H47  1  0.61050570  0.27039226  0.24077060  1  0.057371  0  0.10157  0.120679  0  0.972638  0
H  H48  1  0.63314439  0.24354500  0.33265414  1  0.072019  0  0.113371  0.134406  0  0.962968  0
H  H49  1  0.62219232  0.37441044  0.36606687  1  0.061856  0  0.108295  0.087457  0  1.003954  0
H  H50  1  0.53640510  0.33107480  0.25825823  1  0.044469  0  0.107462  0.082863  0  0.984754  0
H  H51  1  0.36671505  0.14504728  0.26900695  1  0.079903  0  0.110113  0.092254  0  0.997608  0
H  H52  1  0.43077706  0.14204847  0.22917287  1  0.012611  0  0.090282  0.055856  0  0.971513  0
H  H53  1  0.36958083  0.26267099  0.20769705  1  0.077507  0  0.115118  0.134953  0  0.95212  0
H  H54  1  0.39378058  0.22676601  0.14350449  1  0.068655  0  0.104163  0.12153  0  0.974326  0
H  H55  1  0.65651726  0.36661046  0.47564535  1  0.067221  0  0.099017  0.10612  0  1.023917  0
H  H56  1  0.71636990  0.34134617  0.60826100  1  0.033436  0  0.098933  0.09483  0  0.992764  0
H  H57  1  0.63696355  0.19720577  0.61563654  1  0.056178  0  0.094518  0.091642  0  1.010615  0
H  H58  1  0.49631471  0.07876809  0.48400603  1  0.045666  0  0.095175  0.090038  0  0.997848  0
H  H59  1  0.43635610  0.10258979  0.35028911  1  0.081569  0  0.095082  0.095813  0  1.03995  0
H  H60  1  0.09350854  0.75584274  0.35523765  1  0.057311  0  0.101512  0.120341  0  0.972299  0
H  H61  1  0.05309747  0.66383130  0.28761193  1  0.06857  0  0.113396  0.134452  0  0.963693  0
H  H62  1  0.87768297  0.62860483  0.24720238  1  0.074855  0  0.108473  0.087395  0  1.002881  0
H  H63  1  0.94112311  0.73658273  0.26717368  1  0.048106  0  0.107156  0.081987  0  0.985449  0
H  H64  1  0.94566080  0.72572629  0.08595318  1  0.079048  0  0.110038  0.091811  0  0.997063  0
H  H65  1  0.05296330  0.76613465  0.18637884  1  0.020118  0  0.090834  0.056086  0  0.970127  0
H  H66  1  0.89331091  0.78740123  0.15288783  1  0.051194  0  0.11478  0.134634  0  0.951401  0
H  H67  1  0.01702182  0.85158352  0.23789125  1  0.067929  0  0.104365  0.121929  0  0.9742  0
H  H68  1  0.81471941  0.51895399  0.17607226  1  0.055232  0  0.098724  0.105619  0  1.026565  0
H  H69  1  0.76832533  0.38637335  0.10375534  1  0.057752  0  0.098537  0.094194  0  0.9922  0
H  H70  1  0.82252157  0.37921189  0.01249966  1  0.031515  0  0.094163  0.092277  0  1.010071  0
H  H71  1  0.92774972  0.51117968  0.99855527  1  0.03137  0  0.095404  0.090078  0  0.997459  0
H  H72  1  0.97654235  0.64488976  0.07172991  1  0.042355  0  0.095144  0.096248  0  1.039754  0
H  H73  1  0.95904457  0.63904233  0.71457154  1  0.057922  0  0.102391  0.121539  0  0.971339  0
H  H74  1  0.08187742  0.70175468  0.74922281  1  0.063066  0  0.114237  0.135178  0  0.958499  0
H  H75  1  0.99874940  0.75327504  0.61686564  1  0.055692  0  0.108935  0.088573  0  1.005403  0
H  H76  1  0.93338206  0.73881314  0.65984107  1  0.051672  0  0.106439  0.079738  0  0.989206  0
H  H77  1  0.13342014  0.91323498  0.84548519  1  0.097267  0  0.109678  0.091658  0  0.994406  0
H  H78  1  0.10054867  0.81239551  0.85229835  1  0.008041  0  0.090117  0.053922  0  0.972478  0
H  H79  1  0.95289641  0.84691178  0.73339012  1  0.078398  0  0.115207  0.134584  0  0.951235  0
H  H80  1  0.92870774  0.76088435  0.77133870  1  0.034571  0  0.104338  0.121766  0  0.974888  0
H  H81  1  0.11623914  0.81821494  0.62275519  1  0.047071  0  0.098385  0.105681  0  1.027466  0
H  H82  1  0.27343856  0.88233510  0.64523355  1  0.054236  0  0.097972  0.094219  0  0.993364  0
H  H83  1  0.42570258  0.96923423  0.78745680  1  0.019486  0  0.09339  0.090533  0  1.011705  0
H  H84  1  0.41353379  0.98753014  0.90685390  1  0.050104  0  0.094739  0.089316  0  0.998582  0
H  H85  1  0.25663618  0.92226506  0.88599920  1  0.027056  0  0.094468  0.094873  0  1.042068  0
C  C86  1  0.98080076  0.12121918  0.12031678  1  1.565383  0  0.227621  0.668093  0  4.105602  0
C  C87  1  0.97545894  0.16481666  0.17994886  1  -0.084596  0  -0.160515  -0.320014  0  3.875546  0
C  C88  1  0.07408023  0.24624749  0.24607090  1  0.31996  0  -0.061842  -0.038377  0  3.916057  0
C  C89  1  0.04318864  0.27703089  0.34660837  1  0.338172  0  -0.063554  -0.03202  0  3.946156  0
C  C90  1  0.04475917  0.35166040  0.32112794  1  -0.026904  0  -0.157098  -0.317724  0  3.913822  0
C  C91  1  0.02718453  0.39431716  0.36995770  1  1.564014  0  0.231177  0.667898  0  4.107233  0
C  C92  1  0.12192861  0.20419775  0.37015037  1  0.298472  0  0.085186  0.17913  0  4.042194  0
C  C93  1  0.17729557  0.18323738  0.35948506  1  -0.048982  0  -0.108431  -0.186161  0  3.990407  0
C  C94  1  0.20522970  0.13481506  0.40168695  1  -0.013524  0  -0.099323  -0.06893  0  4.069255  0
C  C95  1  0.17900628  0.10501239  0.45572890  1  -0.053826  0  -0.116753  -0.132104  0  4.082849  0
C  C96  1  0.12343275  0.12436329  0.46610079  1  -0.035417  0  -0.101771  -0.070783  0  4.080045  0
C  C97  1  0.09446370  0.17253530  0.42371161  1  -0.047451  0  -0.11695  -0.211829  0  4.019396  0
C  C98  1  0.01042159  0.14890525  0.88104446  1  1.536707  0  0.22748  0.668535  0  4.104257  0
C  C99  1  0.03160105  0.21730075  0.84283423  1  -0.051013  0  -0.16209  -0.322638  0  3.882239  0
C  C100  1  0.01068650  0.18772678  0.75703303  1  0.334081  0  -0.060537  -0.036943  0  3.916763  0
C  C101  1  0.07354341  0.31799447  0.72478536  1  0.329557  0  -0.06383  -0.035704  0  3.944667  0
C  C102  1  0.97311169  0.28989445  0.65021693  1  -0.035647  0  -0.157081  -0.317169  0  3.905903  0
C  C103  1  0.97910514  0.35418494  0.60586588  1  1.560714  0  0.230846  0.667664  0  4.104225  0
C  C104  1  0.17470668  0.26601424  0.79115157  1  0.348233  0  0.085263  0.177566  0  4.044445  0
C  C105  1  0.18760171  0.20147234  0.80918431  1  -0.055981  0  -0.10827  -0.188943  0  3.991384  0
C  C106  1  0.27912298  0.21673031  0.85274103  1  -0.018095  0  -0.09888  -0.068763  0  4.072123  0
C  C107  1  0.36129451  0.29654494  0.88056969  1  -0.046118  0  -0.116209  -0.131118  0  4.081304  0
C  C108  1  0.34980735  0.36112243  0.86457128  1  -0.094071  0  -0.101994  -0.071288  0  4.07994  0
C  C109  1  0.25838431  0.34669151  0.82126874  1  -0.015929  0  -0.116017  -0.209899  0  4.018634  0
C  C110  1  0.73938317  0.88004843  0.85026598  1  1.558357  0  0.227723  0.666984  0  4.106651  0
C  C111  1  0.63322063  0.82148828  0.78191494  1  -0.050138  0  -0.16148  -0.320977  0  3.878351  0
C  C112  1  0.57619239  0.75533919  0.81053338  1  0.365457  0  -0.060034  -0.037255  0  3.915961  0
C  C113  1  0.41539532  0.65971832  0.68057109  1  0.324567  0  -0.062253  -0.031403  0  3.943169  0
C  C114  1  0.36634943  0.68335792  0.70892512  1  -0.021411  0  -0.157545  -0.318117  0  3.909134  0
C  C115  1  0.25799442  0.63291956  0.64451715  1  1.584724  0  0.230354  0.666978  0  4.106231  0
C  C116  1  0.53823731  0.62981557  0.73208722  1  0.3246  0  0.08594  0.180939  0  4.043552  0
C  C117  1  0.62295314  0.63785777  0.79603043  1  -0.069228  0  -0.10923  -0.19067  0  3.991401  0
C  C118  1  0.65461155  0.59281178  0.78075685  1  -0.047509  0  -0.099881  -0.06994  0  4.071716  0
C  C119  1  0.60405716  0.53866919  0.70149241  1  -0.04098  0  -0.117224  -0.131975  0  4.08219  0
C  C120  1  0.52137664  0.53128083  0.63751321  1  -0.07112  0  -0.101663  -0.069756  0  4.081691  0
C  C121  1  0.48905163  0.57641052  0.65191814  1  -0.054104  0  -0.116567  -0.213089  0  4.020422  0
C  C122  1  0.74246245  0.36393851  0.35483455  1  1.548793  0  0.22846  0.667348  0  4.101778  0
C  C123  1  0.63650412  0.29353509  0.30538206  1  -0.05574  0  -0.160776  -0.320476  0  3.874168  0
C  C124  1  0.57420621  0.31706577  0.31362737  1  0.326869  0  -0.061117  -0.039901  0  3.912251  0
C  C125  1  0.41641487  0.18273119  0.25184232  1  0.31983  0  -0.06302  -0.034108  0  3.946838  0
C  C126  1  0.36397004  0.20883959  0.18075648  1  -0.032759  0  -0.157128  -0.317769  0  3.910639  0
C  C127  1  0.25668808  0.14106882  0.12338904  1  1.565164  0  0.231612  0.668556  0  4.099813  0
C  C128  1  0.53942472  0.23712920  0.40133000  1  0.285963  0  0.085623  0.179522  0  4.04453  0
C  C129  1  0.61997477  0.30311923  0.47619652  1  -0.056711  0  -0.1066  -0.184433  0  3.987324  0
C  C130  1  0.65419381  0.28862088  0.55184831  1  -0.054515  0  -0.098728  -0.068353  0  4.066447  0
C  C131  1  0.61013138  0.20816257  0.55614075  1  -0.010131  0  -0.116035  -0.128432  0  4.080351  0
C  C132  1  0.53139382  0.14233045  0.48263717  1  -0.040989  0  -0.103613  -0.075082  0  4.090804  0
C  C133  1  0.49668347  0.15601530  0.40619921  1  -0.067049  0  -0.117534  -0.213319  0  4.026123  0
C  C134  1  0.01981919  0.64160541  0.37561900  1  1.551118  0  0.227913  0.666599  0  4.106551  0
C  C135  1  0.03300639  0.69079411  0.31847211  1  -0.027163  0  -0.161486  -0.320586  0  3.874694  0
C  C136  1  0.93873980  0.68144567  0.25000604  1  0.31131  0  -0.059272  -0.036369  0  3.911092  0
C  C137  1  0.97565456  0.74317631  0.15233717  1  0.312115  0  -0.062885  -0.031992  0  3.945843  0
C  C138  1  0.96793612  0.81435001  0.17197117  1  -0.014658  0  -0.156593  -0.31755  0  3.910766  0
C  C139  1  0.98555814  0.87203710  0.12185925  1  1.5475  0  0.231371  0.668344  0  4.101885  0
C  C140  1  0.89742632  0.59359243  0.12845698  1  0.329622  0  0.086604  0.181153  0  4.043074  0
C  C141  1  0.83965253  0.51856741  0.13695782  1  -0.061278  0  -0.108074  -0.186307  0  3.987662  0
C  C142  1  0.81336627  0.44288830  0.09576115  1  -0.010706  0  -0.098898  -0.067291  0  4.065975  0
C  C143  1  0.84372443  0.43872651  0.04494083  1  -0.041235  0  -0.116914  -0.131789  0  4.082481  0
C  C144  1  0.90199388  0.51241280  0.03698944  1  -0.035356  0  -0.103744  -0.074061  0  4.08877  0
C  C145  1  0.92936334  0.58886833  0.07842163  1  -0.051757  0  -0.117796  -0.213585  0  4.024034  0
C  C146  1  0.99009725  0.61993309  0.62776536  1  1.552691  0  0.229233  0.668474  0  4.103488  0
C  C147  1  0.00746336  0.67640782  0.69609420  1  -0.032827  0  -0.160509  -0.320943  0  3.870439  0
C  C148  1  0.00140540  0.75040692  0.67386696  1  0.320957  0  -0.06065  -0.036411  0  3.91192  0
C  C149  1  0.07959779  0.84672864  0.81018570  1  0.296866  0  -0.063061  -0.031433  0  3.946057  0
C  C150  1  0.98224022  0.82710508  0.78736629  1  -0.006359  0  -0.156644  -0.317043  0  3.912146  0
C  C151  1  0.99265858  0.87642417  0.85619719  1  1.554451  0  0.231062  0.668649  0  4.102925  0
C  C152  1  0.17209983  0.86587963  0.75205155  1  0.34132  0  0.085899  0.180635  0  4.039222  0
C  C153  1  0.18043322  0.85544598  0.68547384  1  -0.046462  0  -0.108242  -0.186459  0  3.983563  0
C  C154  1  0.27033738  0.89208451  0.69839400  1  -0.061269  0  -0.099165  -0.067208  0  4.066919  0
C  C155  1  0.35544899  0.94043166  0.77773518  1  0.006523  0  -0.117626  -0.13109  0  4.083782  0
C  C156  1  0.34836933  0.95070471  0.84411900  1  -0.035598  0  -0.105002  -0.075237  0  4.092186  0
C  C157  1  0.25852366  0.91375061  0.83208072  1  -0.063092  0  -0.117565  -0.213452  0  4.025142  0
N  N158  1  0.09785201  0.25658712  0.33017555  1  -1.110444  0  -0.312192  -0.145474  0  3.578541  0
N  N159  1  0.08122349  0.24891381  0.74327685  1  -1.114796  0  -0.311791  -0.142723  0  3.579786  0
N  N160  1  0.50415640  0.67247851  0.74920275  1  -1.130806  0  -0.311332  -0.142974  0  3.585167  0
N  N161  1  0.50327573  0.25315439  0.32555023  1  -1.106317  0  -0.310871  -0.141827  0  3.576349  0
N  N162  1  0.92014860  0.66934234  0.16766963  1  -1.115258  0  -0.310599  -0.144318  0  3.582255  0
N  N163  1  0.08094632  0.83111869  0.73808133  1  -1.101916  0  -0.310666  -0.142719  0  3.577648  0
O  O164  1  0.99612479  0.00424225  0.99328417  1  -1.215919  0  -0.574723  -1.035241  0  2.555987  0
O  O165  1  0.05489601  0.11859812  0.15265437  1  -1.185256  0  -0.320538  -0.566218  0  2.360053  0
O  O166  1  0.91181727  0.08989067  0.04354332  1  -1.176275  0  -0.323067  -0.55752  0  2.278147  0
O  O167  1  0.96975651  0.41590304  0.33028472  1  -1.165478  0  -0.318231  -0.554993  0  2.294184  0
O  O168  1  0.07355002  0.40635659  0.44780459  1  -1.182452  0  -0.318707  -0.552095  0  2.337871  0
O  O169  1  0.04339489  0.10626071  0.87960360  1  -1.185844  0  -0.3226  -0.568566  0  2.343244  0
O  O170  1  0.96289884  0.13915760  0.91221821  1  -1.152727  0  -0.323119  -0.557435  0  2.279263  0
O  O171  1  0.91694105  0.37147555  0.58301522  1  -1.162801  0  -0.317381  -0.553796  0  2.292346  0
O  O172  1  0.04615904  0.38466234  0.59393333  1  -1.180577  0  -0.318431  -0.552693  0  2.343466  0
O  O173  1  0.78080885  0.84586469  0.89161639  1  -1.18902  0  -0.322295  -0.56823  0  2.351922  0
O  O174  1  0.77969439  0.95787695  0.86130654  1  -1.175002  0  -0.322387  -0.55618  0  2.279966  0
O  O175  1  0.21692583  0.67132885  0.62503991  1  -1.170609  0  -0.315754  -0.551701  0  2.298387  0
O  O176  1  0.21684066  0.55490860  0.61599472  1  -1.196429  0  -0.319116  -0.553745  0  2.340106  0
O  O177  1  0.77977640  0.40255563  0.42921857  1  -1.194527  0  -0.320972  -0.569807  0  2.348406  0
O  O178  1  0.78670574  0.37883245  0.31942442  1  -1.154552  0  -0.322215  -0.554193  0  2.279357  0
O  O179  1  0.21832317  0.12483452  0.04549932  1  -1.182819  0  -0.317793  -0.551709  0  2.294635  0
O  O180  1  0.21344291  0.10703394  0.15834095  1  -1.190878  0  -0.318661  -0.555559  0  2.32353  0
O  O181  1  0.94655631  0.56617888  0.34050032  1  -1.199162  0  -0.320686  -0.569601  0  2.350848  0
O  O182  1  0.08244058  0.67821659  0.45375661  1  -1.169016  0  -0.321221  -0.553323  0  2.281384  0
O  O183  1  0.04272176  0.95002752  0.16076512  1  -1.168253  0  -0.316024  -0.549697  0  2.298265  0
O  O184  1  0.94007799  0.83722129  0.04431844  1  -1.179591  0  -0.318883  -0.556143  0  2.321196  0
O  O185  1  0.02834330  0.65550593  0.58964835  1  -1.191297  0  -0.320028  -0.568693  0  2.358733  0
O  O186  1  0.94023393  0.54164247  0.61434938  1  -1.169937  0  -0.322181  -0.55519  0  2.280015  0
O  O187  1  0.93182071  0.83711601  0.87445389  1  -1.164135  0  -0.317118  -0.551411  0  2.297846  0
O  O188  1  0.06046348  0.95375297  0.88877945  1  -1.182947  0  -0.318905  -0.556125  0  2.321895  0
O  O189  1  0.99839548  0.50324315  0.49437513  1  -1.214654  0  -0.574171  -1.035086  0  2.550244  0
