# generated using pymatgen
data_ZnH12C18(NO3)2
_symmetry_space_group_name_H-M   'P 1'
_cell_length_a   17.60138182
_cell_length_b   17.60137304
_cell_length_c   22.89186484
_cell_angle_alpha   89.99997356
_cell_angle_beta   90.00000397
_cell_angle_gamma   90.00000996
_symmetry_Int_Tables_number   1
_chemical_formula_structural   ZnH12C18(NO3)2
_chemical_formula_sum   'Zn8 H96 C144 N16 O48'
_cell_volume   7092.09402275
_cell_formula_units_Z   8
loop_
 _symmetry_equiv_pos_site_id
 _symmetry_equiv_pos_as_xyz
  1  'x, y, z'
loop_
 _atom_site_type_symbol
 _atom_site_label
 _atom_site_symmetry_multiplicity
 _atom_site_fract_x
 _atom_site_fract_y
 _atom_site_fract_z
 _atom_site_occupancy
 _atom_site_pbe_bader_charge
 _atom_site_pbe_bader_spin_density
 _atom_site_pbe_cm5_charge
 _atom_site_pbe_ddec_charge
 _atom_site_pbe_ddec_spin_density
 _atom_site_pbe_ddec_sum_bond_order
 _atom_site_pbe_magmom
Zn  Zn0  1  0.43287349  0.91769543  0.20282387  1  1.299997  0  0.685552  0.808709  0  2.393168  0
Zn  Zn1  1  0.56712651  0.08230436  0.20282402  1  1.299782  0  0.685568  0.808759  0  2.39316  0
Zn  Zn2  1  0.93287341  0.58230456  0.29717623  1  1.299998  0  0.685554  0.808713  0  2.393185  0
Zn  Zn3  1  0.06712660  0.41769574  0.29717580  1  1.299784  0  0.685569  0.808757  0  2.393147  0
Zn  Zn4  1  0.41769573  0.93287364  0.70282419  1  1.299787  0  0.685558  0.808741  0  2.393168  0
Zn  Zn5  1  0.58230432  0.06712642  0.70282392  1  1.299997  0  0.685559  0.808744  0  2.393168  0
Zn  Zn6  1  0.08230441  0.43287338  0.79717613  1  1.299994  0  0.685548  0.808727  0  2.393189  0
Zn  Zn7  1  0.91769565  0.56712605  0.79717613  1  1.299788  0  0.68556  0.808747  0  2.393138  0
H  H8  1  0.35877072  0.03281664  0.49115527  1  0.111592  0  0.112358  0.116712  0  0.99336  0
H  H9  1  0.64122931  0.96718355  0.49115511  1  0.111587  0  0.112365  0.116709  0  0.993401  0
H  H10  1  0.85877125  0.46718351  0.00884457  1  0.111595  0  0.112355  0.116698  0  0.993375  0
H  H11  1  0.14122930  0.53281697  0.00884454  1  0.111588  0  0.112354  0.116698  0  0.993369  0
H  H12  1  0.53281681  0.85877139  0.99115546  1  0.11159  0  0.112364  0.116712  0  0.993388  0
H  H13  1  0.46718326  0.14122907  0.99115559  1  0.111589  0  0.11235  0.116693  0  0.993386  0
H  H14  1  0.96718321  0.35877194  0.50884448  1  0.111598  0  0.112368  0.116713  0  0.993386  0
H  H15  1  0.03281682  0.64122880  0.50884484  1  0.111589  0  0.112351  0.116705  0  0.993371  0
H  H16  1  0.44991016  0.21661375  0.22342825  1  0.654506  0  0.299396  0.354158  0  0.975376  0
H  H17  1  0.55009041  0.78338602  0.22342859  1  0.654497  0  0.299413  0.354141  0  0.975357  0
H  H18  1  0.94991012  0.28338641  0.27657203  1  0.654516  0  0.299396  0.354154  0  0.975372  0
H  H19  1  0.05008989  0.71661390  0.27657192  1  0.654516  0  0.299392  0.35414  0  0.975397  0
H  H20  1  0.71661374  0.94991040  0.72342803  1  0.654517  0  0.299379  0.354078  0  0.975477  0
H  H21  1  0.28338631  0.05008965  0.72342817  1  0.654514  0  0.299392  0.354137  0  0.975402  0
H  H22  1  0.78338630  0.44991019  0.77657145  1  0.654505  0  0.299395  0.354104  0  0.975412  0
H  H23  1  0.21661376  0.55008983  0.77657185  1  0.654516  0  0.299389  0.35414  0  0.975395  0
H  H24  1  0.29010226  0.32268841  0.26779421  1  0.105778  0  0.110384  0.137562  0  0.984837  0
H  H25  1  0.70989888  0.67731135  0.26779372  1  0.105786  0  0.110408  0.137582  0  0.984816  0
H  H26  1  0.79010220  0.17731173  0.23220562  1  0.105781  0  0.110387  0.137572  0  0.984833  0
H  H27  1  0.20989838  0.82268861  0.23220593  1  0.105775  0  0.110417  0.137606  0  0.984823  0
H  H28  1  0.82268835  0.79010184  0.76779404  1  0.10578  0  0.1104  0.137575  0  0.984829  0
H  H29  1  0.17731113  0.20989761  0.76779412  1  0.105767  0  0.110409  0.137593  0  0.984831  0
H  H30  1  0.67731165  0.29010164  0.73220593  1  0.105782  0  0.110379  0.137564  0  0.984846  0
H  H31  1  0.32268840  0.70989784  0.73220585  1  0.105783  0  0.110393  0.137584  0  0.984818  0
H  H32  1  0.53849474  0.87035819  0.30968542  1  0.100754  0  0.121254  0.092008  0  1.012206  0
H  H33  1  0.46150527  0.12964211  0.30968555  1  0.100775  0  0.12125  0.091999  0  1.012227  0
H  H34  1  0.03849477  0.62964230  0.19031466  1  0.100751  0  0.121248  0.092003  0  1.012224  0
H  H35  1  0.96150523  0.37035807  0.19031473  1  0.10075  0  0.121248  0.092  0  1.012219  0
H  H36  1  0.37035789  0.03849508  0.80968546  1  0.100749  0  0.121249  0.091995  0  1.012211  0
H  H37  1  0.62964216  0.96150491  0.80968530  1  0.100766  0  0.121243  0.091993  0  1.012224  0
H  H38  1  0.12964217  0.53849529  0.69031501  1  0.100736  0  0.121241  0.091985  0  1.012233  0
H  H39  1  0.87035787  0.46150534  0.69031461  1  0.100751  0  0.121259  0.092017  0  1.012211  0
H  H40  1  0.08944073  0.16837032  0.26167852  1  0.651976  0  0.295497  0.351482  0  0.975691  0
H  H41  1  0.91055984  0.83163058  0.26167799  1  0.652024  0  0.295529  0.351499  0  0.97569  0
H  H42  1  0.58944069  0.33163036  0.23832174  1  0.651981  0  0.295534  0.351527  0  0.975678  0
H  H43  1  0.41055931  0.66836998  0.23832167  1  0.651981  0  0.295529  0.351506  0  0.975666  0
H  H44  1  0.66836977  0.58944021  0.76167879  1  0.651965  0  0.295524  0.351505  0  0.975714  0
H  H45  1  0.33162971  0.41055925  0.76167838  1  0.651978  0  0.295524  0.351499  0  0.975676  0
H  H46  1  0.83163020  0.08944060  0.73832168  1  0.651978  0  0.295535  0.35148  0  0.975713  0
H  H47  1  0.16836985  0.91055944  0.73832152  1  0.651968  0  0.295522  0.351496  0  0.975682  0
H  H48  1  0.47127446  0.82839660  0.60883406  1  0.128441  0  0.129215  0.10883  0  0.969747  0
H  H49  1  0.52872558  0.17160295  0.60883374  1  0.128447  0  0.129228  0.108878  0  0.969696  0
H  H50  1  0.97127384  0.67160367  0.89116584  1  0.128436  0  0.129225  0.108878  0  0.9697  0
H  H51  1  0.02872622  0.32839627  0.89116631  1  0.128441  0  0.129227  0.108873  0  0.969699  0
H  H52  1  0.32839647  0.97127422  0.10883413  1  0.128438  0  0.129226  0.10888  0  0.969696  0
H  H53  1  0.67160410  0.02872619  0.10883387  1  0.128435  0  0.129222  0.108871  0  0.969704  0
H  H54  1  0.17160420  0.47127336  0.39116596  1  0.128433  0  0.129231  0.108869  0  0.969715  0
H  H55  1  0.82839639  0.52872632  0.39116596  1  0.128445  0  0.129232  0.108893  0  0.969687  0
H  H56  1  0.32726020  0.97229738  0.29729628  1  0.132118  0  0.127074  0.104122  0  0.987164  0
H  H57  1  0.67273981  0.02770292  0.29729646  1  0.132131  0  0.127083  0.104129  0  0.987153  0
H  H58  1  0.82726010  0.52770259  0.20270338  1  0.132132  0  0.127062  0.104044  0  0.987236  0
H  H59  1  0.17273990  0.47229777  0.20270381  1  0.132122  0  0.127078  0.104116  0  0.987138  0
H  H60  1  0.47229712  0.82726026  0.79729664  1  0.132131  0  0.12707  0.104067  0  0.987214  0
H  H61  1  0.52770237  0.17273974  0.79729676  1  0.132136  0  0.127056  0.104068  0  0.987227  0
H  H62  1  0.02770300  0.32726006  0.70270285  1  0.13213  0  0.127062  0.104064  0  0.987223  0
H  H63  1  0.97229762  0.67274000  0.70270369  1  0.132118  0  0.127081  0.104115  0  0.987138  0
H  H64  1  0.35975417  0.03449602  0.60042990  1  0.13763  0  0.125129  0.103634  0  0.979438  0
H  H65  1  0.64024530  0.96550353  0.60043018  1  0.137625  0  0.125145  0.103655  0  0.979499  0
H  H66  1  0.85975417  0.46550383  0.89956973  1  0.137624  0  0.125157  0.103677  0  0.979511  0
H  H67  1  0.14024589  0.53449611  0.89956970  1  0.137626  0  0.125126  0.103635  0  0.979436  0
H  H68  1  0.53449618  0.85975453  0.10042986  1  0.13763  0  0.125117  0.103628  0  0.979426  0
H  H69  1  0.46550381  0.14024589  0.10042999  1  0.13762  0  0.125155  0.103665  0  0.979516  0
H  H70  1  0.96550436  0.35975428  0.39956986  1  0.137629  0  0.125132  0.103636  0  0.979428  0
H  H71  1  0.03449623  0.64024539  0.39956978  1  0.137629  0  0.125116  0.10362  0  0.979421  0
H  H72  1  0.47451966  0.81626462  0.50002816  1  0.082708  0  0.116398  0.124846  0  0.9836  0
H  H73  1  0.52548094  0.18373499  0.50002827  1  0.082632  0  0.116382  0.124841  0  0.983635  0
H  H74  1  0.97451905  0.68373508  0.99997174  1  0.08271  0  0.116383  0.124834  0  0.983643  0
H  H75  1  0.02548103  0.31626480  0.99997221  1  0.082623  0  0.116376  0.124824  0  0.983647  0
H  H76  1  0.31626446  0.97451946  0.00002823  1  0.082706  0  0.116395  0.124848  0  0.983579  0
H  H77  1  0.68373496  0.02548046  0.00002841  1  0.082717  0  0.116402  0.124856  0  0.98359  0
H  H78  1  0.18373507  0.47451966  0.49997186  1  0.08271  0  0.116394  0.124843  0  0.983601  0
H  H79  1  0.81626496  0.52548109  0.49997187  1  0.082621  0  0.116382  0.124829  0  0.983646  0
H  H80  1  0.53340481  0.86932017  0.41808681  1  0.085105  0  0.112067  0.116809  0  0.993635  0
H  H81  1  0.46659521  0.13068006  0.41808650  1  0.085097  0  0.112058  0.116788  0  0.99366  0
H  H82  1  0.03340539  0.63067975  0.08191327  1  0.085094  0  0.112057  0.116782  0  0.993657  0
H  H83  1  0.96659460  0.36932068  0.08191378  1  0.085102  0  0.112056  0.116782  0  0.993677  0
H  H84  1  0.36931991  0.03340510  0.91808641  1  0.085101  0  0.112057  0.116794  0  0.99367  0
H  H85  1  0.63067959  0.96659426  0.91808669  1  0.085083  0  0.112042  0.116769  0  0.993657  0
H  H86  1  0.13068015  0.53340652  0.58191406  1  0.085072  0  0.112046  0.116764  0  0.993639  0
H  H87  1  0.86932045  0.46659475  0.58191365  1  0.085093  0  0.11205  0.116779  0  0.993672  0
H  H88  1  0.24634374  0.05070509  0.22087628  1  0.119992  0  0.10711  0.132576  0  0.991842  0
H  H89  1  0.75365569  0.94929526  0.22087657  1  0.119984  0  0.107096  0.132554  0  0.991871  0
H  H90  1  0.74634430  0.44929504  0.27912355  1  0.119991  0  0.107109  0.132577  0  0.991846  0
H  H91  1  0.25365571  0.55070470  0.27912352  1  0.119999  0  0.10711  0.132575  0  0.991842  0
H  H92  1  0.55070516  0.74634388  0.72087650  1  0.119994  0  0.107111  0.13258  0  0.991838  0
H  H93  1  0.44929489  0.25365617  0.72087614  1  0.119992  0  0.107109  0.132573  0  0.991844  0
H  H94  1  0.94929541  0.24634370  0.77912392  1  0.11998  0  0.107104  0.132573  0  0.991848  0
H  H95  1  0.05070521  0.75365575  0.77912381  1  0.11999  0  0.107107  0.132569  0  0.991848  0
H  H96  1  0.31134498  0.97370462  0.40552643  1  0.089818  0  0.117034  0.125898  0  0.980232  0
H  H97  1  0.68865448  0.02629561  0.40552661  1  0.089901  0  0.117032  0.125878  0  0.980279  0
H  H98  1  0.81134544  0.52629535  0.09447323  1  0.089921  0  0.117029  0.125885  0  0.980276  0
H  H99  1  0.18865455  0.47370451  0.09447366  1  0.089825  0  0.117029  0.125892  0  0.980249  0
H  H100  1  0.47370440  0.81134556  0.90552636  1  0.089861  0  0.117022  0.125877  0  0.98029  0
H  H101  1  0.52629567  0.18865437  0.90552691  1  0.089884  0  0.117024  0.125879  0  0.980291  0
H  H102  1  0.02629458  0.31134713  0.59447270  1  0.089967  0  0.117024  0.125898  0  0.980264  0
H  H103  1  0.97370432  0.68865470  0.59447353  1  0.089803  0  0.117024  0.125872  0  0.980272  0
C  C104  1  0.41786218  0.92455617  0.48595676  1  -0.03184  0  0.013254  0.104667  0  3.992886  0
C  C105  1  0.58213785  0.07544345  0.48595648  1  -0.031958  0  0.013273  0.104625  0  3.992897  0
C  C106  1  0.91786208  0.57544325  0.01404334  1  -0.031941  0  0.013249  0.104642  0  3.992879  0
C  C107  1  0.08213791  0.42455665  0.01404334  1  -0.031824  0  0.01326  0.104667  0  3.992882  0
C  C108  1  0.42455600  0.91786223  0.98595622  1  -0.031842  0  0.013297  0.104671  0  3.992857  0
C  C109  1  0.57544351  0.08213766  0.98595637  1  -0.031962  0  0.013265  0.104626  0  3.992932  0
C  C110  1  0.07544300  0.41786384  0.51404324  1  -0.03195  0  0.01325  0.104623  0  3.992942  0
C  C111  1  0.92455646  0.58213803  0.51404323  1  -0.031814  0  0.013262  0.104672  0  3.992878  0
C  C112  1  0.42194197  0.92241318  0.42157275  1  -0.069456  0  0.012052  0.100196  0  3.998123  0
C  C113  1  0.57805805  0.07758648  0.42157291  1  -0.069444  0  0.012053  0.100265  0  3.998065  0
C  C114  1  0.92194187  0.57758682  0.07842691  1  -0.06944  0  0.012066  0.100225  0  3.998092  0
C  C115  1  0.07805812  0.42241362  0.07842735  1  -0.069443  0  0.012033  0.100209  0  3.998097  0
C  C116  1  0.42241298  0.92194147  0.92157309  1  -0.069455  0  0.01207  0.100272  0  3.997997  0
C  C117  1  0.57758652  0.07805846  0.92157280  1  -0.069431  0  0.012058  0.100267  0  3.99803  0
C  C118  1  0.07758602  0.42194305  0.57842681  1  -0.069696  0  0.012033  0.100248  0  3.998126  0
C  C119  1  0.92241345  0.57805822  0.57842724  1  -0.069439  0  0.012055  0.100211  0  3.998132  0
C  C120  1  0.39235046  0.08920153  0.20975923  1  1.513543  0  0.211238  0.589735  0  4.197588  0
C  C121  1  0.60764897  0.91079825  0.20975952  1  1.513528  0  0.211278  0.589734  0  4.197674  0
C  C122  1  0.89235101  0.41079806  0.29024061  1  1.513532  0  0.211229  0.589664  0  4.197793  0
C  C123  1  0.10764900  0.58920225  0.29024056  1  1.51352  0  0.21123  0.589684  0  4.197743  0
C  C124  1  0.58920158  0.89235125  0.70975986  1  1.513567  0  0.211222  0.589671  0  4.197685  0
C  C125  1  0.41079790  0.10764938  0.70975956  1  1.513518  0  0.211216  0.589646  0  4.197702  0
C  C126  1  0.91079845  0.39235105  0.79024051  1  1.513554  0  0.211214  0.589646  0  4.197707  0
C  C127  1  0.08920161  0.60764896  0.79024045  1  1.513545  0  0.211229  0.589679  0  4.197666  0
C  C128  1  0.38402678  0.98579911  0.51530779  1  -0.067076  0  -0.079346  -0.177243  0  3.949743  0
C  C129  1  0.61597325  0.01420050  0.51530753  1  -0.06708  0  -0.079353  -0.177215  0  3.949718  0
C  C130  1  0.88402670  0.51420058  0.98469210  1  -0.067091  0  -0.079332  -0.17719  0  3.949722  0
C  C131  1  0.11597337  0.48579932  0.98469208  1  -0.067079  0  -0.079331  -0.17721  0  3.949731  0
C  C132  1  0.48579944  0.88402653  0.01530748  1  -0.067061  0  -0.079371  -0.17724  0  3.949744  0
C  C133  1  0.51420055  0.11597338  0.01530761  1  -0.067077  0  -0.079345  -0.177208  0  3.949731  0
C  C134  1  0.01420008  0.38402785  0.48469221  1  -0.067075  0  -0.079336  -0.177193  0  3.949695  0
C  C135  1  0.98579938  0.61597348  0.48469219  1  -0.067086  0  -0.079356  -0.177267  0  3.94976  0
C  C136  1  0.32962471  0.14043616  0.22696140  1  -0.013772  0  -0.049258  -0.186593  0  4.051151  0
C  C137  1  0.67037472  0.85956361  0.22696128  1  -0.013747  0  -0.049244  -0.186547  0  4.05111  0
C  C138  1  0.82962468  0.35956398  0.27303888  1  -0.013754  0  -0.049259  -0.18653  0  4.051142  0
C  C139  1  0.17037476  0.64043577  0.27303881  1  -0.013773  0  -0.049278  -0.186602  0  4.051167  0
C  C140  1  0.64043619  0.82962489  0.72696118  1  -0.013773  0  -0.04926  -0.186583  0  4.051188  0
C  C141  1  0.35956386  0.17037459  0.72696129  1  -0.013764  0  -0.049267  -0.186578  0  4.05116  0
C  C142  1  0.85956383  0.32962470  0.77303921  1  -0.013764  0  -0.049253  -0.186519  0  4.05115  0
C  C143  1  0.14043623  0.67037475  0.77303870  1  -0.013766  0  -0.049255  -0.186533  0  4.051165  0
C  C144  1  0.28095752  0.26297148  0.25750716  1  -0.02308  0  -0.103596  -0.199969  0  3.971808  0
C  C145  1  0.71904249  0.73702885  0.25750665  1  -0.023084  0  -0.103615  -0.200001  0  3.971814  0
C  C146  1  0.78095803  0.23702866  0.24249311  1  -0.02306  0  -0.103606  -0.200009  0  3.971831  0
C  C147  1  0.21904197  0.76297167  0.24249300  1  -0.023058  0  -0.103609  -0.200009  0  3.971758  0
C  C148  1  0.76297145  0.78095766  0.75750698  1  -0.023097  0  -0.10361  -0.2  0  3.97181  0
C  C149  1  0.23702803  0.21904180  0.75750706  1  -0.023082  0  -0.103608  -0.199993  0  3.971765  0
C  C150  1  0.73702856  0.28095747  0.74249300  1  -0.023087  0  -0.103598  -0.200014  0  3.971767  0
C  C151  1  0.26297093  0.71904200  0.74249291  1  -0.023088  0  -0.103609  -0.200003  0  3.971846  0
C  C152  1  0.34270040  0.21850507  0.24001842  1  0.561381  0  0.071619  0.281994  0  4.086659  0
C  C153  1  0.65730018  0.78149470  0.24001833  1  0.561363  0  0.071613  0.281958  0  4.086705  0
C  C154  1  0.84269978  0.28149508  0.25998141  1  0.561367  0  0.071626  0.281948  0  4.086753  0
C  C155  1  0.15730022  0.71850468  0.25998175  1  0.561372  0  0.071597  0.281958  0  4.086631  0
C  C156  1  0.71850563  0.84270001  0.74001865  1  0.561379  0  0.071667  0.282025  0  4.086628  0
C  C157  1  0.28149499  0.15730003  0.74001833  1  0.561372  0  0.071606  0.281965  0  4.086615  0
C  C158  1  0.78149496  0.34269981  0.75998129  1  0.561377  0  0.071613  0.281921  0  4.086715  0
C  C159  1  0.21850510  0.65729965  0.75998122  1  0.561363  0  0.071614  0.28193  0  4.086771  0
C  C160  1  0.20777179  0.23309085  0.26164051  1  -0.037245  0  -0.034941  -0.146614  0  4.006395  0
C  C161  1  0.79222822  0.76690948  0.26163999  1  -0.03723  0  -0.034933  -0.14654  0  4.00635  0
C  C162  1  0.70777174  0.26690985  0.23835932  1  -0.03723  0  -0.034962  -0.14655  0  4.006437  0
C  C163  1  0.29222827  0.73309049  0.23835923  1  -0.037218  0  -0.034984  -0.146599  0  4.006444  0
C  C164  1  0.73309083  0.70777189  0.76164077  1  -0.037216  0  -0.034942  -0.146546  0  4.006326  0
C  C165  1  0.26690922  0.29222813  0.76164039  1  -0.037224  0  -0.03495  -0.146589  0  4.006348  0
C  C166  1  0.76690973  0.20777170  0.73835923  1  -0.037231  0  -0.034957  -0.14647  0  4.006375  0
C  C167  1  0.23309089  0.79222777  0.73835955  1  -0.037232  0  -0.034931  -0.146549  0  4.00636  0
C  C168  1  0.48954234  0.89359273  0.33261540  1  0.539802  0  0.055553  0.112527  0  3.933311  0
C  C169  1  0.51045767  0.10640755  0.33261510  1  0.539785  0  0.055551  0.112533  0  3.933326  0
C  C170  1  0.98954282  0.60640727  0.16738471  1  0.539801  0  0.05558  0.112512  0  3.933303  0
C  C171  1  0.01045774  0.39359254  0.16738472  1  0.539808  0  0.055558  0.112527  0  3.933291  0
C  C172  1  0.39359309  0.98954247  0.83261527  1  0.53982  0  0.055594  0.112561  0  3.933283  0
C  C173  1  0.60640697  0.01045751  0.83261501  1  0.53979  0  0.055558  0.112522  0  3.933287  0
C  C174  1  0.10640706  0.48954287  0.66738504  1  0.53981  0  0.055597  0.112552  0  3.933284  0
C  C175  1  0.89359242  0.51045721  0.66738462  1  0.53979  0  0.055536  0.112506  0  3.933277  0
C  C176  1  0.44735134  0.87229659  0.58073061  1  0.533575  0  0.057004  0.107739  0  3.929857  0
C  C177  1  0.55264869  0.12770355  0.58073075  1  0.533558  0  0.057002  0.107728  0  3.929721  0
C  C178  1  0.94735129  0.62770368  0.91926928  1  0.533552  0  0.057013  0.107722  0  3.929791  0
C  C179  1  0.05264935  0.37229625  0.91926886  1  0.533535  0  0.057024  0.107755  0  3.929726  0
C  C180  1  0.37229642  0.94735110  0.08073070  1  0.533573  0  0.057012  0.107735  0  3.929784  0
C  C181  1  0.62770357  0.05264876  0.08073087  1  0.533567  0  0.057009  0.10774  0  3.929731  0
C  C182  1  0.12770367  0.44735135  0.41926896  1  0.533558  0  0.057007  0.107737  0  3.929767  0
C  C183  1  0.87229635  0.55264945  0.41926939  1  0.533573  0  0.057011  0.107708  0  3.929782  0
C  C184  1  0.37162092  0.95044170  0.32594008  1  0.491145  0  0.056734  0.107497  0  3.924849  0
C  C185  1  0.62837852  0.04955802  0.32594025  1  0.491127  0  0.05675  0.107516  0  3.924823  0
C  C186  1  0.87162196  0.54955772  0.17406001  1  0.491131  0  0.056845  0.107737  0  3.924882  0
C  C187  1  0.12837860  0.45044209  0.17406001  1  0.491126  0  0.056756  0.107548  0  3.924833  0
C  C188  1  0.45044202  0.87162100  0.82594043  1  0.491108  0  0.056831  0.10769  0  3.924881  0
C  C189  1  0.54955804  0.12837842  0.82594057  1  0.491124  0  0.056775  0.10759  0  3.924944  0
C  C190  1  0.04955754  0.37162138  0.67405948  1  0.491129  0  0.056815  0.107669  0  3.924933  0
C  C191  1  0.95044194  0.62837870  0.67405990  1  0.491139  0  0.056769  0.107573  0  3.92481  0
C  C192  1  0.38478581  0.98758020  0.57603285  1  0.497435  0  0.056171  0.107447  0  3.934767  0
C  C193  1  0.61521423  0.01241937  0.57603303  1  0.497432  0  0.056144  0.107435  0  3.934791  0
C  C194  1  0.88478630  0.51241948  0.92396703  1  0.497433  0  0.056121  0.107373  0  3.93485  0
C  C195  1  0.11521433  0.48757988  0.92396702  1  0.497434  0  0.056156  0.107434  0  3.934791  0
C  C196  1  0.48757998  0.88478554  0.07603342  1  0.49745  0  0.056167  0.107444  0  3.934751  0
C  C197  1  0.51241944  0.11521433  0.07603312  1  0.497442  0  0.056132  0.107415  0  3.934838  0
C  C198  1  0.01242010  0.38478576  0.42396670  1  0.497441  0  0.056169  0.107451  0  3.934748  0
C  C199  1  0.98758049  0.61521446  0.42396712  1  0.497424  0  0.056165  0.107468  0  3.934722  0
C  C200  1  0.44934493  0.86637434  0.52022703  1  -0.048157  0  -0.078014  -0.177697  0  3.944835  0
C  C201  1  0.55065510  0.13362526  0.52022672  1  -0.048074  0  -0.078021  -0.177707  0  3.944857  0
C  C202  1  0.94934488  0.63362592  0.97977287  1  -0.048157  0  -0.078002  -0.17768  0  3.944849  0
C  C203  1  0.05065519  0.36637454  0.97977333  1  -0.048066  0  -0.077991  -0.177677  0  3.944843  0
C  C204  1  0.36637416  0.94934471  0.02022711  1  -0.048148  0  -0.078025  -0.177705  0  3.944785  0
C  C205  1  0.63362526  0.05065519  0.02022684  1  -0.048145  0  -0.078022  -0.177706  0  3.94483  0
C  C206  1  0.13362536  0.44934549  0.47977298  1  -0.04816  0  -0.078016  -0.1777  0  3.944848  0
C  C207  1  0.86637409  0.55065527  0.47977298  1  -0.048084  0  -0.078001  -0.177665  0  3.944867  0
C  C208  1  0.19415694  0.15532135  0.24796405  1  0.540429  0  0.071883  0.282362  0  4.108679  0
C  C209  1  0.80584307  0.84467899  0.24796394  1  0.540419  0  0.071879  0.282345  0  4.108685  0
C  C210  1  0.69415690  0.34467878  0.25203578  1  0.540417  0  0.071904  0.282375  0  4.108858  0
C  C211  1  0.30584310  0.65532099  0.25203572  1  0.540421  0  0.071919  0.282414  0  4.108779  0
C  C212  1  0.65532080  0.69415704  0.74796430  1  0.540422  0  0.071869  0.282339  0  4.108732  0
C  C213  1  0.34467811  0.30584299  0.74796392  1  0.54042  0  0.071912  0.282372  0  4.108666  0
C  C214  1  0.84467862  0.19415629  0.75203571  1  0.540421  0  0.071928  0.282318  0  4.108908  0
C  C215  1  0.15532143  0.80584317  0.75203602  1  0.540438  0  0.071903  0.282395  0  4.108631  0
C  C216  1  0.48583752  0.89229849  0.39324960  1  -0.038573  0  -0.07926  -0.174499  0  3.944721  0
C  C217  1  0.51416193  0.10770118  0.39325018  1  -0.038739  0  -0.079272  -0.174517  0  3.944737  0
C  C218  1  0.98583800  0.60770094  0.10675007  1  -0.038568  0  -0.079273  -0.174481  0  3.944727  0
C  C219  1  0.01416200  0.39229891  0.10675008  1  -0.038739  0  -0.079272  -0.174499  0  3.944753  0
C  C220  1  0.39229887  0.98583763  0.89324991  1  -0.038564  0  -0.079282  -0.174544  0  3.944703  0
C  C221  1  0.60770119  0.01416118  0.89325009  1  -0.03873  0  -0.079227  -0.174448  0  3.944634  0
C  C222  1  0.10770127  0.48583920  0.60674996  1  -0.038737  0  -0.079225  -0.174447  0  3.944683  0
C  C223  1  0.89229877  0.51416149  0.60674998  1  -0.038581  0  -0.079248  -0.174472  0  3.944707  0
C  C224  1  0.25569131  0.11037600  0.23132671  1  -0.081384  0  -0.111349  -0.215943  0  3.982955  0
C  C225  1  0.74430926  0.88962434  0.23132658  1  -0.081375  0  -0.11134  -0.21593  0  3.982963  0
C  C226  1  0.75569071  0.38962413  0.26867313  1  -0.081383  0  -0.111357  -0.215962  0  3.982969  0
C  C227  1  0.24430872  0.61037619  0.26867307  1  -0.081379  0  -0.111344  -0.21594  0  3.982954  0
C  C228  1  0.61037604  0.75569088  0.73132693  1  -0.081386  0  -0.111361  -0.215959  0  3.982988  0
C  C229  1  0.38962401  0.24430916  0.73132658  1  -0.081365  0  -0.111351  -0.21593  0  3.982928  0
C  C230  1  0.88962396  0.25569069  0.76867305  1  -0.081357  0  -0.111355  -0.215961  0  3.98302  0
C  C231  1  0.11037552  0.74430876  0.76867294  1  -0.081376  0  -0.111345  -0.215947  0  3.982937  0
C  C232  1  0.36348122  0.95144160  0.38635587  1  -0.019634  0  -0.077366  -0.173523  0  3.934541  0
C  C233  1  0.63651937  0.04855808  0.38635560  1  -0.019731  0  -0.077355  -0.173524  0  3.934544  0
C  C234  1  0.86348112  0.54855781  0.11364466  1  -0.01973  0  -0.07734  -0.17356  0  3.934547  0
C  C235  1  0.13651887  0.45144203  0.11364466  1  -0.019644  0  -0.077331  -0.173521  0  3.934549  0
C  C236  1  0.45144194  0.86348071  0.88635535  1  -0.019689  0  -0.077338  -0.173552  0  3.934553  0
C  C237  1  0.54855812  0.13651924  0.88635548  1  -0.019723  0  -0.077354  -0.173551  0  3.934629  0
C  C238  1  0.04855761  0.36348226  0.61364413  1  -0.019514  0  -0.077315  -0.173565  0  3.934615  0
C  C239  1  0.95144129  0.63651899  0.61364455  1  -0.019615  0  -0.077367  -0.17354  0  3.934631  0
C  C240  1  0.14358081  0.28341873  0.27876623  1  1.544738  0  0.195263  0.571869  0  4.215307  0
C  C241  1  0.85641977  0.71658102  0.27876618  1  1.544757  0  0.195196  0.571714  0  4.215509  0
C  C242  1  0.64358018  0.21658082  0.22123359  1  1.544755  0  0.195215  0.571773  0  4.215445  0
C  C243  1  0.35641982  0.78341896  0.22123348  1  1.544786  0  0.195228  0.571741  0  4.215479  0
C  C244  1  0.78341926  0.64357974  0.77876652  1  1.544799  0  0.195197  0.571658  0  4.215504  0
C  C245  1  0.21658079  0.35641971  0.77876655  1  1.544755  0  0.195249  0.571812  0  4.215428  0
C  C246  1  0.71658072  0.14358012  0.72123350  1  1.544757  0  0.195182  0.571664  0  4.215477  0
C  C247  1  0.28341933  0.85641936  0.72123380  1  1.544753  0  0.195213  0.571745  0  4.21543  0
N  N248  1  0.43402454  0.92294158  0.29927123  1  -1.226583  0  -0.310935  -0.228113  0  3.494295  0
N  N249  1  0.56597604  0.07705815  0.29927138  1  -1.226397  0  -0.310939  -0.228113  0  3.494252  0
N  N250  1  0.93402445  0.57705841  0.20072844  1  -1.226591  0  -0.311039  -0.228197  0  3.494289  0
N  N251  1  0.06597612  0.42294195  0.20072888  1  -1.226403  0  -0.310949  -0.228131  0  3.494246  0
N  N252  1  0.42294191  0.93402409  0.79927156  1  -1.226579  0  -0.311033  -0.228195  0  3.494298  0
N  N253  1  0.57705814  0.06597591  0.79927128  1  -1.226399  0  -0.310946  -0.228114  0  3.494231  0
N  N254  1  0.07705822  0.43402389  0.70072833  1  -1.226567  0  -0.311048  -0.228217  0  3.494314  0
N  N255  1  0.92294182  0.56597560  0.70072877  1  -1.22638  0  -0.310938  -0.228127  0  3.494227  0
N  N256  1  0.41663501  0.93240211  0.60830809  1  -1.212034  0  -0.313053  -0.222056  0  3.513759  0
N  N257  1  0.58336503  0.06759744  0.60830781  1  -1.212114  0  -0.313056  -0.222108  0  3.513697  0
N  N258  1  0.91663494  0.56759758  0.89169224  1  -1.212118  0  -0.313075  -0.222102  0  3.513732  0
N  N259  1  0.08336512  0.43240237  0.89169224  1  -1.212008  0  -0.313094  -0.222138  0  3.513764  0
N  N260  1  0.43240193  0.91663474  0.10830819  1  -1.212058  0  -0.31309  -0.222141  0  3.51377  0
N  N261  1  0.56759749  0.08336510  0.10830835  1  -1.212126  0  -0.313068  -0.222124  0  3.513717  0
N  N262  1  0.06759759  0.41663443  0.39169191  1  -1.212141  0  -0.313094  -0.222135  0  3.513771  0
N  N263  1  0.93240186  0.58336525  0.39169234  1  -1.21203  0  -0.313068  -0.222105  0  3.513736  0
O  O264  1  0.37823054  0.01920756  0.20179484  1  -1.20109  0  -0.315259  -0.552128  0  2.431015  0
O  O265  1  0.62176946  0.98079223  0.20179511  1  -1.201079  0  -0.31527  -0.552126  0  2.430922  0
O  O266  1  0.87822997  0.48079259  0.29820500  1  -1.201082  0  -0.315232  -0.552084  0  2.431021  0
O  O267  1  0.12176948  0.51920714  0.29820497  1  -1.201076  0  -0.315231  -0.552079  0  2.430964  0
O  O268  1  0.51920764  0.87823018  0.70179546  1  -1.201082  0  -0.315247  -0.552096  0  2.43094  0
O  O269  1  0.48079241  0.12176988  0.70179515  1  -1.201076  0  -0.315248  -0.5521  0  2.430955  0
O  O270  1  0.98079238  0.37823000  0.79820492  1  -1.201088  0  -0.315241  -0.552077  0  2.430971  0
O  O271  1  0.01920767  0.62177001  0.79820485  1  -1.201082  0  -0.315248  -0.552112  0  2.430958  0
O  O272  1  0.41126263  0.25347621  0.23730130  1  -1.15831  0  -0.366336  -0.450767  0  2.286284  0
O  O273  1  0.58873738  0.74652413  0.23730165  1  -1.158295  0  -0.366341  -0.450729  0  2.286285  0
O  O274  1  0.91126258  0.24652395  0.26269854  1  -1.158305  0  -0.366325  -0.450728  0  2.286288  0
O  O275  1  0.08873743  0.75347581  0.26269887  1  -1.158304  0  -0.366317  -0.450731  0  2.286295  0
O  O276  1  0.75347618  0.91126228  0.73730108  1  -1.158313  0  -0.366353  -0.450708  0  2.286296  0
O  O277  1  0.24652387  0.08873720  0.73730122  1  -1.158312  0  -0.366339  -0.45075  0  2.286298  0
O  O278  1  0.74652441  0.41126264  0.76269840  1  -1.158294  0  -0.366329  -0.45069  0  2.286323  0
O  O279  1  0.25347564  0.58873739  0.76269880  1  -1.158313  0  -0.36633  -0.450727  0  2.286316  0
O  O280  1  0.12389314  0.12455499  0.25051736  1  -1.166055  0  -0.371833  -0.460746  0  2.242992  0
O  O281  1  0.87610687  0.87544534  0.25051725  1  -1.166061  0  -0.371871  -0.46078  0  2.242996  0
O  O282  1  0.62389311  0.37544512  0.24948246  1  -1.166067  0  -0.371866  -0.460801  0  2.243031  0
O  O283  1  0.37610690  0.62455464  0.24948285  1  -1.166068  0  -0.371868  -0.460791  0  2.242974  0
O  O284  1  0.62455503  0.62389320  0.75051762  1  -1.166051  0  -0.371855  -0.460782  0  2.243058  0
O  O285  1  0.37544502  0.37610683  0.75051722  1  -1.166049  0  -0.371867  -0.460776  0  2.242977  0
O  O286  1  0.87544552  0.12389246  0.74948241  1  -1.166087  0  -0.371877  -0.460733  0  2.243052  0
O  O287  1  0.12455454  0.87610701  0.74948269  1  -1.166054  0  -0.371869  -0.460789  0  2.242974  0
O  O288  1  0.45877707  0.11942930  0.20402007  1  -1.186702  0  -0.314657  -0.577239  0  2.483083  0
O  O289  1  0.54122350  0.88057049  0.20401993  1  -1.18672  0  -0.314695  -0.577231  0  2.483216  0
O  O290  1  0.95877648  0.38057087  0.29598021  1  -1.186717  0  -0.314681  -0.577238  0  2.483255  0
O  O291  1  0.04122354  0.61942943  0.29598015  1  -1.186723  0  -0.314686  -0.577236  0  2.483243  0
O  O292  1  0.61942932  0.95877675  0.70401982  1  -1.186727  0  -0.314654  -0.577191  0  2.483147  0
O  O293  1  0.38057072  0.04122331  0.70401997  1  -1.186715  0  -0.314643  -0.577181  0  2.483145  0
O  O294  1  0.88057071  0.45877655  0.79598009  1  -1.186722  0  -0.314651  -0.577201  0  2.483162  0
O  O295  1  0.11942934  0.54122289  0.79598006  1  -1.186721  0  -0.314663  -0.577222  0  2.483166  0
O  O296  1  0.15971648  0.35276672  0.29196130  1  -1.175554  0  -0.33704  -0.553831  0  2.31494  0
O  O297  1  0.84028410  0.64723358  0.29196127  1  -1.175546  0  -0.337021  -0.553777  0  2.315013  0
O  O298  1  0.65971641  0.14723340  0.20803853  1  -1.175582  0  -0.337043  -0.553828  0  2.314969  0
O  O299  1  0.34028303  0.85276639  0.20803883  1  -1.175621  0  -0.33703  -0.553778  0  2.314998  0
O  O300  1  0.85276609  0.65971655  0.79196160  1  -1.175593  0  -0.337019  -0.553754  0  2.315001  0
O  O301  1  0.14723282  0.34028346  0.79196120  1  -1.175571  0  -0.33705  -0.55383  0  2.314967  0
O  O302  1  0.64723389  0.15971636  0.70803842  1  -1.175556  0  -0.337031  -0.553798  0  2.315013  0
O  O303  1  0.35276673  0.84028370  0.70803873  1  -1.175564  0  -0.337052  -0.553821  0  2.314992  0
O  O304  1  0.07633268  0.25711680  0.27866445  1  -1.165703  0  -0.31702  -0.546476  0  2.153257  0
O  O305  1  0.92366790  0.74288352  0.27866395  1  -1.165778  0  -0.316942  -0.546354  0  2.153291  0
O  O306  1  0.57633262  0.24288274  0.22133537  1  -1.165716  0  -0.31697  -0.546416  0  2.153343  0
O  O307  1  0.42366681  0.75711704  0.22133527  1  -1.16571  0  -0.316955  -0.54637  0  2.153345  0
O  O308  1  0.75711678  0.57633214  0.77866475  1  -1.165736  0  -0.316947  -0.546337  0  2.153315  0
O  O309  1  0.24288271  0.42366730  0.77866476  1  -1.165709  0  -0.316965  -0.546394  0  2.15333  0
O  O310  1  0.74288319  0.07633196  0.72133530  1  -1.165729  0  -0.316946  -0.546347  0  2.153296  0
O  O311  1  0.25711686  0.92366752  0.72133557  1  -1.165703  0  -0.316958  -0.546389  0  2.153276  0
