# generated using pymatgen
data_CdH22C28(NO)4
_symmetry_space_group_name_H-M   'P 1'
_cell_length_a   9.61027404
_cell_length_b   12.97652189
_cell_length_c   13.67302231
_cell_angle_alpha   117.28615610
_cell_angle_beta   94.60002504
_cell_angle_gamma   102.90495881
_symmetry_Int_Tables_number   1
_chemical_formula_structural   CdH22C28(NO)4
_chemical_formula_sum   'Cd2 H44 C56 N8 O8'
_cell_volume   1443.94271401
_cell_formula_units_Z   2
loop_
 _symmetry_equiv_pos_site_id
 _symmetry_equiv_pos_as_xyz
  1  'x, y, z'
loop_
 _atom_site_type_symbol
 _atom_site_label
 _atom_site_symmetry_multiplicity
 _atom_site_fract_x
 _atom_site_fract_y
 _atom_site_fract_z
 _atom_site_occupancy
 _atom_site_hle17_bader_spin_density
 _atom_site_hle17_ddec_charge
 _atom_site_hle17_ddec_spin_density
 _atom_site_hle17_ddec_sum_bond_order
 _atom_site_hle17_magmom
 _atom_site_hse06_10hf_bader_spin_density
 _atom_site_hse06_10hf_ddec_charge
 _atom_site_hse06_10hf_ddec_spin_density
 _atom_site_hse06_10hf_ddec_sum_bond_order
 _atom_site_hse06_10hf_magmom
 _atom_site_hse06_bader_spin_density
 _atom_site_hse06_ddec_charge
 _atom_site_hse06_ddec_spin_density
 _atom_site_hse06_ddec_sum_bond_order
 _atom_site_hse06_magmom
 _atom_site_pbe_bader_spin_density
 _atom_site_pbe_cm5_charge
 _atom_site_pbe_ddec_charge
 _atom_site_pbe_ddec_spin_density
 _atom_site_pbe_ddec_sum_bond_order
 _atom_site_pbe_magmom
Cd  Cd0  1  0.49775564  0.84997027  0.47654378  1  0  1.085965  0  1.690795  0  0  0.889857  0  2.130428  0  0  0.949274  0  2.080003  0  0  0.763593  0.847836  0  2.164725  0
Cd  Cd1  1  0.50224186  0.15002968  0.52345654  1  0  1.085974  0  1.690765  0  0  0.889855  0  2.130416  0  0  0.949276  0  2.07999  0  0  0.76359  0.847836  0  2.164707  0
H  H2  1  0.43790530  0.23824269  0.34449887  1  0  0.104158  0  0.940517  0  0  0.106142  0  1.011858  0  0  0.11037  0  1.006714  0  0  0.1209  0.103067  0  1.015492  0
H  H3  1  0.56209605  0.76175634  0.65550200  1  0  0.104153  0  0.940531  0  0  0.106149  0  1.01186  0  0  0.110376  0  1.006716  0  0  0.120901  0.103071  0  1.015495  0
H  H4  1  0.74172543  0.58302572  0.43638079  1  0  0.092632  0  0.987487  0  0  0.097825  0  1.061026  0  0  0.100499  0  1.059239  0  0  0.103396  0.095893  0  1.062259  0
H  H5  1  0.25827385  0.41697334  0.56361705  1  0  0.092623  0  0.987531  0  0  0.097824  0  1.061059  0  0  0.100498  0  1.059271  0  0  0.103396  0.095889  0  1.062292  0
H  H6  1  0.85593259  0.58545347  0.61068140  1  0  0.106276  0  0.930628  0  0  0.119424  0  0.980501  0  0  0.122801  0  0.97986  0  0  0.11066  0.117001  0  0.981131  0
H  H7  1  0.14406837  0.41454740  0.38931806  1  0  0.106246  0  0.930667  0  0  0.119428  0  0.980504  0  0  0.122806  0  0.979861  0  0  0.110653  0.117003  0  0.981134  0
H  H8  1  0.74904549  0.41036899  0.64118929  1  0  0.069814  0  0.969233  0  0  0.076018  0  1.040413  0  0  0.078344  0  1.038206  0  0  0.11167  0.074284  0  1.04199  0
H  H9  1  0.25095434  0.58963457  0.35881350  1  0  0.069825  0  0.969233  0  0  0.076036  0  1.040387  0  0  0.078362  0  1.038183  0  0  0.111681  0.074304  0  1.041961  0
H  H10  1  0.54795858  0.49249216  0.27157409  1  0  0.070598  0  0.935067  0  0  0.079337  0  1.006633  0  0  0.082653  0  1.002571  0  0  0.108395  0.076841  0  1.009688  0
H  H11  1  0.45204109  0.50750508  0.72842369  1  0  0.070626  0  0.934992  0  0  0.079338  0  1.006586  0  0  0.082654  0  1.002522  0  0  0.108392  0.076844  0  1.00964  0
H  H12  1  0.37142527  0.42396796  0.12737477  1  0  0.062565  0  0.949907  0  0  0.076025  0  1.021653  0  0  0.076626  0  1.021431  0  0  0.098849  0.075504  0  1.021933  0
H  H13  1  0.62857222  0.57603198  0.87262700  1  0  0.062521  0  0.949952  0  0  0.076033  0  1.021646  0  0  0.076636  0  1.021421  0  0  0.098848  0.075513  0  1.021918  0
H  H14  1  0.21344324  0.30917084  0.10830475  1  0  0.068463  0  0.908859  0  0  0.090231  0  0.962621  0  0  0.090396  0  0.961868  0  0  0.105893  0.090091  0  0.963143  0
H  H15  1  0.78655361  0.69082728  0.89169545  1  0  0.068432  0  0.908932  0  0  0.090218  0  0.962687  0  0  0.090387  0  0.961935  0  0  0.105868  0.090079  0  0.963209  0
H  H16  1  0.50845679  0.18103273  0.07786465  1  0  0.098075  0  0.953439  0  0  0.107456  0  1.012359  0  0  0.110855  0  1.011125  0  0  0.10045  0.105047  0  1.013325  0
H  H17  1  0.49154247  0.81896630  0.92213610  1  0  0.098084  0  0.953501  0  0  0.107483  0  1.012397  0  0  0.110893  0  1.011151  0  0  0.10048  0.105079  0  1.013361  0
H  H18  1  0.56347804  0.04611732  0.89426086  1  0  0.101217  0  0.938587  0  0  0.111487  0  0.996517  0  0  0.115421  0  0.993281  0  0  0.104266  0.108654  0  0.998846  0
H  H19  1  0.43652113  0.95388442  0.10574254  1  0  0.101218  0  0.938623  0  0  0.111486  0  0.996552  0  0  0.115421  0  0.993315  0  0  0.104267  0.108653  0  0.998875  0
H  H20  1  0.28286279  0.15524664  0.72460049  1  0  0.086798  0  0.972222  0  0  0.095277  0  1.040817  0  0  0.09773  0  1.039335  0  0  0.097941  0.093521  0  1.041886  0
H  H21  1  0.71713374  0.84475057  0.27539930  1  0  0.086806  0  0.97226  0  0  0.095281  0  1.040865  0  0  0.097733  0  1.039384  0  0  0.097938  0.09353  0  1.041935  0
H  H22  1  0.22431183  0.28811038  0.90669341  1  0  0.085753  0  0.96226  0  0  0.098541  0  1.022593  0  0  0.101002  0  1.022746  0  0  0.094885  0.0968  0  1.022586  0
H  H23  1  0.77568534  0.71188865  0.09330722  1  0  0.085819  0  0.962186  0  0  0.098586  0  1.022541  0  0  0.101046  0  1.022694  0  0  0.094904  0.096844  0  1.02253  0
H  H24  1  0.21577260  0.97566697  0.33469518  1  0  0.10018  0  0.942027  0  0  0.106593  0  1.005853  0  0  0.109819  0  1.002483  0  0  0.121775  0.104191  0  1.008343  0
H  H25  1  0.78422570  0.02432934  0.66530431  1  0  0.100183  0  0.942044  0  0  0.106599  0  1.005868  0  0  0.109825  0  1.002495  0  0  0.121777  0.104195  0  1.008358  0
H  H26  1  0.94565748  0.94917314  0.29778929  1  0  0.102127  0  0.967531  0  0  0.11271  0  1.025818  0  0  0.115248  0  1.026193  0  0  0.107287  0.110895  0  1.02571  0
H  H27  1  0.05434106  0.05082680  0.70221182  1  0  0.102141  0  0.967533  0  0  0.112723  0  1.025817  0  0  0.115261  0  1.026192  0  0  0.107295  0.110907  0  1.025709  0
H  H28  1  0.84344180  0.09829802  0.44226387  1  0  0.11907  0  0.950575  0  0  0.127667  0  1.012016  0  0  0.131162  0  1.009341  0  0  0.11  0.125055  0  1.01403  0
H  H29  1  0.15655811  0.90170284  0.55773626  1  0  0.119088  0  0.950575  0  0  0.127678  0  1.01202  0  0  0.131167  0  1.009353  0  0  0.110001  0.125065  0  1.014036  0
H  H30  1  0.28455194  0.28661666  0.64072205  1  0  0.094544  0  0.956992  0  0  0.097621  0  1.033024  0  0  0.101152  0  1.028509  0  0  0.120048  0.094969  0  1.036379  0
H  H31  1  0.71544877  0.71338055  0.35927797  1  0  0.094492  0  0.957031  0  0  0.097578  0  1.033062  0  0  0.101108  0  1.028548  0  0  0.120033  0.094924  0  1.036422  0
H  H32  1  0.89215544  0.28167415  0.64024143  1  0  0.076705  0  0.973479  0  0  0.083532  0  1.045389  0  0  0.087109  0  1.04158  0  0  0.107668  0.080782  0  1.048356  0
H  H33  1  0.10784519  0.71832578  0.35976052  1  0  0.076675  0  0.973427  0  0  0.083494  0  1.045347  0  0  0.08707  0  1.04154  0  0  0.107656  0.080736  0  1.048321  0
H  H34  1  0.06037212  0.57531517  0.76479820  1  0  0.073872  0  0.896561  0  0  0.097288  0  0.946414  0  0  0.097266  0  0.946397  0  0  0.111737  0.097319  0  0.946403  0
H  H35  1  0.93962717  0.42468392  0.23519745  1  0  0.073822  0  0.896602  0  0  0.097245  0  0.946455  0  0  0.097221  0  0.94644  0  0  0.111708  0.097274  0  0.946444  0
H  H36  1  0.93071551  0.46807151  0.78417834  1  0  0.052978  0  0.944936  0  0  0.067787  0  1.015187  0  0  0.0683  0  1.014844  0  0  0.097335  0.067351  0  1.015525  0
H  H37  1  0.06928505  0.53193117  0.21582189  1  0  0.05299  0  0.944953  0  0  0.067817  0  1.01517  0  0  0.068329  0  1.014826  0  0  0.097321  0.067382  0  1.015503  0
H  H38  1  0.98983392  0.66141387  0.97747295  1  0  0.083128  0  0.961977  0  0  0.094756  0  1.023415  0  0  0.097739  0  1.022323  0  0  0.096069  0.09261  0  1.024315  0
H  H39  1  0.01017662  0.33859339  0.02252622  1  0  0.083181  0  0.961929  0  0  0.094796  0  1.023383  0  0  0.097778  0  1.022292  0  0  0.096077  0.09265  0  1.024283  0
H  H40  1  0.12355928  0.74878937  0.17468308  1  0  0.092363  0  0.947912  0  0  0.104271  0  1.006923  0  0  0.107494  0  1.004604  0  0  0.101301  0.101931  0  1.008639  0
H  H41  1  0.87644884  0.25121696  0.82531701  1  0  0.092369  0  0.948071  0  0  0.104317  0  1.00702  0  0  0.107553  0  1.004686  0  0  0.101347  0.101981  0  1.008734  0
H  H42  1  0.42913993  0.54798966  0.05554986  1  0  0.091027  0  0.965881  0  0  0.102142  0  1.028998  0  0  0.104925  0  1.027101  0  0  0.100676  0.100098  0  1.030457  0
H  H43  1  0.57085909  0.45200575  0.94444855  1  0  0.091032  0  0.965896  0  0  0.102155  0  1.028998  0  0  0.104935  0  1.027101  0  0  0.100686  0.100104  0  1.03047  0
H  H44  1  0.29615788  0.45949741  0.85688980  1  0  0.098092  0  0.96608  0  0  0.104948  0  1.03469  0  0  0.10853  0  1.032281  0  0  0.098817  0.102357  0  1.03656  0
H  H45  1  0.70384315  0.54050073  0.14310919  1  0  0.098103  0  0.966072  0  0  0.104956  0  1.03469  0  0  0.108535  0  1.032285  0  0  0.098838  0.102365  0  1.03656  0
C  C46  1  0.52899375  0.31724265  0.40233648  1  0  0.11313  0  3.646569  0  0  0.074689  0  3.892579  0  0  0.082372  0  3.909947  0  0  0.06158  0.069869  0  3.880694  0
C  C47  1  0.47100583  0.68275729  0.59766468  1  0  0.113122  0  3.646574  0  0  0.074677  0  3.892588  0  0  0.082361  0  3.909956  0  0  0.061577  0.069864  0  3.8807  0
C  C48  1  0.57826797  0.41239027  0.37927792  1  0  -0.004613  0  3.784345  0  0  0.020633  0  4.01546  0  0  0.013679  0  4.040318  0  0  -0.005839  0.024857  0  3.998806  0
C  C49  1  0.42173338  0.58760878  0.62072149  1  0  -0.004589  0  3.78421  0  0  0.020632  0  4.015364  0  0  0.013679  0  4.040219  0  0  -0.005839  0.024855  0  3.998712  0
C  C50  1  0.69900729  0.50977549  0.45425171  1  0  -0.03922  0  3.69698  0  0  -0.066965  0  3.943374  0  0  -0.063634  0  3.962272  0  0  -0.062882  -0.068727  0  3.930423  0
C  C51  1  0.30099447  0.49022174  0.54574692  1  0  -0.03922  0  3.696886  0  0  -0.066967  0  3.9433  0  0  -0.063635  0  3.962197  0  0  -0.062874  -0.068723  0  3.930342  0
C  C52  1  0.76335187  0.51031556  0.54953550  1  0  -0.118832  0  3.753857  0  0  -0.128781  0  4.003181  0  0  -0.136441  0  4.025062  0  0  -0.084031  -0.123969  0  3.988477  0
C  C53  1  0.23664877  0.48968440  0.45046354  1  0  -0.118774  0  3.753917  0  0  -0.128751  0  4.003237  0  0  -0.136413  0  4.025121  0  0  -0.08402  -0.123937  0  3.988527  0
C  C54  1  0.70524431  0.41329959  0.56686154  1  0  0.126473  0  3.719989  0  0  0.093234  0  3.974439  0  0  0.100215  0  3.994655  0  0  0.043105  0.08884  0  3.960639  0
C  C55  1  0.29475423  0.58670034  0.43314030  1  0  0.126439  0  3.720107  0  0  0.093195  0  3.974559  0  0  0.100173  0  3.994783  0  0  0.043086  0.088797  0  3.960758  0
C  C56  1  0.50490204  0.41143375  0.28032483  1  0  0.1152  0  3.711191  0  0  0.079437  0  3.969656  0  0  0.087331  0  3.985606  0  0  0.077021  0.074331  0  3.958843  0
C  C57  1  0.49509932  0.58856530  0.71967458  1  0  0.115142  0  3.71128  0  0  0.079397  0  3.969766  0  0  0.087292  0  3.985717  0  0  0.076959  0.074288  0  3.958957  0
C  C58  1  0.33282780  0.33086196  0.11486437  1  0  -0.023788  0  3.742992  0  0  -0.080373  0  4.007795  0  0  -0.076217  0  4.018566  0  0  -0.060135  -0.082948  0  4.000164  0
C  C59  1  0.66716833  0.66913708  0.88513619  1  0  -0.023752  0  3.743153  0  0  -0.080404  0  4.007958  0  0  -0.076253  0  4.018736  0  0  -0.060159  -0.082978  0  4.000322  0
C  C60  1  0.36256158  0.24311707  0.00449205  1  0  0.09707  0  3.718836  0  0  0.117641  0  3.953424  0  0  0.119183  0  3.977744  0  0  -0.001768  0.116794  0  3.936768  0
C  C61  1  0.63743761  0.75688469  0.99550917  1  0  0.097077  0  3.718824  0  0  0.117658  0  3.95342  0  0  0.1192  0  3.977745  0  0  -0.001752  0.116814  0  3.936764  0
C  C62  1  0.45792879  0.17453141  0.00020145  1  0  -0.123649  0  3.745381  0  0  -0.141669  0  3.989453  0  0  -0.147049  0  4.011747  0  0  -0.09503  -0.138151  0  3.974315  0
C  C63  1  0.54207313  0.82547217  0.99979999  1  0  -0.123641  0  3.745328  0  0  -0.141682  0  3.9894  0  0  -0.147068  0  4.011683  0  0  -0.095049  -0.138173  0  3.974268  0
C  C64  1  0.48865367  0.09913173  0.89792660  1  0  -0.052708  0  3.737513  0  0  -0.075227  0  3.982404  0  0  -0.073406  0  4.002637  0  0  -0.079245  -0.076116  0  3.96854  0
C  C65  1  0.51134825  0.90087184  0.10207557  1  0  -0.052723  0  3.737502  0  0  -0.07525  0  3.982403  0  0  -0.073426  0  4.002645  0  0  -0.079268  -0.076126  0  3.968529  0
C  C66  1  0.42528973  0.09119979  0.79775749  1  0  -0.080193  0  3.771377  0  0  -0.057425  0  4.00523  0  0  -0.068407  0  4.030705  0  0  -0.028382  -0.050379  0  3.988156  0
C  C67  1  0.57471154  0.90880197  0.20224385  1  0  -0.080175  0  3.77141  0  0  -0.057387  0  4.005227  0  0  -0.068383  0  4.030728  0  0  -0.028382  -0.050352  0  3.988164  0
C  C68  1  0.32924691  0.15946814  0.80206510  1  0  -0.054608  0  3.759385  0  0  -0.078787  0  4.010495  0  0  -0.076451  0  4.030789  0  0  -0.087729  -0.08004  0  3.996623  0
C  C69  1  0.67075437  0.84053363  0.19793551  1  0  -0.054639  0  3.759482  0  0  -0.078826  0  4.010567  0  0  -0.076488  0  4.030868  0  0  -0.087713  -0.080092  0  3.996717  0
C  C70  1  0.29754256  0.23390934  0.90404002  1  0  -0.143623  0  3.754534  0  0  -0.160937  0  4.001603  0  0  -0.166909  0  4.023958  0  0  -0.098672  -0.157025  0  3.986423  0
C  C71  1  0.70245767  0.76609242  0.09596125  1  0  -0.143676  0  3.754512  0  0  -0.160976  0  4.001583  0  0  -0.166948  0  4.023937  0  0  -0.098699  -0.157052  0  3.986393  0
C  C72  1  0.46262722  0.01196609  0.68960448  1  0  0.638744  0  3.913488  0  0  0.588166  0  4.203743  0  0  0.623197  0  4.198011  0  0  0.19281  0.56438  0  4.206791  0
C  C73  1  0.53736899  0.98803021  0.31039562  1  0  0.638686  0  3.91337  0  0  0.588117  0  4.203602  0  0  0.623149  0  4.197879  0  0  0.192832  0.564336  0  4.206646  0
C  C74  1  0.16602963  0.03874995  0.39428610  1  0  0.140124  0  3.659113  0  0  0.107942  0  3.907117  0  0  0.115913  0  3.924599  0  0  0.055287  0.102829  0  3.895233  0
C  C75  1  0.83396898  0.96124727  0.60571381  1  0  0.14012  0  3.659157  0  0  0.107929  0  3.907171  0  0  0.115904  0  3.924649  0  0  0.055276  0.102821  0  3.895282  0
C  C76  1  0.01704018  0.02537056  0.37490958  1  0  -0.118885  0  3.746604  0  0  -0.129145  0  3.997017  0  0  -0.137213  0  4.020152  0  0  -0.083263  -0.124072  0  3.981498  0
C  C77  1  0.98296045  0.97462940  0.62509019  1  0  -0.118883  0  3.746622  0  0  -0.129142  0  3.997031  0  0  -0.137209  0  4.020164  0  0  -0.083266  -0.12407  0  3.981511  0
C  C78  1  0.96090671  0.10987468  0.45459892  1  0  -0.038166  0  3.660635  0  0  -0.06474  0  3.904356  0  0  -0.061686  0  3.923081  0  0  -0.058284  -0.066293  0  3.891549  0
C  C79  1  0.03909217  0.89012619  0.54540042  1  0  -0.038175  0  3.660724  0  0  -0.064739  0  3.904431  0  0  -0.06168  0  3.923157  0  0  -0.058269  -0.066294  0  3.891624  0
C  C80  1  0.05782748  0.20853996  0.55101469  1  0  -0.009119  0  3.803656  0  0  0.016583  0  4.035392  0  0  0.00969  0  4.060211  0  0  -0.008566  0.020824  0  4.018669  0
C  C81  1  0.94217381  0.79146183  0.44898374  1  0  -0.009113  0  3.803664  0  0  0.016582  0  4.035396  0  0  0.009689  0  4.060215  0  0  -0.00855  0.020826  0  4.018668  0
C  C82  1  0.20589098  0.21420389  0.56502659  1  0  0.08631  0  3.679983  0  0  0.046759  0  3.930621  0  0  0.053987  0  3.948386  0  0  0.053897  0.042214  0  3.918515  0
C  C83  1  0.79410725  0.78579516  0.43497192  1  0  0.08644  0  3.679892  0  0  0.046878  0  3.930538  0  0  0.054106  0  3.948305  0  0  0.053927  0.042334  0  3.918437  0
C  C84  1  0.00877949  0.30470983  0.63645497  1  0  0.10134  0  3.707987  0  0  0.068485  0  3.959064  0  0  0.076064  0  3.97482  0  0  0.072245  0.063618  0  3.948425  0
C  C85  1  0.99122043  0.69529103  0.36354516  1  0  0.101309  0  3.708019  0  0  0.068479  0  3.959071  0  0  0.076058  0  3.974831  0  0  0.072246  0.063617  0  3.948434  0
C  C86  1  0.04793512  0.50128987  0.78564522  1  0  -0.019969  0  3.749922  0  0  -0.07785  0  4.014493  0  0  -0.073653  0  4.02571  0  0  -0.057846  -0.080504  0  4.006596  0
C  C87  1  0.95206617  0.49871191  0.21435394  1  0  -0.020059  0  3.750005  0  0  -0.077917  0  4.01461  0  0  -0.073719  0  4.025824  0  0  -0.057856  -0.080576  0  4.006711  0
C  C88  1  0.13397683  0.55416948  0.90414291  1  0  0.091577  0  3.724927  0  0  0.112628  0  3.958177  0  0  0.114055  0  3.982184  0  0  -0.004195  0.111846  0  3.941718  0
C  C89  1  0.86602792  0.44583322  0.09585538  1  0  0.091646  0  3.724891  0  0  0.112585  0  3.958302  0  0  0.11401  0  3.982308  0  0  -0.004213  0.11181  0  3.941837  0
C  C90  1  0.08665447  0.63643202  0.99432906  1  0  -0.132554  0  3.766656  0  0  -0.149844  0  4.013063  0  0  -0.155152  0  4.035763  0  0  -0.096416  -0.146323  0  3.997592  0
C  C91  1  0.91335574  0.36357432  0.00566969  1  0  -0.132547  0  3.766728  0  0  -0.149791  0  4.013174  0  0  -0.155099  0  4.035879  0  0  -0.096348  -0.146271  0  3.9977  0
C  C92  1  0.16030697  0.68486913  0.10460112  1  0  -0.05512  0  3.746038  0  0  -0.07935  0  3.995202  0  0  -0.077943  0  4.015701  0  0  -0.084266  -0.079997  0  3.981196  0
C  C93  1  0.83970010  0.31513720  0.89539964  1  0  -0.055196  0  3.74641  0  0  -0.079454  0  3.995543  0  0  -0.078056  0  4.016039  0  0  -0.084342  -0.080104  0  3.981541  0
C  C94  1  0.28346465  0.65185186  0.12747172  1  0  -0.076906  0  3.773793  0  0  -0.053633  0  4.007808  0  0  -0.063631  0  4.033011  0  0  -0.023946  -0.047249  0  3.990925  0
C  C95  1  0.71654082  0.34814992  0.87252768  1  0  -0.076856  0  3.773709  0  0  -0.053592  0  4.007742  0  0  -0.063585  0  4.032941  0  0  -0.023947  -0.047213  0  3.990862  0
C  C96  1  0.33169029  0.57108429  0.03728027  1  0  -0.06108  0  3.755847  0  0  -0.085433  0  4.005711  0  0  -0.084186  0  4.027264  0  0  -0.083909  -0.085961  0  3.99102  0
C  C97  1  0.66831139  0.42891566  0.96271956  1  0  -0.061086  0  3.755737  0  0  -0.085428  0  4.005601  0  0  -0.084173  0  4.02714  0  0  -0.083901  -0.085946  0  3.990898  0
C  C98  1  0.25781525  0.52244452  0.92661554  1  0  -0.131362  0  3.744612  0  0  -0.150845  0  3.993888  0  0  -0.155882  0  4.015679  0  0  -0.096645  -0.147507  0  3.979058  0
C  C99  1  0.74218747  0.47755543  0.07338434  1  0  -0.131384  0  3.744554  0  0  -0.150851  0  3.993904  0  0  -0.155887  0  4.015696  0  0  -0.096666  -0.147517  0  3.979074  0
C  C100  1  0.36388622  0.70343041  0.24590976  1  0  0.616497  0  3.954583  0  0  0.566951  0  4.249149  0  0  0.601467  0  4.243497  0  0  0.186009  0.543571  0  4.252133  0
C  C101  1  0.63611512  0.29656862  0.75409111  1  0  0.616469  0  3.954577  0  0  0.566925  0  4.249165  0  0  0.601438  0  4.243506  0  0  0.185981  0.543544  0  4.252153  0
N  N102  1  0.59131291  0.31789357  0.49388333  1  0  -0.334129  0  3.262915  0  0  -0.256076  0  3.528079  0  0  -0.277174  0  3.548214  0  0  -0.326402  -0.241836  0  3.514094  0
N  N103  1  0.40868595  0.68210728  0.50611819  1  0  -0.334124  0  3.262903  0  0  -0.256072  0  3.528075  0  0  -0.277172  0  3.548214  0  0  -0.326406  -0.241828  0  3.514086  0
N  N104  1  0.39615645  0.32229346  0.20961712  1  0  -0.300811  0  3.025325  0  0  -0.2606  0  3.301913  0  0  -0.273933  0  3.316615  0  0  -0.323941  -0.251582  0  3.291721  0
N  N105  1  0.60383905  0.67770376  0.79038188  1  0  -0.30074  0  3.0255  0  0  -0.26052  0  3.302095  0  0  -0.273854  0  3.316802  0  0  -0.323829  -0.251503  0  3.291907  0
N  N106  1  0.25813110  0.13136738  0.48893085  1  0  -0.311844  0  3.284552  0  0  -0.228992  0  3.550198  0  0  -0.250549  0  3.569977  0  0  -0.328333  -0.214388  0  3.536371  0
N  N107  1  0.74186752  0.86862984  0.51106833  1  0  -0.311907  0  3.284573  0  0  -0.229053  0  3.550228  0  0  -0.25061  0  3.570007  0  0  -0.32834  -0.214453  0  3.536407  0
N  N108  1  0.10021838  0.40901856  0.70247850  1  0  -0.301916  0  3.070236  0  0  -0.254876  0  3.345191  0  0  -0.269788  0  3.363135  0  0  -0.317302  -0.244714  0  3.332746  0
N  N109  1  0.89978122  0.59098140  0.29752048  1  0  -0.301831  0  3.070286  0  0  -0.254798  0  3.345222  0  0  -0.26971  0  3.363164  0  0  -0.317279  -0.244636  0  3.332775  0
O  O110  1  0.39840615  0.00150516  0.59648052  1  0  -0.692039  0  2.009097  0  0  -0.613822  0  2.262806  0  0  -0.645218  0  2.250862  0  0  -0.345232  -0.591725  0  2.270195  0
O  O111  1  0.60159174  0.99849296  0.40352048  1  0  -0.692  0  2.009045  0  0  -0.613817  0  2.262771  0  0  -0.645211  0  2.250828  0  0  -0.345244  -0.59172  0  2.270161  0
O  O112  1  0.55303039  0.95514679  0.69031238  1  0  -0.620263  0  1.970409  0  0  -0.566768  0  2.203762  0  0  -0.59317  0  2.194771  0  0  -0.320106  -0.548303  0  2.209248  0
O  O113  1  0.44696202  0.04484768  0.30968888  1  0  -0.620272  0  1.970332  0  0  -0.56676  0  2.203672  0  0  -0.593163  0  2.194684  0  0  -0.320125  -0.548293  0  2.209151  0
O  O114  1  0.47179142  0.67013301  0.26584709  1  0  -0.640991  0  1.933555  0  0  -0.591167  0  2.177065  0  0  -0.616962  0  2.168558  0  0  -0.332544  -0.573011  0  2.182224  0
O  O115  1  0.52820686  0.32986326  0.73415604  1  0  -0.640965  0  1.93372  0  0  -0.591133  0  2.177198  0  0  -0.616942  0  2.168723  0  0  -0.332507  -0.572974  0  2.182355  0
O  O116  1  0.31748824  0.78247426  0.32455455  1  0  -0.656481  0  1.995254  0  0  -0.586783  0  2.246308  0  0  -0.617209  0  2.235851  0  0  -0.340667  -0.565258  0  2.252416  0
O  O117  1  0.68251274  0.21752663  0.67544273  1  0  -0.656522  0  1.995251  0  0  -0.586811  0  2.246282  0  0  -0.617254  0  2.235862  0  0  -0.340688  -0.565293  0  2.252407  0
