# generated using pymatgen
data_CdH22C28(N5O2)2
_symmetry_space_group_name_H-M   'P 1'
_cell_length_a   6.94631737
_cell_length_b   12.77386754
_cell_length_c   15.85632145
_cell_angle_alpha   98.48490084
_cell_angle_beta   100.18126802
_cell_angle_gamma   103.05800246
_symmetry_Int_Tables_number   1
_chemical_formula_structural   CdH22C28(N5O2)2
_chemical_formula_sum   'Cd2 H44 C56 N20 O8'
_cell_volume   1322.94784668
_cell_formula_units_Z   2
loop_
 _symmetry_equiv_pos_site_id
 _symmetry_equiv_pos_as_xyz
  1  'x, y, z'
loop_
 _atom_site_type_symbol
 _atom_site_label
 _atom_site_symmetry_multiplicity
 _atom_site_fract_x
 _atom_site_fract_y
 _atom_site_fract_z
 _atom_site_occupancy
 _atom_site_hle17_bader_spin_density
 _atom_site_hle17_ddec_charge
 _atom_site_hle17_ddec_spin_density
 _atom_site_hle17_ddec_sum_bond_order
 _atom_site_hle17_magmom
 _atom_site_hse06_10hf_bader_spin_density
 _atom_site_hse06_10hf_ddec_charge
 _atom_site_hse06_10hf_ddec_spin_density
 _atom_site_hse06_10hf_ddec_sum_bond_order
 _atom_site_hse06_10hf_magmom
 _atom_site_hse06_bader_spin_density
 _atom_site_hse06_ddec_charge
 _atom_site_hse06_ddec_spin_density
 _atom_site_hse06_ddec_sum_bond_order
 _atom_site_hse06_magmom
 _atom_site_pbe_bader_spin_density
 _atom_site_pbe_cm5_charge
 _atom_site_pbe_ddec_charge
 _atom_site_pbe_ddec_spin_density
 _atom_site_pbe_ddec_sum_bond_order
 _atom_site_pbe_magmom
Cd  Cd0  1  0.22250459  0.71220786  0.25029716  1  0  1.075453  0  1.690717  0  0  0.886331  0  2.126249  0  0  0.945435  0  2.075812  0  0  0.765055  0.844557  0  2.160564  0
Cd  Cd1  1  0.77749778  0.28778727  0.74970361  1  0  1.07541  0  1.690845  0  0  0.886257  0  2.126388  0  0  0.94536  0  2.075949  0  0  0.764998  0.84448  0  2.160696  0
H  H2  1  0.75291041  0.82693156  0.41792970  1  0  0.098189  0  0.970116  0  0  0.105652  0  1.035805  0  0  0.108663  0  1.034916  0  0  0.09911  0.103479  0  1.03656  0
H  H3  1  0.24706571  0.17305453  0.58206848  1  0  0.09819  0  0.970236  0  0  0.105692  0  1.035864  0  0  0.108714  0  1.034973  0  0  0.099171  0.103517  0  1.036619  0
H  H4  1  0.69252066  0.39027001  0.08123449  1  0  0.096607  0  0.959485  0  0  0.1055  0  1.023162  0  0  0.109333  0  1.020449  0  0  0.100366  0.102756  0  1.025182  0
H  H5  1  0.30747349  0.60974156  0.91876263  1  0  0.09665  0  0.959496  0  0  0.105473  0  1.023229  0  0  0.109305  0  1.02052  0  0  0.100386  0.102729  0  1.025245  0
H  H6  1  0.64768172  0.69996629  0.01765460  1  0  0.095491  0  0.974254  0  0  0.101801  0  1.041502  0  0  0.105214  0  1.039858  0  0  0.098797  0.099353  0  1.042736  0
H  H7  1  0.35232047  0.30004367  0.98234108  1  0  0.095367  0  0.974304  0  0  0.101682  0  1.041544  0  0  0.105092  0  1.039907  0  0  0.098781  0.099231  0  1.042781  0
H  H8  1  0.57134601  0.55586392  0.22211782  1  0  0.098685  0  0.936443  0  0  0.10816  0  1.000337  0  0  0.109805  0  0.998751  0  0  0.139773  0.106849  0  1.001574  0
H  H9  1  0.42866781  0.44413693  0.77788710  1  0  0.098838  0  0.936354  0  0  0.108253  0  1.000314  0  0  0.109899  0  0.998728  0  0  0.139802  0.106953  0  1.001536  0
H  H10  1  0.39921044  0.67462146  0.45284076  1  0  0.108831  0  0.984289  0  0  0.112561  0  1.052031  0  0  0.115182  0  1.050976  0  0  0.116396  0.110591  0  1.052975  0
H  H11  1  0.60078247  0.32536623  0.54716337  1  0  0.108718  0  0.984388  0  0  0.112522  0  1.052056  0  0  0.115137  0  1.051009  0  0  0.116382  0.110552  0  1.053001  0
H  H12  1  0.70967329  0.57061920  0.49483147  1  0  0.115285  0  0.968648  0  0  0.120169  0  1.040197  0  0  0.12296  0  1.038546  0  0  0.123659  0.118144  0  1.041468  0
H  H13  1  0.29032121  0.42937180  0.50517131  1  0  0.115295  0  0.96852  0  0  0.120168  0  1.040111  0  0  0.122963  0  1.038448  0  0  0.123651  0.118141  0  1.041385  0
H  H14  1  0.87032794  0.48981125  0.28168951  1  0  0.111495  0  0.939185  0  0  0.119457  0  1.006679  0  0  0.121488  0  1.004813  0  0  0.133861  0.117859  0  1.008157  0
H  H15  1  0.12968266  0.51019205  0.71831546  1  0  0.111633  0  0.939277  0  0  0.119547  0  1.006764  0  0  0.121576  0  1.004903  0  0  0.133891  0.117945  0  1.00824  0
H  H16  1  0.97937518  0.53954992  0.39651215  1  0  0.100985  0  0.923275  0  0  0.103453  0  1.001872  0  0  0.105227  0  0.999232  0  0  0.135838  0.102005  0  1.003937  0
H  H17  1  0.02063689  0.46045338  0.60349293  1  0  0.100929  0  0.923276  0  0  0.103429  0  1.0018  0  0  0.105207  0  0.999145  0  0  0.135818  0.101978  0  1.003859  0
H  H18  1  0.58075912  0.31480062  0.18242596  1  0  0.103261  0  0.961221  0  0  0.113869  0  1.022308  0  0  0.116373  0  1.021595  0  0  0.103943  0.112035  0  1.022954  0
H  H19  1  0.41926481  0.68520601  0.81757733  1  0  0.103274  0  0.961303  0  0  0.113868  0  1.022403  0  0  0.116375  0  1.021684  0  0  0.103939  0.112035  0  1.023044  0
H  H20  1  0.40983761  0.11664075  0.12664786  1  0  0.083289  0  0.950823  0  0  0.095283  0  1.011662  0  0  0.097535  0  1.010735  0  0  0.097844  0.093625  0  1.012421  0
H  H21  1  0.59018018  0.88336833  0.87335462  1  0  0.083346  0  0.950788  0  0  0.095332  0  1.011621  0  0  0.09755  0  1.010746  0  0  0.097856  0.09367  0  1.012385  0
H  H22  1  0.41364407  0.98162726  0.22294283  1  0  0.084352  0  0.98987  0  0  0.093559  0  1.056368  0  0  0.095384  0  1.057215  0  0  0.094891  0.092252  0  1.055871  0
H  H23  1  0.58635933  0.01837611  0.77705527  1  0  0.084426  0  0.989759  0  0  0.093566  0  1.056327  0  0  0.095393  0  1.057171  0  0  0.094869  0.092258  0  1.05583  0
H  H24  1  0.58637677  0.03691880  0.37917681  1  0  0.119469  0  0.963415  0  0  0.127786  0  1.026222  0  0  0.130357  0  1.024982  0  0  0.108302  0.125874  0  1.027208  0
H  H25  1  0.41362209  0.96308126  0.62082366  1  0  0.119489  0  0.963426  0  0  0.127799  0  1.026243  0  0  0.130372  0  1.025001  0  0  0.108307  0.125888  0  1.027231  0
H  H26  1  0.21697692  0.79379245  0.05946553  1  0  0.115526  0  1.001437  0  0  0.114924  0  1.076542  0  0  0.118442  0  1.073922  0  0  0.115353  0.112325  0  1.078579  0
H  H27  1  0.78301761  0.20621085  0.94053690  1  0  0.115537  0  1.00134  0  0  0.114936  0  1.076443  0  0  0.118453  0  1.073825  0  0  0.115366  0.112338  0  1.078481  0
H  H28  1  0.55217582  0.92138387  0.01491358  1  0  0.108249  0  0.976659  0  0  0.114112  0  1.048048  0  0  0.117201  0  1.045857  0  0  0.119838  0.11187  0  1.049736  0
H  H29  1  0.44781659  0.07862108  0.98508762  1  0  0.108284  0  0.976611  0  0  0.114132  0  1.048016  0  0  0.117221  0  1.045827  0  0  0.119858  0.111891  0  1.049706  0
H  H30  1  0.74377254  0.81459519  0.24902528  1  0  0.109132  0  0.963323  0  0  0.114217  0  1.033753  0  0  0.117285  0  1.03051  0  0  0.133318  0.1119  0  1.036142  0
H  H31  1  0.25622999  0.18540327  0.75097214  1  0  0.109234  0  0.963445  0  0  0.114316  0  1.03386  0  0  0.117386  0  1.030613  0  0  0.133346  0.111994  0  1.036256  0
H  H32  1  0.08824911  0.07537766  0.32541221  1  0  0.10721  0  0.965319  0  0  0.115302  0  1.028556  0  0  0.117272  0  1.029229  0  0  0.104383  0.113865  0  1.028187  0
H  H33  1  0.91174568  0.92461995  0.67458637  1  0  0.107236  0  0.965217  0  0  0.115299  0  1.028477  0  0  0.117268  0  1.029153  0  0  0.104379  0.113862  0  1.028107  0
H  H34  1  0.23589185  0.26153026  0.41393229  1  0  0.086179  0  0.960169  0  0  0.098714  0  1.021263  0  0  0.100181  0  1.021868  0  0  0.09957  0.097617  0  1.020959  0
H  H35  1  0.76410907  0.73846489  0.58606711  1  0  0.086201  0  0.960127  0  0  0.098735  0  1.021219  0  0  0.100201  0  1.021825  0  0  0.099583  0.097637  0  1.020918  0
H  H36  1  0.25874668  0.42686285  0.34748790  1  0  0.076728  0  0.990509  0  0  0.085797  0  1.059364  0  0  0.087379  0  1.060612  0  0  0.090954  0.084653  0  1.058607  0
H  H37  1  0.74126189  0.57313309  0.65251536  1  0  0.076667  0  0.990569  0  0  0.085725  0  1.059448  0  0  0.087311  0  1.060673  0  0  0.090926  0.084583  0  1.058689  0
H  H38  1  0.12399461  0.41078661  0.18748052  1  0  0.124737  0  0.953136  0  0  0.133718  0  1.013041  0  0  0.137152  0  1.010609  0  0  0.107518  0.131222  0  1.014831  0
H  H39  1  0.87600969  0.58921261  0.81252154  1  0  0.124763  0  0.953043  0  0  0.133728  0  1.012969  0  0  0.137164  0  1.010536  0  0  0.107527  0.131233  0  1.014757  0
H  H40  1  0.01306033  0.92177439  0.18933223  1  0  0.103013  0  0.896172  0  0  0.119255  0  0.952376  0  0  0.120247  0  0.951033  0  0  0.142132  0.118429  0  0.953459  0
H  H41  1  0.98693737  0.07822321  0.81066721  1  0  0.10305  0  0.896177  0  0  0.119239  0  0.952395  0  0  0.120231  0  0.951052  0  0  0.142137  0.118417  0  0.953479  0
H  H42  1  0.95224497  0.90021188  0.07301395  1  0  0.102064  0  0.929777  0  0  0.105178  0  1.007111  0  0  0.106679  0  1.004653  0  0  0.135235  0.103916  0  1.009114  0
H  H43  1  0.04774846  0.09978901  0.92698430  1  0  0.102118  0  0.929732  0  0  0.105217  0  1.00704  0  0  0.106717  0  1.004582  0  0  0.135263  0.103959  0  1.009045  0
H  H44  1  0.64758093  0.95679959  0.52281188  1  0  0.104495  0  0.951274  0  0  0.112985  0  1.015667  0  0  0.116684  0  1.013013  0  0  0.104795  0.110289  0  1.017715  0
H  H45  1  0.35240048  0.04319144  0.47718607  1  0  0.104359  0  0.951232  0  0  0.112803  0  1.015699  0  0  0.116496  0  1.013062  0  0  0.104719  0.110107  0  1.017748  0
C  C46  1  0.86048800  0.90292726  0.45400753  1  0  -0.070873  0  3.722277  0  0  -0.09262  0  3.969096  0  0  -0.093435  0  3.988857  0  0  -0.083113  -0.091929  0  3.955646  0
C  C47  1  0.13948745  0.09706049  0.54598954  1  0  -0.070933  0  3.722876  0  0  -0.092759  0  3.96973  0  0  -0.093595  0  3.98949  0  0  -0.083161  -0.092077  0  3.956258  0
C  C48  1  0.05891054  0.92680969  0.44063822  1  0  -0.054695  0  3.754948  0  0  -0.033901  0  3.989546  0  0  -0.040335  0  4.010945  0  0  -0.017468  -0.029735  0  3.975087  0
C  C49  1  0.94106762  0.07318056  0.55935560  1  0  -0.054454  0  3.755125  0  0  -0.03361  0  3.989711  0  0  -0.040042  0  4.011114  0  0  -0.017303  -0.029402  0  3.975193  0
C  C50  1  0.12030506  0.84906797  0.37651762  1  0  0.612493  0  3.961281  0  0  0.561975  0  4.259677  0  0  0.596821  0  4.252489  0  0  0.182968  0.53844  0  4.263564  0
C  C51  1  0.87967397  0.15092720  0.62347687  1  0  0.612771  0  3.961249  0  0  0.562238  0  4.259665  0  0  0.597084  0  4.252476  0  0  0.183103  0.538688  0  4.26355  0
C  C52  1  0.88387849  0.60744437  0.12045532  1  0  0.627329  0  3.932121  0  0  0.581184  0  4.215961  0  0  0.61565  0  4.209704  0  0  0.190416  0.557883  0  4.219263  0
C  C53  1  0.11611770  0.39256228  0.87954198  1  0  0.627561  0  3.931912  0  0  0.581385  0  4.215811  0  0  0.615851  0  4.209552  0  0  0.190568  0.558082  0  4.219114  0
C  C54  1  0.68822634  0.55105147  0.05671208  1  0  -0.05449  0  3.75634  0  0  -0.030046  0  3.983383  0  0  -0.03688  0  4.005764  0  0  -0.016504  -0.025618  0  3.968278  0
C  C55  1  0.31177181  0.44895929  0.94328526  1  0  -0.054185  0  3.755946  0  0  -0.029788  0  3.983017  0  0  -0.03662  0  4.005394  0  0  -0.016536  -0.025357  0  3.96791  0
C  C56  1  0.60576624  0.43788516  0.04627327  1  0  -0.082209  0  3.744236  0  0  -0.103292  0  3.989906  0  0  -0.104505  0  4.009892  0  0  -0.086685  -0.102364  0  3.976318  0
C  C57  1  0.39424445  0.56212406  0.95371731  1  0  -0.082471  0  3.744429  0  0  -0.103441  0  3.99008  0  0  -0.104654  0  4.010066  0  0  -0.086694  -0.102512  0  3.97649  0
C  C58  1  0.58152956  0.61243487  0.00943196  1  0  -0.067734  0  3.738858  0  0  -0.090697  0  3.986272  0  0  -0.09157  0  4.007265  0  0  -0.088044  -0.089981  0  3.971971  0
C  C59  1  0.41847411  0.38757511  0.99056257  1  0  -0.067717  0  3.738563  0  0  -0.090654  0  3.986019  0  0  -0.091525  0  4.007011  0  0  -0.08801  -0.089937  0  3.971719  0
C  C60  1  0.56166357  0.57401296  0.29004619  1  0  0.192119  0  3.636767  0  0  0.129474  0  3.906498  0  0  0.144839  0  3.918539  0  0  0.154854  0.119513  0  3.898093  0
C  C61  1  0.43834506  0.42598623  0.70995937  1  0  0.191931  0  3.636728  0  0  0.129297  0  3.906519  0  0  0.14466  0  3.918565  0  0  0.154783  0.119331  0  3.898107  0
C  C62  1  0.47905609  0.63310630  0.41152046  1  0  -0.005735  0  3.750777  0  0  -0.033704  0  4.012171  0  0  -0.031684  0  4.031119  0  0  -0.002208  -0.035062  0  3.999509  0
C  C63  1  0.52093253  0.36688467  0.58848310  1  0  -0.005398  0  3.750821  0  0  -0.03344  0  4.012231  0  0  -0.031415  0  4.031185  0  0  -0.002101  -0.034796  0  3.999569  0
C  C64  1  0.63107258  0.58300792  0.43330258  1  0  -0.05443  0  3.66286  0  0  -0.098364  0  3.928697  0  0  -0.095971  0  3.945785  0  0  0.00547  -0.099963  0  3.917359  0
C  C65  1  0.36892743  0.41698550  0.56670347  1  0  -0.054539  0  3.663013  0  0  -0.098487  0  3.928897  0  0  -0.096088  0  3.945978  0  0  0.005447  -0.100081  0  3.917549  0
C  C66  1  0.84283199  0.49218959  0.34799631  1  0  0.07987  0  3.602667  0  0  0.003669  0  3.847091  0  0  0.012961  0  3.854342  0  0  0.067474  -0.002438  0  3.842219  0
C  C67  1  0.15718191  0.50781452  0.65200966  1  0  0.079749  0  3.602878  0  0  0.00365  0  3.847129  0  0  0.012945  0  3.854383  0  0  0.067565  -0.002473  0  3.842312  0
C  C68  1  0.68378726  0.28567405  0.31322640  1  0  0.102924  0  3.802938  0  0  0.085999  0  4.048171  0  0  0.091417  0  4.070668  0  0  0.103667  0.082478  0  4.033048  0
C  C69  1  0.31622737  0.71432845  0.68677753  1  0  0.103191  0  3.80265  0  0  0.086256  0  4.047896  0  0  0.091676  0  4.070393  0  0  0.103834  0.082734  0  4.032771  0
C  C70  1  0.58523783  0.25540355  0.22489282  1  0  -0.141549  0  3.749116  0  0  -0.157606  0  4.005149  0  0  -0.16231  0  4.026311  0  0  -0.091658  -0.154477  0  3.990851  0
C  C71  1  0.41476959  0.74460223  0.77511032  1  0  -0.141696  0  3.749404  0  0  -0.157746  0  4.005445  0  0  -0.162446  0  4.026593  0  0  -0.091725  -0.154614  0  3.991141  0
C  C72  1  0.49093426  0.14474896  0.19465258  1  0  -0.046394  0  3.75562  0  0  -0.068509  0  4.018028  0  0  -0.068016  0  4.039271  0  0  -0.091291  -0.068619  0  4.003528  0
C  C73  1  0.50907532  0.85525519  0.80534990  1  0  -0.046401  0  3.755792  0  0  -0.0685  0  4.018153  0  0  -0.067987  0  4.039413  0  0  -0.091314  -0.068608  0  4.003646  0
C  C74  1  0.49250419  0.06714658  0.24973138  1  0  -0.082441  0  3.772811  0  0  -0.1039  0  4.038178  0  0  -0.107978  0  4.061387  0  0  -0.100735  -0.101243  0  4.022467  0
C  C75  1  0.50749771  0.93285677  0.75026849  1  0  -0.082512  0  3.77287  0  0  -0.103914  0  4.03824  0  0  -0.10799  0  4.061437  0  0  -0.100697  -0.101255  0  4.022525  0
C  C76  1  0.58881438  0.09720380  0.33725780  1  0  -0.106802  0  3.70138  0  0  -0.126846  0  3.948384  0  0  -0.127072  0  3.967925  0  0  -0.08187  -0.126479  0  3.935215  0
C  C77  1  0.41119221  0.90279709  0.66274213  1  0  -0.106844  0  3.701491  0  0  -0.126892  0  3.948493  0  0  -0.12712  0  3.968035  0  0  -0.081919  -0.126529  0  3.935323  0
C  C78  1  0.68584889  0.20863242  0.36887747  1  0  0.097449  0  3.830889  0  0  0.105331  0  4.077052  0  0  0.103605  0  4.100276  0  0  0.090577  0.106172  0  4.061524  0
C  C79  1  0.31416168  0.79136766  0.63112332  1  0  0.097285  0  3.830806  0  0  0.105165  0  4.076994  0  0  0.103441  0  4.100218  0  0  0.090554  0.106017  0  4.061451  0
C  C80  1  0.37493453  0.81905684  0.09303470  1  0  0.004045  0  3.746756  0  0  -0.027528  0  4.012332  0  0  -0.025274  0  4.032352  0  0  -0.002021  -0.028997  0  3.998856  0
C  C81  1  0.62506403  0.18094567  0.90696606  1  0  0.004052  0  3.746707  0  0  -0.027519  0  4.012288  0  0  -0.025263  0  4.032307  0  0  -0.002008  -0.028988  0  3.998812  0
C  C82  1  0.53842934  0.88067618  0.06957338  1  0  -0.069175  0  3.677412  0  0  -0.112437  0  3.943942  0  0  -0.111831  0  3.962563  0  0  -0.00447  -0.112801  0  3.931467  0
C  C83  1  0.46156376  0.11932714  0.93042705  1  0  -0.069282  0  3.677429  0  0  -0.112538  0  3.94398  0  0  -0.11193  0  3.962596  0  0  -0.004484  -0.112901  0  3.931503  0
C  C84  1  0.64154099  0.82755155  0.19330860  1  0  0.178562  0  3.63206  0  0  0.116121  0  3.902143  0  0  0.130695  0  3.914777  0  0  0.146827  0.106743  0  3.893256  0
C  C85  1  0.35845286  0.17245018  0.80668790  1  0  0.178375  0  3.631954  0  0  0.115961  0  3.902008  0  0  0.130533  0  3.914641  0  0  0.146789  0.106584  0  3.893117  0
C  C86  1  0.02869032  0.13919600  0.20531116  1  0  0.098125  0  3.816405  0  0  0.080911  0  4.062217  0  0  0.086161  0  4.084458  0  0  0.103362  0.077493  0  4.047268  0
C  C87  1  0.97130487  0.86080244  0.79468693  1  0  0.098245  0  3.816175  0  0  0.081022  0  4.06201  0  0  0.086274  0  4.08425  0  0  0.103406  0.077606  0  4.047058  0
C  C88  1  0.09703250  0.14683390  0.29496554  1  0  -0.13622  0  3.751838  0  0  -0.148788  0  4.002894  0  0  -0.153026  0  4.023892  0  0  -0.089517  -0.145988  0  3.98873  0
C  C89  1  0.90295967  0.85316126  0.70503190  1  0  -0.136228  0  3.751793  0  0  -0.148767  0  4.002853  0  0  -0.153006  0  4.023854  0  0  -0.089509  -0.145968  0  3.988689  0
C  C90  1  0.18027341  0.25202491  0.34385109  1  0  -0.043146  0  3.740464  0  0  -0.064879  0  3.99864  0  0  -0.064599  0  4.019915  0  0  -0.087896  -0.064916  0  3.9842  0
C  C91  1  0.81972614  0.74797351  0.65614861  1  0  -0.043211  0  3.740524  0  0  -0.06494  0  3.998694  0  0  -0.064658  0  4.01997  0  0  -0.087919  -0.064978  0  3.984257  0
C  C92  1  0.19235460  0.34621313  0.30573157  1  0  -0.086793  0  3.777206  0  0  -0.109469  0  4.046226  0  0  -0.113102  0  4.06943  0  0  -0.103917  -0.107061  0  4.030483  0
C  C93  1  0.80764564  0.65378365  0.69426798  1  0  -0.086775  0  3.777131  0  0  -0.109448  0  4.046154  0  0  -0.113076  0  4.069363  0  0  -0.103926  -0.10704  0  4.030411  0
C  C94  1  0.12060066  0.33874820  0.21704550  1  0  -0.12271  0  3.712493  0  0  -0.142853  0  3.962905  0  0  -0.143682  0  3.982033  0  0  -0.086171  -0.142045  0  3.94989  0
C  C95  1  0.87939819  0.66125184  0.78295561  1  0  -0.122726  0  3.71239  0  0  -0.142845  0  3.962804  0  0  -0.143672  0  3.981928  0  0  -0.086158  -0.142035  0  3.949786  0
C  C96  1  0.03829727  0.23270195  0.16666472  1  0  0.098514  0  3.849745  0  0  0.103623  0  4.099878  0  0  0.102107  0  4.123058  0  0  0.088353  0.104358  0  4.084346  0
C  C97  1  0.96170413  0.76729730  0.83333523  1  0  0.098485  0  3.84972  0  0  0.103579  0  4.099873  0  0  0.102063  0  4.123054  0  0  0.088355  0.104313  0  4.08434  0
C  C98  1  0.91456709  0.93672764  0.13292383  1  0  0.099087  0  3.6102  0  0  0.020421  0  3.856967  0  0  0.031045  0  3.86292  0  0  0.071335  0.013239  0  3.853288  0
C  C99  1  0.08543035  0.06327245  0.86707401  1  0  0.098888  0  3.610278  0  0  0.02036  0  3.856882  0  0  0.030982  0  3.862837  0  0  0.071298  0.013157  0  3.85324  0
C  C100  1  0.80201178  0.97530722  0.51281773  1  0  -0.078464  0  3.728347  0  0  -0.098043  0  3.973275  0  0  -0.098368  0  3.991636  0  0  -0.084014  -0.097711  0  3.96083  0
C  C101  1  0.19796738  0.02468217  0.48717984  1  0  -0.078207  0  3.728381  0  0  -0.097702  0  3.9733  0  0  -0.098029  0  3.991667  0  0  -0.083904  -0.09736  0  3.960868  0
N  N102  1  0.43724168  0.62662863  0.32189676  1  0  -0.390011  0  3.249418  0  0  -0.311377  0  3.532053  0  0  -0.333512  0  3.54793  0  0  -0.357562  -0.296261  0  3.520813  0
N  N103  1  0.56276619  0.37336894  0.67810728  1  0  -0.390173  0  3.249389  0  0  -0.311511  0  3.532038  0  0  -0.333646  0  3.547914  0  0  -0.357662  -0.296395  0  3.520796  0
N  N104  1  0.68134951  0.54618293  0.35579798  1  0  -0.068951  0  3.555414  0  0  0.019274  0  3.781309  0  0  0.004317  0  3.80574  0  0  -0.23897  0.029144  0  3.764693  0
N  N105  1  0.31865543  0.45381463  0.64420582  1  0  -0.068873  0  3.555502  0  0  0.019352  0  3.781352  0  0  0.00439  0  3.805797  0  0  -0.238979  0.029217  0  3.764733  0
N  N106  1  0.79389260  0.38302179  0.36638268  1  0  -0.04642  0  3.53046  0  0  0.034123  0  3.763454  0  0  0.01967  0  3.788895  0  0  -0.142684  0.043676  0  3.746171  0
N  N107  1  0.20612419  0.61697908  0.63362059  1  0  -0.046524  0  3.530249  0  0  0.033995  0  3.763249  0  0  0.019536  0  3.788696  0  0  -0.142833  0.043545  0  3.745962  0
N  N108  1  0.85819480  0.36688713  0.44929389  1  0  -0.101199  0  2.913316  0  0  -0.102443  0  3.216773  0  0  -0.09812  0  3.225309  0  0  -0.081919  -0.105039  0  3.210817  0
N  N109  1  0.14181904  0.63311373  0.55070978  1  0  -0.101122  0  2.913246  0  0  -0.102375  0  3.216726  0  0  -0.098049  0  3.225262  0  0  -0.081861  -0.104971  0  3.210778  0
N  N110  1  0.79451544  0.26358006  0.45122458  1  0  -0.208221  0  2.959204  0  0  -0.19606  0  3.249528  0  0  -0.199435  0  3.260394  0  0  -0.187029  -0.193349  0  3.241943  0
N  N111  1  0.20549511  0.73641999  0.54877746  1  0  -0.20812  0  2.959086  0  0  -0.195933  0  3.249381  0  0  -0.199311  0  3.26025  0  0  -0.187022  -0.193226  0  3.241797  0
N  N112  1  0.44144109  0.78679622  0.17018449  1  0  -0.399925  0  3.261893  0  0  -0.32009  0  3.541989  0  0  -0.342969  0  3.559566  0  0  -0.364128  -0.304475  0  3.529551  0
N  N113  1  0.55856003  0.21320548  0.82981574  1  0  -0.399945  0  3.261763  0  0  -0.320125  0  3.54186  0  0  -0.343005  0  3.559437  0  0  -0.364144  -0.304508  0  3.529417  0
N  N114  1  0.70558793  0.88549120  0.13370024  1  0  -0.082274  0  3.573681  0  0  0.007242  0  3.800256  0  0  -0.007727  0  3.824957  0  0  -0.241379  0.017169  0  3.783405  0
N  N115  1  0.29440842  0.11450968  0.86629888  1  0  -0.082038  0  3.573506  0  0  0.007432  0  3.800029  0  0  -0.007535  0  3.824729  0  0  -0.241404  0.017365  0  3.783181  0
N  N116  1  0.95026260  0.05316795  0.13600189  1  0  -0.044294  0  3.524187  0  0  0.03462  0  3.761424  0  0  0.020422  0  3.78586  0  0  -0.142029  0.044009  0  3.744833  0
N  N117  1  0.04973192  0.94683213  0.86399572  1  0  -0.044334  0  3.524146  0  0  0.034554  0  3.761355  0  0  0.020356  0  3.785791  0  0  -0.142043  0.04395  0  3.744767  0
N  N118  1  0.91137318  0.09128966  0.05995264  1  0  -0.09591  0  2.901434  0  0  -0.100429  0  3.203681  0  0  -0.09623  0  3.212674  0  0  -0.082273  -0.102964  0  3.197423  0
N  N119  1  0.08862503  0.90871206  0.94004610  1  0  -0.095759  0  2.901379  0  0  -0.100291  0  3.203655  0  0  -0.096093  0  3.212648  0  0  -0.082177  -0.102829  0  3.197398  0
N  N120  1  0.96285579  0.19790887  0.07784550  1  0  -0.210455  0  2.957019  0  0  -0.194846  0  3.243258  0  0  -0.197721  0  3.252934  0  0  -0.187591  -0.192467  0  3.236481  0
N  N121  1  0.03714970  0.80209283  0.92215571  1  0  -0.210541  0  2.957028  0  0  -0.194925  0  3.243274  0  0  -0.197799  0  3.252947  0  0  -0.187659  -0.192547  0  3.2365  0
O  O122  1  0.30234943  0.87129833  0.36626414  1  0  -0.634624  0  1.929434  0  0  -0.571757  0  2.167359  0  0  -0.600019  0  2.158606  0  0  -0.333962  -0.551907  0  2.17256  0
O  O123  1  0.69763274  0.12870341  0.63373017  1  0  -0.634709  0  1.929467  0  0  -0.571815  0  2.167341  0  0  -0.600077  0  2.158584  0  0  -0.333929  -0.55197  0  2.172548  0
O  O124  1  0.98596070  0.76369653  0.33162741  1  0  -0.644093  0  1.956318  0  0  -0.583649  0  2.199173  0  0  -0.611909  0  2.190112  0  0  -0.337098  -0.563845  0  2.204618  0
O  O125  1  0.01402787  0.23629118  0.66837386  1  0  -0.644265  0  1.95639  0  0  -0.583818  0  2.199259  0  0  -0.612078  0  2.190198  0  0  -0.337221  -0.564012  0  2.204707  0
O  O126  1  0.95953570  0.70881862  0.12443153  1  0  -0.629606  0  1.984209  0  0  -0.570629  0  2.229126  0  0  -0.59871  0  2.22111  0  0  -0.32404  -0.55093  0  2.233854  0
O  O127  1  0.04046868  0.29119295  0.87556767  1  0  -0.629786  0  1.984177  0  0  -0.570744  0  2.229058  0  0  -0.59882  0  2.22104  0  0  -0.324117  -0.551047  0  2.233788  0
O  O128  1  0.96481503  0.55212194  0.17124673  1  0  -0.659554  0  1.96358  0  0  -0.597185  0  2.203445  0  0  -0.625395  0  2.192703  0  0  -0.338102  -0.577315  0  2.209987  0
O  O129  1  0.03518599  0.44788235  0.82874309  1  0  -0.659623  0  1.963624  0  0  -0.597242  0  2.203494  0  0  -0.625458  0  2.192759  0  0  -0.338121  -0.577371  0  2.210037  0
