# generated using pymatgen
data_KBH27C27N9O
_symmetry_space_group_name_H-M   'P 1'
_cell_length_a   8.80295974
_cell_length_b   11.70976730
_cell_length_c   13.24580118
_cell_angle_alpha   75.29827704
_cell_angle_beta   83.28483100
_cell_angle_gamma   88.28290100
_symmetry_Int_Tables_number   1
_chemical_formula_structural   KBH27C27N9O
_chemical_formula_sum   'K2 B2 H54 C54 N18 O2'
_cell_volume   1311.62241581
_cell_formula_units_Z   2
loop_
 _symmetry_equiv_pos_site_id
 _symmetry_equiv_pos_as_xyz
  1  'x, y, z'
loop_
 _atom_site_type_symbol
 _atom_site_label
 _atom_site_symmetry_multiplicity
 _atom_site_fract_x
 _atom_site_fract_y
 _atom_site_fract_z
 _atom_site_occupancy
 _atom_site_hle17_bader_spin_density
 _atom_site_hle17_ddec_charge
 _atom_site_hle17_ddec_spin_density
 _atom_site_hle17_ddec_sum_bond_order
 _atom_site_hle17_magmom
 _atom_site_hse06_10hf_bader_spin_density
 _atom_site_hse06_10hf_ddec_charge
 _atom_site_hse06_10hf_ddec_spin_density
 _atom_site_hse06_10hf_ddec_sum_bond_order
 _atom_site_hse06_10hf_magmom
 _atom_site_hse06_bader_spin_density
 _atom_site_hse06_ddec_charge
 _atom_site_hse06_ddec_spin_density
 _atom_site_hse06_ddec_sum_bond_order
 _atom_site_hse06_magmom
 _atom_site_pbe_bader_spin_density
 _atom_site_pbe_cm5_charge
 _atom_site_pbe_ddec_charge
 _atom_site_pbe_ddec_spin_density
 _atom_site_pbe_ddec_sum_bond_order
 _atom_site_pbe_magmom
K  K0  1  0.11882805  0.77694987  0.62268138  1  0  0.884182  0  0.454928  0  0  0.80142  0  0.658673  0  0  0.817573  0  0.638295  0  0  0.798069  0.790615  0  0.671605  0
K  K1  1  0.88117173  0.22304961  0.37731904  1  0  0.884175  0  0.454947  0  0  0.80141  0  0.658696  0  0  0.817562  0  0.638316  0  0  0.798058  0.790599  0  0.671627  0
B  B2  1  0.31349993  0.58769396  0.83805310  1  0  0.510524  0  3.1631  0  0  0.330262  0  3.476049  0  0  0.350975  0  3.475241  0  0  -0.065108  0.316067  0  3.477297  0
B  B3  1  0.68649871  0.41230552  0.16194741  1  0  0.510437  0  3.163025  0  0  0.330174  0  3.476033  0  0  0.350885  0  3.475228  0  0  -0.06513  0.315976  0  3.477283  0
H  H4  1  0.11845468  0.90778000  0.35443746  1  0  0.38631  0  0.923558  0  0  0.34862  0  1.007593  0  0  0.359505  0  0.99169  0  0  0.278637  0.341044  0  1.018518  0
H  H5  1  0.88154512  0.09222125  0.64556332  1  0  0.386298  0  0.923554  0  0  0.348615  0  1.00759  0  0  0.3595  0  0.991688  0  0  0.278635  0.341037  0  1.01852  0
H  H6  1  0.96987787  0.95178782  0.40733652  1  0  0.371108  0  0.95681  0  0  0.337691  0  1.031087  0  0  0.347357  0  1.016907  0  0  0.277435  0.331232  0  1.040578  0
H  H7  1  0.03012078  0.04821343  0.59266359  1  0  0.37114  0  0.95677  0  0  0.337725  0  1.031038  0  0  0.347393  0  1.016856  0  0  0.27745  0.331265  0  1.040534  0
H  H8  1  0.69246503  0.88205887  0.71163557  1  0  0.124222  0  0.984012  0  0  0.133556  0  1.04754  0  0  0.136207  0  1.047854  0  0  0.102655  0.131708  0  1.047237  0
H  H9  1  0.30753704  0.11793796  0.28836525  1  0  0.124205  0  0.984027  0  0  0.133541  0  1.047555  0  0  0.136206  0  1.047853  0  0  0.102639  0.131691  0  1.047254  0
H  H10  1  0.62898737  0.78640102  0.92379528  1  0  0.110468  0  0.966737  0  0  0.131947  0  1.025912  0  0  0.132267  0  1.027661  0  0  0.090365  0.13142  0  1.024962  0
H  H11  1  0.37101355  0.21359581  0.07620639  1  0  0.110507  0  0.966722  0  0  0.131945  0  1.025932  0  0  0.132265  0  1.027682  0  0  0.09037  0.131414  0  1.02499  0
H  H12  1  0.54258861  0.64389726  0.95709768  1  0  0.116579  0  0.971281  0  0  0.133184  0  1.041487  0  0  0.135158  0  1.040562  0  0  0.096996  0.131883  0  1.041902  0
H  H13  1  0.45741117  0.35610046  0.04290237  1  0  0.116622  0  0.971248  0  0  0.133204  0  1.041481  0  0  0.135178  0  1.040556  0  0  0.097001  0.131908  0  1.041889  0
H  H14  1  0.42600675  0.77031036  0.94887815  1  0  0.112861  0  0.948128  0  0  0.132466  0  1.010217  0  0  0.133826  0  1.010092  0  0  0.095256  0.131429  0  1.010396  0
H  H15  1  0.57399418  0.22968735  0.05112257  1  0  0.112801  0  0.948166  0  0  0.132441  0  1.010204  0  0  0.133802  0  1.010079  0  0  0.095249  0.131405  0  1.010387  0
H  H16  1  0.78142598  0.93930653  0.54373077  1  0  0.076306  0  0.980833  0  0  0.086328  0  1.045144  0  0  0.089592  0  1.042092  0  0  0.113479  0.084249  0  1.046478  0
H  H17  1  0.21857267  0.06069295  0.45627125  1  0  0.076323  0  0.980835  0  0  0.086331  0  1.045158  0  0  0.0896  0  1.042091  0  0  0.113471  0.084241  0  1.046497  0
H  H18  1  0.71962830  0.02237976  0.22945048  1  0  0.072258  0  0.942472  0  0  0.077326  0  1.014531  0  0  0.080356  0  1.011896  0  0  0.111428  0.074958  0  1.01675  0
H  H19  1  0.28037150  0.97762325  0.77054991  1  0  0.072338  0  0.942394  0  0  0.077408  0  1.014446  0  0  0.080439  0  1.01181  0  0  0.111459  0.075039  0  1.016666  0
H  H20  1  0.47906380  0.90130683  0.26639205  1  0  0.093177  0  0.961466  0  0  0.103981  0  1.02011  0  0  0.106964  0  1.01938  0  0  0.103251  0.101572  0  1.021342  0
H  H21  1  0.52093599  0.09869353  0.73360741  1  0  0.09312  0  0.961435  0  0  0.103923  0  1.02009  0  0  0.106905  0  1.019361  0  0  0.103218  0.101509  0  1.021327  0
H  H22  1  0.39266665  0.79002026  0.45056961  1  0  0.100089  0  0.979573  0  0  0.105173  0  1.050673  0  0  0.108999  0  1.047647  0  0  0.109402  0.102996  0  1.051556  0
H  H23  1  0.60733313  0.20998099  0.54942890  1  0  0.100097  0  0.979599  0  0  0.10518  0  1.050697  0  0  0.109007  0  1.047671  0  0  0.109396  0.103003  0  1.051584  0
H  H24  1  0.21537600  0.27873947  0.68380029  1  0  0.122041  0  0.983885  0  0  0.131463  0  1.047565  0  0  0.133674  0  1.048846  0  0  0.097147  0.129648  0  1.046795  0
H  H25  1  0.78462606  0.72126177  0.31619728  1  0  0.121985  0  0.983956  0  0  0.131411  0  1.047634  0  0  0.133621  0  1.048916  0  0  0.097142  0.129597  0  1.046862  0
H  H26  1  0.48997926  0.28472584  0.75790158  1  0  0.106665  0  0.966807  0  0  0.128829  0  1.027796  0  0  0.129337  0  1.028625  0  0  0.089869  0.127867  0  1.028443  0
H  H27  1  0.51002168  0.71527363  0.24210026  1  0  0.106649  0  0.966809  0  0  0.128794  0  1.027819  0  0  0.129302  0  1.028647  0  0  0.089861  0.127833  0  1.028464  0
H  H28  1  0.44496826  0.31891934  0.88160982  1  0  0.111981  0  0.964534  0  0  0.134133  0  1.026886  0  0  0.135337  0  1.026794  0  0  0.092927  0.133092  0  1.027209  0
H  H29  1  0.55502925  0.68108191  0.11839113  1  0  0.111984  0  0.964469  0  0  0.134134  0  1.026828  0  0  0.135339  0  1.026733  0  0  0.092914  0.133096  0  1.027147  0
H  H30  1  0.54421802  0.42265012  0.77490008  1  0  0.12059  0  0.954263  0  0  0.13986  0  1.015998  0  0  0.141325  0  1.016456  0  0  0.096242  0.139902  0  1.013902  0
H  H31  1  0.45578292  0.57735024  0.22510155  1  0  0.120575  0  0.954281  0  0  0.139845  0  1.016012  0  0  0.141311  0  1.016468  0  0  0.096245  0.139888  0  1.013915  0
H  H32  1  0.00746800  0.28346289  0.59316746  1  0  0.066551  0  0.956066  0  0  0.074755  0  1.023682  0  0  0.077934  0  1.020721  0  0  0.108783  0.072389  0  1.026169  0
H  H33  1  0.99253634  0.71654189  0.40682537  1  0  0.066613  0  0.955997  0  0  0.074822  0  1.023614  0  0  0.078002  0  1.02065  0  0  0.108811  0.072455  0  1.0261  0
H  H34  1  0.60817085  0.43319455  0.48481616  1  0  0.068968  0  0.951371  0  0  0.074279  0  1.023939  0  0  0.077217  0  1.02127  0  0  0.110456  0.071737  0  1.027038  0
H  H35  1  0.39182664  0.56680316  0.51518483  1  0  0.068975  0  0.951389  0  0  0.074299  0  1.023945  0  0  0.077241  0  1.021275  0  0  0.110456  0.071757  0  1.027045  0
H  H36  1  0.61813368  0.59380337  0.57972361  1  0  0.099827  0  0.987836  0  0  0.106112  0  1.054636  0  0  0.109153  0  1.054123  0  0  0.101608  0.103894  0  1.055314  0
H  H37  1  0.38186039  0.40619346  0.42028012  1  0  0.099885  0  0.987784  0  0  0.106162  0  1.054583  0  0  0.109202  0  1.05407  0  0  0.101647  0.103943  0  1.055261  0
H  H38  1  0.83878310  0.59895370  0.68056571  1  0  0.086025  0  0.961551  0  0  0.097597  0  1.024426  0  0  0.100883  0  1.022115  0  0  0.10873  0.095634  0  1.025125  0
H  H39  1  0.16121554  0.40104225  0.31943634  1  0  0.086034  0  0.961616  0  0  0.097612  0  1.024477  0  0  0.100898  0  1.022166  0  0  0.108737  0.095647  0  1.025174  0
H  H40  1  0.97490360  0.68444339  0.10848539  1  0  0.124116  0  0.999945  0  0  0.131251  0  1.067628  0  0  0.133867  0  1.068475  0  0  0.097475  0.129372  0  1.067031  0
H  H41  1  0.02509734  0.31555873  0.89151434  1  0  0.124122  0  0.999942  0  0  0.131251  0  1.06763  0  0  0.133867  0  1.068477  0  0  0.097477  0.129363  0  1.067047  0
H  H42  1  0.11829494  0.47251589  0.14770621  1  0  0.121929  0  0.9839  0  0  0.137362  0  1.052344  0  0  0.139275  0  1.0517  0  0  0.094449  0.135844  0  1.05307  0
H  H43  1  0.88170370  0.52748535  0.85229390  1  0  0.121903  0  0.983911  0  0  0.13732  0  1.052379  0  0  0.139232  0  1.051736  0  0  0.094425  0.135799  0  1.053106  0
H  H44  1  0.31226979  0.50518545  0.09248685  1  0  0.110052  0  0.953017  0  0  0.130797  0  1.016546  0  0  0.131886  0  1.016625  0  0  0.09091  0.130097  0  1.01621  0
H  H45  1  0.68772886  0.49481668  0.90751231  1  0  0.110047  0  0.95309  0  0  0.13079  0  1.016616  0  0  0.131879  0  1.016697  0  0  0.090904  0.130088  0  1.016287  0
H  H46  1  0.19460950  0.42219032  0.03696345  1  0  0.117944  0  0.957052  0  0  0.137572  0  1.019012  0  0  0.138851  0  1.019741  0  0  0.094649  0.13673  0  1.018224  0
H  H47  1  0.80538914  0.57781093  0.96303591  1  0  0.117941  0  0.957038  0  0  0.137563  0  1.019007  0  0  0.138845  0  1.019733  0  0  0.09464  0.136722  0  1.018215  0
H  H48  1  0.00638739  0.93788416  0.75311940  1  0  0.051345  0  1.004759  0  0  0.05512  0  1.084203  0  0  0.058891  0  1.079838  0  0  0.108322  0.052267  0  1.087623  0
H  H49  1  0.99361240  0.06211709  0.24688137  1  0  0.051327  0  1.004792  0  0  0.055107  0  1.084227  0  0  0.058878  0  1.079864  0  0  0.108313  0.052257  0  1.087641  0
H  H50  1  0.69491353  0.16874500  0.85370239  1  0  0.06973  0  0.942494  0  0  0.080844  0  1.004421  0  0  0.083665  0  1.002138  0  0  0.110109  0.078921  0  1.00594  0
H  H51  1  0.30508857  0.83125535  0.14630142  1  0  0.069692  0  0.942529  0  0  0.080807  0  1.004457  0  0  0.083624  0  1.002186  0  0  0.110116  0.078882  0  1.005977  0
H  H52  1  0.67479266  0.04395886  0.03867742  1  0  0.095307  0  0.958486  0  0  0.108354  0  1.014721  0  0  0.111427  0  1.013936  0  0  0.103745  0.106114  0  1.015637  0
H  H53  1  0.32520943  0.95604149  0.96132488  1  0  0.095308  0  0.958501  0  0  0.108389  0  1.014698  0  0  0.111463  0  1.013911  0  0  0.103768  0.10615  0  1.015611  0
H  H54  1  0.82880544  0.85795610  0.08022489  1  0  0.099704  0  0.936716  0  0  0.114336  0  0.991967  0  0  0.117257  0  0.99056  0  0  0.108152  0.112322  0  0.992774  0
H  H55  1  0.17119664  0.14204338  0.91977685  1  0  0.099665  0  0.936717  0  0  0.114311  0  0.991949  0  0  0.117231  0  0.990543  0  0  0.108132  0.112298  0  0.992758  0
H  H56  1  0.38998380  0.52529100  0.90069155  1  0  -0.220046  0  0.946404  0  0  -0.175011  0  1.041518  0  0  -0.180737  0  1.041649  0  0  0.062362  -0.171326  0  1.04164  0
H  H57  1  0.61001370  0.47470848  0.09930905  1  0  -0.220036  0  0.946391  0  0  -0.17501  0  1.041513  0  0  -0.180736  0  1.041642  0  0  0.062352  -0.171328  0  1.041635  0
C  C58  1  0.52363483  0.74668518  0.79977067  1  0  0.250231  0  3.735432  0  0  0.244242  0  3.988756  0  0  0.253278  0  4.008706  0  0  0.100279  0.237847  0  3.975617  0
C  C59  1  0.47636609  0.25331253  0.20022930  1  0  0.25028  0  3.735469  0  0  0.244292  0  3.988783  0  0  0.253313  0  4.008758  0  0  0.1003  0.237892  0  3.975646  0
C  C60  1  0.60445925  0.81912875  0.71174644  1  0  -0.333245  0  3.749261  0  0  -0.353765  0  4.000067  0  0  -0.365557  0  4.023294  0  0  -0.125222  -0.345753  0  3.983893  0
C  C61  1  0.39554167  0.18086985  0.28825332  1  0  -0.333235  0  3.749239  0  0  -0.353747  0  4.000027  0  0  -0.365546  0  4.023247  0  0  -0.125205  -0.345734  0  3.983854  0
C  C62  1  0.53992591  0.79774556  0.62521770  1  0  0.139702  0  3.890303  0  0  0.131037  0  4.155352  0  0  0.136741  0  4.177554  0  0  0.07862  0.127729  0  4.140067  0
C  C63  1  0.46007273  0.20225304  0.37478300  1  0  0.139683  0  3.890217  0  0  0.131026  0  4.155271  0  0  0.136729  0  4.177475  0  0  0.07862  0.127728  0  4.139979  0
C  C64  1  0.53138191  0.73632764  0.91328276  1  0  -0.356027  0  3.738365  0  0  -0.432634  0  3.973781  0  0  -0.434771  0  3.980822  0  0  -0.232783  -0.430802  0  3.969084  0
C  C65  1  0.46861902  0.26366919  0.08671815  1  0  -0.356041  0  3.738396  0  0  -0.432622  0  3.973808  0  0  -0.434756  0  3.980853  0  0  -0.232781  -0.430791  0  3.969122  0
C  C66  1  0.58105309  0.85387560  0.51410119  1  0  -0.003474  0  3.791427  0  0  0.018247  0  4.020753  0  0  0.014561  0  4.044173  0  0  0.002099  0.020055  0  4.005518  0
C  C67  1  0.41894555  0.14612565  0.48589892  1  0  -0.003349  0  3.791335  0  0  0.018345  0  4.020676  0  0  0.014659  0  4.044096  0  0  0.002103  0.020144  0  4.005445  0
C  C68  1  0.71207781  0.92522587  0.48473826  1  0  0.069856  0  3.705056  0  0  0.038256  0  3.948596  0  0  0.043056  0  3.965356  0  0  0.041817  0.035463  0  3.936425  0
C  C69  1  0.28791969  0.07477273  0.51526254  1  0  0.069744  0  3.705068  0  0  0.038153  0  3.948616  0  0  0.042955  0  3.965379  0  0  0.041788  0.035376  0  3.936441  0
C  C70  1  0.67844697  0.97229157  0.30890972  1  0  0.113487  0  3.739537  0  0  0.081778  0  4.002012  0  0  0.088667  0  4.017989  0  0  0.03735  0.077364  0  3.991574  0
C  C71  1  0.32155053  0.02770791  0.69109163  1  0  0.113283  0  3.739422  0  0  0.081585  0  4.001891  0  0  0.088472  0  4.01787  0  0  0.037282  0.077172  0  3.991455  0
C  C72  1  0.54535540  0.90452683  0.33015011  1  0  -0.118975  0  3.763639  0  0  -0.126334  0  4.011448  0  0  -0.132273  0  4.032006  0  0  -0.085836  -0.122994  0  3.99817  0
C  C73  1  0.45464439  0.09547530  0.66985047  1  0  -0.118808  0  3.763451  0  0  -0.126174  0  4.01125  0  0  -0.132111  0  4.031807  0  0  -0.085802  -0.122828  0  3.997967  0
C  C74  1  0.49640221  0.84354338  0.43311437  1  0  -0.049153  0  3.659531  0  0  -0.073445  0  3.903381  0  0  -0.071041  0  3.920486  0  0  -0.065421  -0.074678  0  3.890844  0
C  C75  1  0.50359757  0.15645610  0.56688529  1  0  -0.049252  0  3.659563  0  0  -0.07354  0  3.903418  0  0  -0.071136  0  3.920523  0  0  -0.065395  -0.074771  0  3.890884  0
C  C76  1  0.30518296  0.40481453  0.76129634  1  0  0.245338  0  3.739537  0  0  0.24102  0  3.994611  0  0  0.24965  0  4.015091  0  0  0.101128  0.23506  0  3.980279  0
C  C77  1  0.69481567  0.59518584  0.23870171  1  0  0.245173  0  3.739476  0  0  0.240866  0  3.994562  0  0  0.249492  0  4.015047  0  0  0.101063  0.234909  0  3.980228  0
C  C78  1  0.20256941  0.36005269  0.70897725  1  0  -0.335897  0  3.753678  0  0  -0.359623  0  4.010016  0  0  -0.370653  0  4.031725  0  0  -0.127773  -0.349254  0  3.99288  0
C  C79  1  0.79743151  0.63994856  0.29102042  1  0  -0.335819  0  3.753673  0  0  -0.359506  0  4.010043  0  0  -0.370535  0  4.031755  0  0  -0.127756  -0.349146  0  3.992902  0
C  C80  1  0.08254801  0.44385567  0.69505192  1  0  0.150109  0  3.881488  0  0  0.141192  0  4.145903  0  0  0.147754  0  4.166296  0  0  0.082925  0.137205  0  4.131161  0
C  C81  1  0.91745405  0.55614469  0.30494509  1  0  0.150125  0  3.881406  0  0  0.141096  0  4.145988  0  0  0.147657  0  4.16638  0  0  0.08292  0.137126  0  4.131222  0
C  C82  1  0.45385234  0.35543042  0.79607621  1  0  -0.353408  0  3.739281  0  0  -0.432629  0  3.97258  0  0  -0.434932  0  3.98082  0  0  -0.234626  -0.431527  0  3.966991  0
C  C83  1  0.54614516  0.64457083  0.20392399  1  0  -0.353312  0  3.73911  0  0  -0.432516  0  3.972424  0  0  -0.434817  0  3.980663  0  0  -0.234579  -0.431418  0  3.966829  0
C  C84  1  0.94550446  0.44321580  0.64295233  1  0  -0.005624  0  3.786907  0  0  0.015811  0  4.014898  0  0  0.01193  0  4.038714  0  0  4.9e-05  0.018782  0  3.997724  0
C  C85  1  0.05449988  0.55678279  0.35704565  1  0  -0.005627  0  3.786784  0  0  0.015808  0  4.014875  0  0  0.011926  0  4.038691  0  0  2.3e-05  0.018774  0  3.997697  0
C  C86  1  0.92408532  0.35474314  0.59146138  1  0  0.077517  0  3.718815  0  0  0.048674  0  3.968731  0  0  0.053435  0  3.985657  0  0  0.039277  0.045189  0  3.957773  0
C  C87  1  0.07591788  0.64525810  0.40853460  1  0  0.07739  0  3.718863  0  0  0.048532  0  3.968821  0  0  0.053297  0  3.985743  0  0  0.039226  0.045045  0  3.957865  0
C  C88  1  0.70043102  0.43729082  0.53215272  1  0  0.114014  0  3.74296  0  0  0.087392  0  4.002726  0  0  0.093137  0  4.019864  0  0  0.037142  0.083546  0  3.992436  0
C  C89  1  0.29956876  0.56270778  0.46784714  1  0  0.114001  0  3.743034  0  0  0.087368  0  4.002785  0  0  0.093108  0  4.019928  0  0  0.03714  0.083517  0  3.992502  0
C  C90  1  0.70791298  0.52735229  0.58299898  1  0  -0.124586  0  3.762919  0  0  -0.133656  0  4.012137  0  0  -0.1395  0  4.033278  0  0  -0.089852  -0.129747  0  3.997071  0
C  C91  1  0.29208681  0.47264542  0.41700258  1  0  -0.124705  0  3.762941  0  0  -0.133767  0  4.012178  0  0  -0.139608  0  4.033317  0  0  -0.089917  -0.12986  0  3.997116  0
C  C92  1  0.83111860  0.53016609  0.63923375  1  0  -0.06254  0  3.713056  0  0  -0.088735  0  3.958451  0  0  -0.086723  0  3.97625  0  0  -0.070435  -0.088561  0  3.943185  0
C  C93  1  0.16888233  0.46983074  0.36076792  1  0  -0.062518  0  3.713057  0  0  -0.088707  0  3.958457  0  0  -0.086696  0  3.976254  0  0  -0.070455  -0.088528  0  3.943186  0
C  C94  1  0.14009983  0.60662562  0.00584196  1  0  0.258399  0  3.714468  0  0  0.25501  0  3.965009  0  0  0.26415  0  3.984872  0  0  0.104843  0.249219  0  3.951032  0
C  C95  1  0.85990110  0.39337474  0.99415741  1  0  0.258355  0  3.714514  0  0  0.255025  0  3.964974  0  0  0.264165  0  3.984839  0  0  0.10482  0.249238  0  3.950993  0
C  C96  1  0.03543188  0.68868116  0.03145065  1  0  -0.315069  0  3.723872  0  0  -0.340436  0  3.979884  0  0  -0.35084  0  4.001284  0  0  -0.127522  -0.33353  0  3.965174  0
C  C97  1  0.96456791  0.31131920  0.96854956  1  0  -0.31511  0  3.723973  0  0  -0.340491  0  3.979971  0  0  -0.350895  0  4.00137  0  0  -0.127547  -0.333574  0  3.965276  0
C  C98  1  0.02547512  0.77562371  0.93648367  1  0  0.134679  0  3.897392  0  0  0.126942  0  4.165049  0  0  0.13225  0  4.187443  0  0  0.075213  0.123894  0  4.149427  0
C  C99  1  0.97452466  0.22437665  0.06351579  1  0  0.134686  0  3.897424  0  0  0.126947  0  4.165083  0  0  0.132255  0  4.187476  0  0  0.075222  0.123889  0  4.149474  0
C  C100  1  0.19515487  0.49569913  0.07429002  1  0  -0.358635  0  3.721641  0  0  -0.436769  0  3.956945  0  0  -0.439591  0  3.964428  0  0  -0.238767  -0.434581  0  3.951376  0
C  C101  1  0.80484377  0.50430124  0.92570953  1  0  -0.358582  0  3.721697  0  0  -0.436713  0  3.956982  0  0  -0.439537  0  3.964467  0  0  -0.238734  -0.434523  0  3.951413  0
C  C102  1  0.93112880  0.88184983  0.91900600  1  0  -0.00056  0  3.797333  0  0  0.021066  0  4.025139  0  0  0.018561  0  4.047541  0  0  0.001359  0.021925  0  4.010194  0
C  C103  1  0.06887213  0.11815141  0.08099468  1  0  -0.000554  0  3.797344  0  0  0.021079  0  4.025139  0  0  0.018576  0  4.047537  0  0  0.001384  0.021937  0  4.010202  0
C  C104  1  0.93229916  0.95826205  0.81823422  1  0  0.070642  0  3.716854  0  0  0.038652  0  3.965465  0  0  0.043369  0  3.981497  0  0  0.041092  0.03601  0  3.95464  0
C  C105  1  0.06770063  0.04173919  0.18176655  1  0  0.070581  0  3.716854  0  0  0.038573  0  3.965483  0  0  0.043292  0  3.98151  0  0  0.041073  0.035933  0  3.954652  0
C  C106  1  0.75906304  0.08643503  0.87399851  1  0  0.100474  0  3.758146  0  0  0.070333  0  4.020671  0  0  0.076263  0  4.037359  0  0  0.03202  0.066446  0  4.009335  0
C  C107  1  0.24093677  0.91356710  0.12600358  1  0  0.100468  0  3.758128  0  0  0.070316  0  4.020682  0  0  0.076243  0  4.037369  0  0  0.031994  0.066428  0  4.009341  0
C  C108  1  0.74890840  0.01674491  0.97711700  1  0  -0.12573  0  3.790653  0  0  -0.139702  0  4.04684  0  0  -0.145379  0  4.068234  0  0  -0.090216  -0.135994  0  4.032543  0
C  C109  1  0.25109483  0.98325633  0.02288501  1  0  -0.125756  0  3.790638  0  0  -0.139752  0  4.046836  0  0  -0.145429  0  4.068231  0  0  -0.090235  -0.136044  0  4.032541  0
C  C110  1  0.83490696  0.91350684  0.00009160  1  0  -0.060023  0  3.702021  0  0  -0.083823  0  3.945314  0  0  -0.082163  0  3.963295  0  0  -0.071167  -0.084218  0  3.932982  0
C  C111  1  0.16509398  0.08649440  0.99990983  1  0  -0.059929  0  3.701997  0  0  -0.083736  0  3.945291  0  0  -0.082076  0  3.963277  0  0  -0.071133  -0.084135  0  3.932968  0
N  N112  1  0.42782499  0.71581498  0.65858416  1  0  -0.326293  0  2.950237  0  0  -0.313967  0  3.230632  0  0  -0.321735  0  3.246364  0  0  -0.303017  -0.308687  0  3.219681  0
N  N113  1  0.57217366  0.28418538  0.34141615  1  0  -0.326298  0  2.950247  0  0  -0.313967  0  3.230629  0  0  -0.321734  0  3.24636  0  0  -0.303002  -0.308694  0  3.219679  0
N  N114  1  0.11084693  0.53426806  0.73612837  1  0  -0.326101  0  2.97538  0  0  -0.311503  0  3.255015  0  0  -0.318692  0  3.269386  0  0  -0.30039  -0.309385  0  3.247354  0
N  N115  1  0.88915399  0.46573142  0.26387044  1  0  -0.326091  0  2.975343  0  0  -0.31142  0  3.254995  0  0  -0.31861  0  3.269371  0  0  -0.300289  -0.309307  0  3.247328  0
N  N116  1  0.11887881  0.74855899  0.85700943  1  0  -0.337286  0  2.94704  0  0  -0.327794  0  3.22776  0  0  -0.336537  0  3.245224  0  0  -0.275299  -0.321858  0  3.215961  0
N  N117  1  0.88111983  0.25144138  0.14298937  1  0  -0.337263  0  2.947093  0  0  -0.327772  0  3.22782  0  0  -0.336517  0  3.245286  0  0  -0.275323  -0.321833  0  3.216021  0
N  N118  1  0.42024038  0.68487185  0.76498150  1  0  -0.176869  0  3.473109  0  0  -0.080351  0  3.705264  0  0  -0.094942  0  3.728573  0  0  -0.135901  -0.070614  0  3.689569  0
N  N119  1  0.57975941  0.31512763  0.23501892  1  0  -0.17687  0  3.473132  0  0  -0.080352  0  3.705294  0  0  -0.094939  0  3.728605  0  0  -0.135899  -0.070608  0  3.689592  0
N  N120  1  0.76128490  0.98224842  0.38544090  1  0  -0.377463  0  3.222864  0  0  -0.315069  0  3.480262  0  0  -0.328856  0  3.496649  0  0  -0.372118  -0.305992  0  3.468966  0
N  N121  1  0.23871260  0.01775282  0.61456006  1  0  -0.377386  0  3.222844  0  0  -0.314993  0  3.480211  0  0  -0.328782  0  3.496599  0  0  -0.372103  -0.305926  0  3.46892  0
N  N122  1  0.24595190  0.50916097  0.77707458  1  0  -0.172247  0  3.47119  0  0  -0.076308  0  3.703188  0  0  -0.090776  0  3.725995  0  0  -0.132025  -0.067253  0  3.688906  0
N  N123  1  0.75404903  0.49083940  0.22292479  1  0  -0.172096  0  3.471079  0  0  -0.076193  0  3.703092  0  0  -0.09066  0  3.725898  0  0  -0.132039  -0.06714  0  3.688809  0
N  N124  1  0.80572627  0.35113573  0.53725166  1  0  -0.366179  0  3.179333  0  0  -0.318406  0  3.450429  0  0  -0.330716  0  3.467123  0  0  -0.391343  -0.310056  0  3.439108  0
N  N125  1  0.19427579  0.64886375  0.46274555  1  0  -0.3661  0  3.179453  0  0  -0.318318  0  3.450556  0  0  -0.330631  0  3.467257  0  0  -0.391289  -0.309966  0  3.439235  0
N  N126  1  0.18822889  0.64551089  0.90068907  1  0  -0.178205  0  3.476371  0  0  -0.078929  0  3.703138  0  0  -0.094233  0  3.727812  0  0  -0.127237  -0.068822  0  3.686347  0
N  N127  1  0.81176861  0.35448948  0.09930982  1  0  -0.178168  0  3.476387  0  0  -0.078907  0  3.703124  0  0  -0.09421  0  3.727799  0  0  -0.127179  -0.068799  0  3.686329  0
N  N128  1  0.84885607  0.05704007  0.79505826  1  0  -0.328701  0  3.169309  0  0  -0.27133  0  3.424009  0  0  -0.283756  0  3.439361  0  0  -0.318896  -0.262937  0  3.413615  0
N  N129  1  0.15114487  0.94296117  0.20494318  1  0  -0.328603  0  3.169229  0  0  -0.271218  0  3.423927  0  0  -0.283643  0  3.43928  0  0  -0.318868  -0.262827  0  3.413533  0
O  O130  1  0.07290475  0.92170350  0.42253569  1  0  -0.842994  0  1.84513  0  0  -0.794069  0  2.028915  0  0  -0.811178  0  1.998681  0  0  -0.647175  -0.782173  0  2.048141  0
O  O131  1  0.92709390  0.07829686  0.57746538  1  0  -0.843002  0  1.84511  0  0  -0.79409  0  2.0289  0  0  -0.811194  0  1.998656  0  0  -0.647178  -0.782187  0  2.048133  0
