# generated using pymatgen
data_Zn3H56C72(N6O7)2
_symmetry_space_group_name_H-M   'P 1'
_cell_length_a   10.48595515
_cell_length_b   13.85266687
_cell_length_c   25.48212130
_cell_angle_alpha   94.25056242
_cell_angle_beta   97.19098749
_cell_angle_gamma   99.08188695
_symmetry_Int_Tables_number   1
_chemical_formula_structural   Zn3H56C72(N6O7)2
_chemical_formula_sum   'Zn6 H112 C144 N24 O28'
_cell_volume   3609.65415737
_cell_formula_units_Z   2
loop_
 _symmetry_equiv_pos_site_id
 _symmetry_equiv_pos_as_xyz
  1  'x, y, z'
loop_
 _atom_site_type_symbol
 _atom_site_label
 _atom_site_symmetry_multiplicity
 _atom_site_fract_x
 _atom_site_fract_y
 _atom_site_fract_z
 _atom_site_occupancy
 _atom_site_pbe_bader_charge
 _atom_site_pbe_bader_spin_density
 _atom_site_pbe_cm5_charge
 _atom_site_pbe_ddec_charge
 _atom_site_pbe_ddec_spin_density
 _atom_site_pbe_ddec_sum_bond_order
 _atom_site_pbe_magmom
Zn  Zn0  1  0.22575636  0.44175846  0.04326867  1  1.25179  0  0.706105  0.789411  0  2.364196  0
Zn  Zn1  1  0.77424454  0.55824191  0.95673154  1  1.251751  0  0.706118  0.789408  0  2.364191  0
Zn  Zn2  1  0.30764563  0.26207594  0.26812787  1  1.239997  0  0.686446  0.762607  0  2.402527  0
Zn  Zn3  1  0.69235560  0.73792590  0.73187203  1  1.240101  0  0.68644  0.762613  0  2.402515  0
Zn  Zn4  1  0.67324901  0.08850780  0.43524340  1  1.249114  0  0.700675  0.780101  0  2.403691  0
Zn  Zn5  1  0.32675077  0.91149182  0.56475673  1  1.249115  0  0.70067  0.780079  0  2.403639  0
H  H6  1  0.89412528  0.69523176  0.21372504  1  0.087819  0  0.111252  0.12647  0  0.986385  0
H  H7  1  0.10587050  0.30476712  0.78627484  1  0.087823  0  0.111237  0.126419  0  0.986477  0
H  H8  1  0.91278634  0.61366105  0.29769659  1  0.032399  0  0.097978  0.089772  0  1.025882  0
H  H9  1  0.08721119  0.38633710  0.70230374  1  0.032488  0  0.097972  0.089756  0  1.02593  0
H  H10  1  0.05789700  0.48768431  0.30924298  1  0.072031  0  0.100251  0.101986  0  1.026436  0
H  H11  1  0.94210310  0.51231678  0.69075722  1  0.072028  0  0.100248  0.101982  0  1.026447  0
H  H12  1  0.14874157  0.81094298  0.19669901  1  0.117799  0  0.114772  0.137844  0  0.981745  0
H  H13  1  0.85125724  0.18905664  0.80330145  1  0.117793  0  0.114768  0.13785  0  0.981716  0
H  H14  1  0.13495336  0.98508754  0.18317914  1  0.084793  0  0.099756  0.100276  0  1.013338  0
H  H15  1  0.86504546  0.01491208  0.81682133  1  0.084796  0  0.099744  0.10026  0  1.013291  0
H  H16  1  0.99166264  0.02534443  0.10481757  1  0.04004  0  0.090016  0.087247  0  1.031994  0
H  H17  1  0.00833393  0.97465372  0.89518311  1  0.04002  0  0.090042  0.087289  0  1.031976  0
H  H18  1  0.85932684  0.88985887  0.04135506  1  0.038446  0  0.093059  0.089439  0  1.02293  0
H  H19  1  0.14067182  0.11014002  0.95864497  1  0.038446  0  0.093075  0.0895  0  1.022884  0
H  H20  1  0.09585101  0.73777634  0.37332459  1  0.073568  0  0.100465  0.108353  0  1.038062  0
H  H21  1  0.90414797  0.26222402  0.62667512  1  0.073573  0  0.10047  0.108347  0  1.038083  0
H  H22  1  0.94791948  0.83350814  0.32307856  1  0.062742  0  0.099725  0.099434  0  0.987661  0
H  H23  1  0.05208303  0.16649517  0.67692108  1  0.062718  0  0.099687  0.099429  0  0.987546  0
H  H24  1  0.04054702  0.99332786  0.29189543  1  0.026396  0  0.091763  0.088231  0  1.054659  0
H  H25  1  0.95945710  0.00667399  0.70810383  1  0.026404  0  0.091752  0.08826  0  1.054679  0
H  H26  1  0.37453391  0.64991897  0.33073497  1  0.084287  0  0.11355  0.133357  0  0.969198  0
H  H27  1  0.62546604  0.35008139  0.66926362  1  0.084297  0  0.113578  0.133385  0  0.969198  0
H  H28  1  0.31126700  0.47075392  0.34171880  1  0.064041  0  0.095836  0.090433  0  1.054227  0
H  H29  1  0.68873119  0.52924717  0.65828052  1  0.064008  0  0.095843  0.090447  0  1.054182  0
H  H30  1  0.21084528  0.42003831  0.42080174  1  0.067468  0  0.095746  0.096019  0  1.022639  0
H  H31  1  0.78915275  0.57996205  0.57919714  1  0.067464  0  0.095725  0.095999  0  1.022656  0
H  H32  1  0.17803870  0.54598424  0.48995545  1  0.074815  0  0.098572  0.098665  0  1.015859  0
H  H33  1  0.82196205  0.45401539  0.51004433  1  0.074788  0  0.098564  0.098701  0  1.015858  0
H  H34  1  0.52515980  0.46057617  0.28662189  1  0.183081  0  0.138961  0.116742  0  1.005301  0
H  H35  1  0.47484063  0.53942200  0.71337742  1  0.183078  0  0.138973  0.116763  0  1.005292  0
H  H36  1  0.50412548  0.19606409  0.36033081  1  0.185343  0  0.120651  0.124311  0  1.042555  0
H  H37  1  0.49587220  0.80393479  0.63967034  1  0.185377  0  0.12066  0.124285  0  1.04261  0
H  H38  1  0.72518486  0.32477266  0.40831252  1  0.1304  0  0.125606  0.129147  0  1.020239  0
H  H39  1  0.27481444  0.67522476  0.59168788  1  0.130324  0  0.125613  0.129145  0  1.020262  0
H  H40  1  0.74463658  0.55090188  0.33101275  1  0.064579  0  0.119083  0.101074  0  0.968908  0
H  H41  1  0.25536464  0.44909554  0.66898736  1  0.064633  0  0.119069  0.101037  0  0.968924  0
H  H42  1  0.85004091  0.48533539  0.36826132  1  0.076384  0  0.120627  0.109208  0  0.95302  0
H  H43  1  0.14995838  0.51466202  0.63173987  1  0.076407  0  0.120634  0.109242  0  0.952997  0
H  H44  1  0.93457358  0.64353242  0.42779652  1  0.094887  0  0.09744  0.099713  0  1.026914  0
H  H45  1  0.06542636  0.35646794  0.57220365  1  0.094872  0  0.097427  0.099714  0  1.026908  0
H  H46  1  0.90146471  0.75474297  0.50133283  1  0.090123  0  0.102561  0.110698  0  1.03256  0
H  H47  1  0.09853427  0.24525739  0.49866688  1  0.090116  0  0.102558  0.110697  0  1.032556  0
H  H48  1  0.50160057  0.61024000  0.49111216  1  0.076781  0  0.099227  0.101869  0  1.023904  0
H  H49  1  0.49839842  0.38976036  0.50888716  1  0.07678  0  0.099226  0.101846  0  1.023894  0
H  H50  1  0.53362936  0.49909198  0.41579702  1  0.049108  0  0.096406  0.094123  0  1.04787  0
H  H51  1  0.46637235  0.50090766  0.58420282  1  0.049114  0  0.096378  0.094083  0  1.047833  0
H  H52  1  0.57026883  0.75607022  0.54844225  1  0.135426  0  0.11622  0.112084  0  1.007103  0
H  H53  1  0.42973095  0.24392940  0.45155748  1  0.135486  0  0.116225  0.112114  0  1.007061  0
H  H54  1  0.72896993  0.75840671  0.58330280  1  0.073539  0  0.11636  0.108783  0  0.9629  0
H  H55  1  0.27102970  0.24159218  0.41669689  1  0.073463  0  0.116362  0.108772  0  0.962915  0
H  H56  1  0.56114691  0.87477788  0.46854190  1  0.189881  0  0.142735  0.118548  0  0.99694  0
H  H57  1  0.43885288  0.12522175  0.53145822  1  0.189893  0  0.142732  0.118545  0  0.996918  0
H  H58  1  0.90545620  0.07508865  0.52788398  1  0.146865  0  0.118926  0.120677  0  1.017773  0
H  H59  1  0.09454358  0.92491097  0.47211653  1  0.14693  0  0.118923  0.120666  0  1.017768  0
H  H60  1  0.89549156  0.90931730  0.58459705  1  0.145294  0  0.119809  0.120091  0  1.03115  0
H  H61  1  0.10450806  0.09068159  0.41540303  1  0.145309  0  0.119795  0.120069  0  1.031142  0
H  H62  1  0.38566186  0.08453368  0.19716973  1  0.190387  0  0.137974  0.116994  0  1.024501  0
H  H63  1  0.61433920  0.91546741  0.80283091  1  0.190378  0  0.137979  0.116982  0  1.02455  0
H  H64  1  0.20863596  0.32401993  0.15010291  1  0.164245  0  0.116534  0.12213  0  1.055405  0
H  H65  1  0.79136398  0.67598043  0.84989764  1  0.164249  0  0.116541  0.122114  0  1.055409  0
H  H66  1  0.22427692  0.20576707  0.06008249  1  0.148188  0  0.116651  0.12366  0  1.047228  0
H  H67  1  0.77572190  0.79423255  0.93991797  1  0.148185  0  0.116652  0.123658  0  1.047196  0
H  H68  1  0.26989724  0.01810017  0.05240937  1  0.061718  0  0.11191  0.094809  0  0.990307  0
H  H69  1  0.73010349  0.98189946  0.94759158  1  0.061729  0  0.11193  0.094813  0  0.990252  0
H  H70  1  0.36250236  0.98218340  0.10849107  1  0.068773  0  0.119628  0.103849  0  0.965223  0
H  H71  1  0.63749870  0.01781769  0.89151036  1  0.068806  0  0.119613  0.103833  0  0.965181  0
H  H72  1  0.37352435  0.11674865  0.98908314  1  0.087741  0  0.101701  0.098798  0  1.010026  0
H  H73  1  0.62647526  0.88325024  0.01091773  1  0.08774  0  0.10167  0.098761  0  1.010077  0
H  H74  1  0.57526282  0.17519025  0.95194205  1  0.043969  0  0.108863  0.11108  0  0.978933  0
H  H75  1  0.42473584  0.82480864  0.04805837  1  0.043952  0  0.108853  0.11105  0  0.978972  0
H  H76  1  0.80503146  0.10882368  0.09301125  1  0.065409  0  0.099522  0.098232  0  1.022895  0
H  H77  1  0.19496944  0.89117668  0.90698896  1  0.065424  0  0.099515  0.098215  0  1.022875  0
H  H78  1  0.60276630  0.05001893  0.13002479  1  0.056884  0  0.103689  0.103999  0  0.997457  0
H  H79  1  0.39723477  0.94998217  0.86997586  1  0.05689  0  0.103668  0.103943  0  0.997485  0
H  H80  1  0.91288174  0.16060990  0.01746543  1  0.081984  0  0.116982  0.106891  0  0.969439  0
H  H81  1  0.08711804  0.83938973  0.98253430  1  0.081985  0  0.116959  0.106875  0  0.969445  0
H  H82  1  0.81950817  0.16247636  0.95472574  1  0.070473  0  0.114564  0.098855  0  0.996135  0
H  H83  1  0.18049161  0.83752327  0.04527399  1  0.070479  0  0.114557  0.098862  0  0.996113  0
H  H84  1  0.74337867  0.32801691  0.93123985  1  0.20981  0  0.136991  0.120839  0  1.032878  0
H  H85  1  0.25662127  0.67198345  0.06876031  1  0.209807  0  0.136988  0.120828  0  1.032883  0
H  H86  1  0.96584584  0.31871682  0.08139341  1  0.130186  0  0.126177  0.130897  0  1.012782  0
H  H87  1  0.03415378  0.68128207  0.91860668  1  0.130191  0  0.126183  0.130917  0  1.012795  0
H  H88  1  0.93618311  0.51129153  0.06685439  1  0.14453  0  0.120353  0.119065  0  1.03136  0
H  H89  1  0.06381764  0.48870810  0.93314578  1  0.144532  0  0.120346  0.11904  0  1.031363  0
H  H90  1  0.45808338  0.51904234  0.13740962  1  0.213932  0  0.13916  0.122662  0  1.017281  0
H  H91  1  0.54191624  0.48095655  0.86259085  1  0.213926  0  0.139166  0.122665  0  1.01728  0
H  H92  1  0.44169758  0.33624321  0.99601396  1  0.135115  0  0.11641  0.115771  0  1.015705  0
H  H93  1  0.55830557  0.66375863  0.00398604  1  0.135102  0  0.116403  0.115787  0  1.015676  0
H  H94  1  0.67518549  0.33044294  0.06204431  1  0.12229  0  0.113509  0.105164  0  1.078553  0
H  H95  1  0.32481558  0.66955816  0.93795594  1  0.122309  0  0.113506  0.105132  0  1.078577  0
H  H96  1  0.67001289  0.50176842  0.18638590  1  0.078906  0  0.121153  0.108937  0  0.951253  0
H  H97  1  0.32998705  0.49823194  0.81361466  1  0.078924  0  0.121171  0.108968  0  0.951245  0
H  H98  1  0.78655420  0.49969179  0.14182667  1  0.092268  0  0.112804  0.104402  0  0.99908  0
H  H99  1  0.21344687  0.50030931  0.85817358  1  0.092263  0  0.112827  0.104426  0  0.999039  0
H  H100  1  0.93920068  0.39576776  0.16075556  1  0.091984  0  0.099131  0.09951  0  1.049828  0
H  H101  1  0.06079927  0.60423260  0.83924421  1  0.091792  0  0.099117  0.099496  0  1.049877  0
H  H102  1  0.00392161  0.24733948  0.19758503  1  0.05619  0  0.097044  0.099035  0  1.034606  0
H  H103  1  0.99607930  0.75266089  0.80241479  1  0.056197  0  0.097047  0.099037  0  1.034613  0
H  H104  1  0.61758197  0.16660547  0.23934212  1  0.095228  0  0.103123  0.110706  0  1.014704  0
H  H105  1  0.38241718  0.83339562  0.76065803  1  0.095325  0  0.103149  0.110718  0  1.014794  0
H  H106  1  0.55216304  0.31283964  0.20030831  1  0.092366  0  0.100626  0.104162  0  1.026168  0
H  H107  1  0.44783706  0.68716145  0.79969189  1  0.092484  0  0.100625  0.104163  0  1.026191  0
H  H108  1  0.79282469  0.04042444  0.23191144  1  0.07584  0  0.120338  0.105572  0  0.953218  0
H  H109  1  0.20717526  0.95957592  0.76808833  1  0.075839  0  0.12035  0.105571  0  0.953227  0
H  H110  1  0.95719012  0.10213426  0.23757250  1  0.073683  0  0.11581  0.102832  0  0.982267  0
H  H111  1  0.04280983  0.89786610  0.76242766  1  0.073673  0  0.115802  0.102814  0  0.982297  0
H  H112  1  0.02722671  0.24130087  0.32316797  1  0.137936  0  0.127295  0.142976  0  1.005122  0
H  H113  1  0.97276955  0.75870462  0.67683103  1  0.13781  0  0.127313  0.14296  0  1.005146  0
H  H114  1  0.94115849  0.23500308  0.42351012  1  0.142657  0  0.115877  0.116931  0  1.050103  0
H  H115  1  0.05883680  0.76499800  0.57648944  1  0.143169  0  0.115858  0.116908  0  1.050102  0
H  H116  1  0.69038279  0.02192640  0.31585303  1  0.215647  0  0.138382  0.124882  0  1.024347  0
H  H117  1  0.30961732  0.97807470  0.68414678  1  0.215624  0  0.138372  0.12486  0  1.024387  0
C  C118  1  0.22360677  0.43436458  0.24318220  1  1.560756  0  0.198584  0.5633  0  4.214674  0
C  C119  1  0.77639430  0.56563652  0.75681727  1  1.560891  0  0.198514  0.563186  0  4.21469  0
C  C120  1  0.20244207  0.53668619  0.14383441  1  1.627777  0  0.207549  0.599359  0  4.226231  0
C  C121  1  0.79755707  0.46331490  0.85616574  1  1.627753  0  0.207519  0.59929  0  4.226335  0
C  C122  1  0.13088668  0.50636227  0.23491089  1  0.009436  0  -0.009285  -0.025771  0  3.937793  0
C  C123  1  0.86911438  0.49363882  0.76508975  1  0.009439  0  -0.009287  -0.025784  0  3.937796  0
C  C124  1  0.12466319  0.55521973  0.18843584  1  0.00243  0  -0.014184  -0.141079  0  3.920702  0
C  C125  1  0.87533611  0.44478209  0.81156435  1  0.002401  0  -0.014206  -0.141073  0  3.920656  0
C  C126  1  0.03682452  0.62108832  0.18136393  1  0.391595  0  0.084442  0.22401  0  4.021899  0
C  C127  1  0.96317334  0.37891130  0.81863609  1  0.391569  0  0.084391  0.223987  0  4.021768  0
C  C128  1  0.96081926  0.64307652  0.22032341  1  -0.044904  0  -0.099504  -0.200666  0  4.021924  0
C  C129  1  0.03917828  0.35692163  0.77967614  1  -0.044875  0  -0.099538  -0.200718  0  4.021843  0
C  C130  1  0.97050835  0.59589372  0.26676994  1  0.019762  0  -0.094915  -0.071408  0  4.056837  0
C  C131  1  0.02948982  0.40410737  0.73323016  1  0.019686  0  -0.094822  -0.071232  0  4.056687  0
C  C132  1  0.05225155  0.52630386  0.27357110  1  -0.036244  0  -0.091382  -0.110685  0  3.996812  0
C  C133  1  0.94774967  0.47369798  0.72642919  1  -0.036249  0  -0.091403  -0.110728  0  3.996842  0
C  C134  1  0.00883453  0.75362170  0.12762430  1  0.401175  0  0.087814  0.232243  0  4.019677  0
C  C135  1  0.99116332  0.24637792  0.87237611  1  0.401217  0  0.087797  0.232268  0  4.019715  0
C  C136  1  0.08462363  0.82901869  0.16308954  1  0.001663  0  -0.100586  -0.203549  0  3.993969  0
C  C137  1  0.91537423  0.17098093  0.83691048  1  0.001594  0  -0.100569  -0.203546  0  3.993909  0
C  C138  1  0.07696099  0.92659180  0.15505101  1  -0.070987  0  -0.09818  -0.070962  0  4.045251  0
C  C139  1  0.92303815  0.07340929  0.84494913  1  -0.070399  0  -0.098165  -0.07091  0  4.045222  0
C  C140  1  0.99627116  0.94891442  0.11119163  1  -0.071263  0  -0.115064  -0.126596  0  4.074744  0
C  C141  1  0.00372669  0.05108520  0.88880839  1  -0.071867  0  -0.115094  -0.126706  0  4.074816  0
C  C142  1  0.92220786  0.87290673  0.07574372  1  -0.013166  0  -0.099273  -0.107216  0  4.040695  0
C  C143  1  0.07778967  0.12709142  0.92425661  1  -0.013179  0  -0.099257  -0.107186  0  4.040583  0
C  C144  1  0.92543567  0.77426158  0.08371887  1  -0.0223  0  -0.023448  -0.122363  0  3.95131  0
C  C145  1  0.07456187  0.22573657  0.91628107  1  -0.022206  0  -0.023484  -0.122429  0  3.951386  0
C  C146  1  0.83936160  0.69111805  0.04775138  1  1.584953  0  0.198091  0.580691  0  4.223906  0
C  C147  1  0.16063610  0.30888083  0.95224821  1  1.584868  0  0.198055  0.580613  0  4.224041  0
C  C148  1  0.29160719  0.07793909  0.30102034  1  1.530385  0  0.196679  0.5661  0  4.20895  0
C  C149  1  0.70840302  0.92205984  0.69897913  1  1.530974  0  0.196567  0.565888  0  4.20933  0
C  C150  1  0.46682994  0.96929607  0.36642301  1  1.617988  0  0.200683  0.59926  0  4.23223  0
C  C151  1  0.53317112  0.03070502  0.63357763  1  1.617989  0  0.200635  0.59924  0  4.232328  0
C  C152  1  0.23818170  0.98501896  0.32324492  1  0.019075  0  -0.018422  -0.040681  0  3.977338  0
C  C153  1  0.76182193  0.01498069  0.67675462  1  0.01894  0  -0.018367  -0.040444  0  3.977102  0
C  C154  1  0.32248904  0.93147937  0.35147637  1  -0.006087  0  -0.012289  -0.127026  0  3.898242  0
C  C155  1  0.67751202  0.06852172  0.64852389  1  -0.006093  0  -0.012345  -0.127228  0  3.898182  0
C  C156  1  0.26871473  0.84234667  0.36912268  1  0.413112  0  0.091014  0.240184  0  4.008887  0
C  C157  1  0.73128424  0.15765369  0.63087783  1  0.413094  0  0.091015  0.240258  0  4.008768  0
C  C158  1  0.13489011  0.80650895  0.35857768  1  -0.009249  0  -0.107998  -0.209786  0  4.028814  0
C  C159  1  0.86510775  0.19349067  0.64142195  1  -0.009207  0  -0.107999  -0.209778  0  4.028733  0
C  C160  1  0.05261639  0.86068997  0.33064138  1  -0.013619  0  -0.099108  -0.068017  0  4.064365  0
C  C161  1  0.94738356  0.13931040  0.66935839  1  -0.013632  0  -0.099049  -0.067887  0  4.064186  0
C  C162  1  0.10371575  0.94983557  0.31331739  1  -0.036845  0  -0.107445  -0.138573  0  4.039086  0
C  C163  1  0.89628805  0.05016481  0.68668180  1  -0.036748  0  -0.107455  -0.13881  0  4.039204  0
C  C164  1  0.31432570  0.69571643  0.40476678  1  0.419035  0  0.08444  0.223764  0  4.025938  0
C  C165  1  0.68567425  0.30428393  0.59523259  1  0.419113  0  0.084421  0.223752  0  4.025915  0
C  C166  1  0.33255178  0.62570179  0.36555381  1  0.017913  0  -0.093241  -0.18167  0  3.981885  0
C  C167  1  0.66744817  0.37429857  0.63444517  1  0.017936  0  -0.093249  -0.181697  0  3.981971  0
C  C168  1  0.29657929  0.52631880  0.37177809  1  -0.066209  0  -0.097928  -0.077619  0  4.045724  0
C  C169  1  0.70341954  0.47368083  0.62822042  1  -0.066055  0  -0.097946  -0.077617  0  4.045775  0
C  C170  1  0.23988357  0.49759236  0.41613195  1  -0.073587  0  -0.10136  -0.101474  0  4.032805  0
C  C171  1  0.76011431  0.50240727  0.58386611  1  -0.073654  0  -0.101323  -0.101459  0  4.032854  0
C  C172  1  0.22151520  0.56829165  0.45510230  1  -0.032964  0  -0.091295  -0.099679  0  4.011726  0
C  C173  1  0.77848635  0.43170725  0.54489671  1  -0.033005  0  -0.091309  -0.099733  0  4.01174  0
C  C174  1  0.26047815  0.66827264  0.45015787  1  -0.006707  0  -0.020408  -0.125578  0  3.983185  0
C  C175  1  0.73952372  0.33172773  0.54984200  1  -0.006793  0  -0.020404  -0.125568  0  3.983135  0
C  C176  1  0.24302053  0.74545423  0.49210067  1  1.585941  0  0.20106  0.578806  0  4.245397  0
C  C177  1  0.75697989  0.25454393  0.50790021  1  1.585578  0  0.201099  0.578906  0  4.24528  0
C  C178  1  0.54941300  0.40600283  0.31294280  1  0.949743  0  0.143889  0.08367  0  3.916596  0
C  C179  1  0.45058565  0.59399605  0.68705841  1  0.949777  0  0.14392  0.083696  0  3.91648  0
C  C180  1  0.54086140  0.27053026  0.35253125  1  0.301663  0  0.002905  -0.020691  0  3.95889  0
C  C181  1  0.45913645  0.72946935  0.64746956  1  0.301773  0  0.002928  -0.020639  0  3.958785  0
C  C182  1  0.65113040  0.33287877  0.37614821  1  0.371085  0  0.003492  -0.100983  0  3.90802  0
C  C183  1  0.34886794  0.66711865  0.62385214  1  0.371067  0  0.003503  -0.100961  0  3.907991  0
C  C184  1  0.75253223  0.50608396  0.36476322  1  0.324727  0  -0.036398  -0.099417  0  3.910679  0
C  C185  1  0.24746915  0.49391420  0.63523693  1  0.324619  0  -0.036386  -0.099417  0  3.91071  0
C  C186  1  0.73464015  0.56487007  0.41502468  1  -0.047856  0  -0.020479  0.068365  0  3.997313  0
C  C187  1  0.26536060  0.43512956  0.58497510  1  -0.048021  0  -0.020475  0.068355  0  3.997349  0
C  C188  1  0.83828839  0.63583595  0.44072544  1  -0.133665  0  -0.093774  -0.130169  0  3.989172  0
C  C189  1  0.16171060  0.36416440  0.55927427  1  -0.133657  0  -0.093788  -0.130204  0  3.989211  0
C  C190  1  0.81966480  0.69878868  0.48321479  1  -0.011993  0  -0.090731  -0.125101  0  3.971907  0
C  C191  1  0.18033435  0.30121241  0.51678419  1  -0.01202  0  -0.090712  -0.125084  0  3.971941  0
C  C192  1  0.69783678  0.69153367  0.50125929  1  -0.046761  0  -0.014171  0.075764  0  3.99017  0
C  C193  1  0.30216221  0.30846670  0.49874003  1  -0.046759  0  -0.014135  0.075799  0  3.990089  0
C  C194  1  0.59666996  0.61759991  0.47728104  1  -0.024507  0  -0.086968  -0.114075  0  3.9674  0
C  C195  1  0.40332919  0.38240119  0.52271794  1  -0.024513  0  -0.086979  -0.114005  0  3.967328  0
C  C196  1  0.61499810  0.55468913  0.43452352  1  -0.001722  0  -0.098042  -0.136828  0  4.001889  0
C  C197  1  0.38500089  0.44531123  0.56547541  1  -0.001533  0  -0.098018  -0.136813  0  4.00182  0
C  C198  1  0.67433906  0.76521668  0.54439456  1  0.268994  0  -0.04341  -0.118232  0  3.882126  0
C  C199  1  0.32565976  0.23478295  0.45560512  1  0.269019  0  -0.043397  -0.118229  0  3.882079  0
C  C200  1  0.65363031  0.90794257  0.49178219  1  0.96664  0  0.153013  0.114628  0  3.863961  0
C  C201  1  0.34636851  0.09205705  0.50821788  1  0.966651  0  0.15301  0.114623  0  3.863946  0
C  C202  1  0.83397823  0.00848239  0.52384789  1  0.393011  0  -0.00318  -0.034132  0  3.992538  0
C  C203  1  0.16602155  0.99151724  0.47615263  1  0.392907  0  -0.003141  -0.034042  0  3.992448  0
C  C204  1  0.82999857  0.92754444  0.55189561  1  0.27597  0  0.004682  -0.097685  0  3.919682  0
C  C205  1  0.17000136  0.07245592  0.44810494  1  0.275981  0  0.004633  -0.097771  0  3.919714  0
C  C206  1  0.34033826  0.13357524  0.17225928  1  0.938767  0  0.141865  0.081705  0  3.909207  0
C  C207  1  0.65966280  0.86642586  0.82774136  1  0.938776  0  0.141881  0.081778  0  3.909229  0
C  C208  1  0.24594818  0.25546139  0.14678785  1  0.427615  0  -0.002223  -0.028324  0  3.972871  0
C  C209  1  0.75405272  0.74453897  0.85321275  1  0.427568  0  -0.002187  -0.02821  0  3.972842  0
C  C210  1  0.25369146  0.19737317  0.10164427  1  0.235236  0  -0.005513  -0.113451  0  3.912236  0
C  C211  1  0.74630865  0.80262792  0.89835554  1  0.235237  0  -0.005497  -0.113461  0  3.912234  0
C  C212  1  0.35092184  0.04365821  0.08449547  1  0.304343  0  -0.042592  -0.115277  0  3.929302  0
C  C213  1  0.64907809  0.95634214  0.91550587  1  0.30428  0  -0.042613  -0.115257  0  3.929112  0
C  C214  1  0.47448476  0.07925033  0.06198255  1  0.034612  0  -0.01152  0.081035  0  3.988001  0
C  C215  1  0.52551501  0.92074930  0.93801797  1  0.03462  0  -0.011495  0.08101  0  3.987981  0
C  C216  1  0.46809682  0.11546024  0.01213748  1  -0.107032  0  -0.084483  -0.118702  0  3.996592  0
C  C217  1  0.53190199  0.88453938  0.98786338  1  -0.107059  0  -0.084453  -0.118628  0  3.996647  0
C  C218  1  0.58173044  0.14741174  0.99101801  1  0.016951  0  -0.086093  -0.123618  0  3.984771  0
C  C219  1  0.41826838  0.85258789  0.00898206  1  0.01696  0  -0.086094  -0.12363  0  3.984832  0
C  C220  1  0.70399612  0.14439964  0.01952651  1  -0.065045  0  -0.016808  0.071137  0  3.994703  0
C  C221  1  0.29600271  0.85559998  0.98047316  1  -0.06505  0  -0.016815  0.071137  0  3.994773  0
C  C222  1  0.71046526  0.10977498  0.06984384  1  0.022251  0  -0.089951  -0.13048  0  3.989365  0
C  C223  1  0.28953565  0.89022538  0.93015637  1  0.022246  0  -0.089923  -0.13047  0  3.989268  0
C  C224  1  0.59647849  0.07724066  0.09083963  1  -0.101807  0  -0.085185  -0.114493  0  3.9757  0
C  C225  1  0.40352257  0.92276043  0.90916102  1  -0.101796  0  -0.085195  -0.114413  0  3.975585  0
C  C226  1  0.82645587  0.18493232  0.99735892  1  0.327038  0  -0.043612  -0.115767  0  3.91552  0
C  C227  1  0.17354391  0.81506730  0.00264121  1  0.327025  0  -0.043589  -0.115756  0  3.915537  0
C  C228  1  0.79740582  0.35128074  0.97053710  1  0.957392  0  0.143485  0.087869  0  3.88626  0
C  C229  1  0.20259396  0.64871889  0.02946302  1  0.957389  0  0.143504  0.087928  0  3.886239  0
C  C230  1  0.91357137  0.34943783  0.04924109  1  0.349427  0  0.002177  -0.097296  0  3.930833  0
C  C231  1  0.08642922  0.65056106  0.95075865  1  0.349432  0  0.002202  -0.09733  0  3.93085  0
C  C232  1  0.89927944  0.44421659  0.04132433  1  0.367075  0  0.002671  -0.025188  0  3.980528  0
C  C233  1  0.10072034  0.55578303  0.95867619  1  0.36706  0  0.002702  -0.02506  0  3.980417  0
C  C234  1  0.48530899  0.46895950  0.10761298  1  0.956141  0  0.15088  0.105557  0  3.874486  0
C  C235  1  0.51469096  0.53104086  0.89238718  1  0.956164  0  0.150882  0.105587  0  3.874483  0
C  C236  1  0.48051924  0.37211980  0.03524589  1  0.36197  0  -0.005399  -0.035059  0  4.007668  0
C  C237  1  0.51948392  0.62788204  0.96475372  1  0.361976  0  -0.00542  -0.035105  0  4.00758  0
C  C238  1  0.59543164  0.36950980  0.06680365  1  0.333957  0  -0.002903  -0.098529  0  3.925639  0
C  C239  1  0.40456942  0.63049130  0.93319660  1  0.333947  0  -0.002862  -0.098403  0  3.925603  0
C  C240  1  0.70375855  0.45531480  0.15596516  1  0.312155  0  -0.041117  -0.110453  0  3.895329  0
C  C241  1  0.29624235  0.54468556  0.84403544  1  0.312163  0  -0.041147  -0.11049  0  3.895314  0
C  C242  1  0.74171401  0.36407142  0.17790098  1  -0.020749  0  -0.014288  0.083628  0  3.982859  0
C  C243  1  0.25828593  0.63592894  0.82209918  1  -0.020749  0  -0.014288  0.083661  0  3.982836  0
C  C244  1  0.86778986  0.34435564  0.17676811  1  -0.011774  0  -0.092718  -0.129961  0  3.996844  0
C  C245  1  0.13221104  0.65564472  0.82323210  1  -0.011587  0  -0.092716  -0.129963  0  3.996858  0
C  C246  1  0.90400720  0.26045494  0.19724219  1  -0.066769  0  -0.094863  -0.1302  0  3.992573  0
C  C247  1  0.09599259  0.73954469  0.80275714  1  -0.067191  0  -0.094877  -0.130235  0  3.992654  0
C  C248  1  0.81473067  0.19569813  0.21951247  1  -0.077054  0  -0.017412  0.078787  0  3.995129  0
C  C249  1  0.18526911  0.80430149  0.78048726  1  -0.076592  0  -0.017422  0.078783  0  3.995211  0
C  C250  1  0.68757252  0.21514639  0.22070939  1  -0.048911  0  -0.096166  -0.141448  0  3.986248  0
C  C251  1  0.31242935  0.78485398  0.77929048  1  -0.049136  0  -0.096136  -0.141358  0  3.986324  0
C  C252  1  0.65126522  0.29829475  0.19963523  1  -0.053727  0  -0.09381  -0.127858  0  3.97745  0
C  C253  1  0.34873568  0.70170562  0.80036498  1  -0.053751  0  -0.093823  -0.12791  0  3.977489  0
C  C254  1  0.85868188  0.10994725  0.24569750  1  0.299569  0  -0.040692  -0.110337  0  3.909397  0
C  C255  1  0.14131710  0.89005311  0.75430221  1  0.299564  0  -0.040673  -0.110337  0  3.909451  0
C  C256  1  0.94613051  0.19647128  0.33698855  1  0.273016  0  0.003022  -0.100682  0  3.899574  0
C  C257  1  0.05386976  0.80353055  0.66301091  1  0.273205  0  0.003004  -0.10067  0  3.899713  0
C  C258  1  0.90374693  0.19273201  0.38569788  1  0.413478  0  -0.009028  -0.056023  0  4.029655  0
C  C259  1  0.09625174  0.80727129  0.61430115  1  0.412716  0  -0.009055  -0.056123  0  4.029803  0
C  C260  1  0.77057733  0.08104520  0.33124612  1  0.96191  0  0.147908  0.091917  0  3.883144  0
C  C261  1  0.22942357  0.91895516  0.66875409  1  0.961913  0  0.147928  0.09189  0  3.88312  0
N  N262  1  0.47816835  0.31722550  0.31320108  1  -1.224968  0  -0.359329  -0.28981  0  3.61796  0
N  N263  1  0.52183239  0.68277413  0.68679949  1  -1.225125  0  -0.359339  -0.289844  0  3.617904  0
N  N264  1  0.65577555  0.41750124  0.35044163  1  -1.252447  0  -0.2424  0.0441  0  3.806876  0
N  N265  1  0.34422295  0.58249691  0.64955836  1  -1.252416  0  -0.242477  0.044036  0  3.8069  0
N  N266  1  0.71555093  0.86529664  0.53125415  1  -1.210551  0  -0.236825  0.056542  0  3.772678  0
N  N267  1  0.28444804  0.13470371  0.46874635  1  -1.210536  0  -0.236834  0.056535  0  3.772756  0
N  N268  1  0.72337751  0.99504941  0.48645365  1  -1.230768  0  -0.360886  -0.289943  0  3.623916  0
N  N269  1  0.27662227  0.00495022  0.51354686  1  -1.230772  0  -0.360882  -0.289934  0  3.623908  0
N  N270  1  0.30019429  0.21478387  0.19046664  1  -1.244663  0  -0.355763  -0.282121  0  3.603468  0
N  N271  1  0.69980774  0.78521723  0.80953366  1  -1.244575  0  -0.355812  -0.282272  0  3.603608  0
N  N272  1  0.31313825  0.12064437  0.11858163  1  -1.205518  0  -0.243912  0.043483  0  3.793993  0
N  N273  1  0.68686169  0.87935599  0.88141892  1  -1.20553  0  -0.243924  0.043448  0  3.794004  0
N  N274  1  0.84914183  0.29211219  0.00423492  1  -1.256596  0  -0.246603  0.041205  0  3.797153  0
N  N275  1  0.15085779  0.70788670  0.99576516  1  -1.256567  0  -0.246621  0.0412  0  3.797086  0
N  N276  1  0.82686785  0.44416452  0.99215419  1  -1.237609  0  -0.359783  -0.285728  0  3.626846  0
N  N277  1  0.17313193  0.55583510  0.00784633  1  -1.237638  0  -0.359819  -0.28585  0  3.626863  0
N  N278  1  0.41275165  0.43412406  0.06127767  1  -1.243658  0  -0.369798  -0.30009  0  3.648518  0
N  N279  1  0.58724925  0.56587630  0.93872215  1  -1.243671  0  -0.369786  -0.300073  0  3.648446  0
N  N280  1  0.59687822  0.43138170  0.11203681  1  -1.230539  0  -0.235174  0.065508  0  3.75821  0
N  N281  1  0.40312188  0.56861940  0.88796338  1  -1.230545  0  -0.235217  0.065355  0  3.758415  0
N  N282  1  0.86133522  0.12486750  0.30325521  1  -1.231341  0  -0.241307  0.047473  0  3.775862  0
N  N283  1  0.13866393  0.87513360  0.69674454  1  -1.231335  0  -0.241332  0.047543  0  3.77592  0
N  N284  1  0.79440712  0.12048310  0.38152658  1  -1.254961  0  -0.36004  -0.28628  0  3.619478  0
N  N285  1  0.20559363  0.87951653  0.61847320  1  -1.25474  0  -0.360014  -0.286181  0  3.619522  0
O  O286  1  0.18270390  0.35823880  0.26734546  1  -1.166401  0  -0.336954  -0.558839  0  2.280756  0
O  O287  1  0.81729797  0.64176158  0.73265362  1  -1.166469  0  -0.336969  -0.55879  0  2.280715  0
O  O288  1  0.33244890  0.45015685  0.22708959  1  -1.176175  0  -0.324943  -0.553901  0  2.115679  0
O  O289  1  0.66755088  0.54984718  0.77291150  1  -1.176241  0  -0.324885  -0.553839  0  2.115654  0
O  O290  1  0.15992787  0.45417618  0.11458124  1  -1.182701  0  -0.327854  -0.563603  0  2.311764  0
O  O291  1  0.84007303  0.54582418  0.88541898  1  -1.182677  0  -0.327869  -0.563626  0  2.311809  0
O  O292  1  0.29337798  0.60128499  0.13614026  1  -1.17682  0  -0.325288  -0.551071  0  2.131581  0
O  O293  1  0.70662117  0.39871611  0.86385950  1  -1.176812  0  -0.32526  -0.551031  0  2.13165  0
O  O294  1  0.02010859  0.65643331  0.13164880  1  -1.09894  0  -0.149521  -0.216728  0  2.623436  0
O  O295  1  0.97989119  0.34356631  0.86835172  1  -1.098886  0  -0.149423  -0.216665  0  2.623416  0
O  O296  1  0.76031463  0.63201618  0.06709555  1  -1.165826  0  -0.321012  -0.535793  0  2.096242  0
O  O297  1  0.23968901  0.36797906  0.93290381  1  -1.165799  0  -0.320993  -0.535751  0  2.096339  0
O  O298  1  0.85607979  0.68821756  0.99781680  1  -1.168734  0  -0.337218  -0.566779  0  2.285771  0
O  O299  1  0.14392096  0.31178207  0.00218259  1  -1.16871  0  -0.337221  -0.566771  0  2.285716  0
O  O300  1  0.22084408  0.14731757  0.30150707  1  -1.162411  0  -0.3447  -0.569909  0  2.273612  0
O  O301  1  0.77916421  0.85268136  0.69849190  1  -1.163098  0  -0.344624  -0.569795  0  2.273721  0
O  O302  1  0.39734189  0.08457082  0.28219076  1  -1.179941  0  -0.325101  -0.558974  0  2.153597  0
O  O303  1  0.60266864  0.91542518  0.71780860  1  -1.179842  0  -0.325073  -0.558861  0  2.153742  0
O  O304  1  0.49173853  0.04717350  0.40043279  1  -1.16181  0  -0.338166  -0.558193  0  2.29538  0
O  O305  1  0.50826140  0.95282686  0.59956855  1  -1.161759  0  -0.338132  -0.55815  0  2.295337  0
O  O306  1  0.54878495  0.92508758  0.34849051  1  -1.174783  0  -0.338096  -0.562688  0  2.093401  0
O  O307  1  0.45121658  0.07491131  0.65151163  1  -1.174805  0  -0.338061  -0.562652  0  2.09346  0
O  O308  1  0.35404511  0.79489140  0.39941193  1  -1.103323  0  -0.153147  -0.214039  0  2.572845  0
O  O309  1  0.64595563  0.20510823  0.60058824  1  -1.103326  0  -0.153131  -0.214073  0  2.572831  0
O  O310  1  0.13027031  0.75958941  0.49745827  1  -1.168977  0  -0.313144  -0.544681  0  2.140465  0
O  O311  1  0.86972947  0.24041022  0.50254146  1  -1.168976  0  -0.313144  -0.544723  0  2.140473  0
O  O312  1  0.34956896  0.79132888  0.52015728  1  -1.171367  0  -0.327311  -0.550413  0  2.305362  0
O  O313  1  0.65042970  0.20867001  0.47984275  1  -1.171011  0  -0.327357  -0.550465  0  2.305245  0
