# generated using pymatgen
data_ZnH14C20N4(ClO2)2
_symmetry_space_group_name_H-M   'P 1'
_cell_length_a   9.59897413
_cell_length_b   10.24157808
_cell_length_c   13.13365573
_cell_angle_alpha   107.39839367
_cell_angle_beta   110.72027233
_cell_angle_gamma   94.49482080
_symmetry_Int_Tables_number   1
_chemical_formula_structural   ZnH14C20N4(ClO2)2
_chemical_formula_sum   'Zn2 H28 C40 N8 Cl4 O8'
_cell_volume   1127.58932845
_cell_formula_units_Z   2
loop_
 _symmetry_equiv_pos_site_id
 _symmetry_equiv_pos_as_xyz
  1  'x, y, z'
loop_
 _atom_site_type_symbol
 _atom_site_label
 _atom_site_symmetry_multiplicity
 _atom_site_fract_x
 _atom_site_fract_y
 _atom_site_fract_z
 _atom_site_occupancy
 _atom_site_hle17_bader_spin_density
 _atom_site_hle17_ddec_charge
 _atom_site_hle17_ddec_spin_density
 _atom_site_hle17_ddec_sum_bond_order
 _atom_site_hle17_magmom
 _atom_site_hse06_10hf_bader_spin_density
 _atom_site_hse06_10hf_ddec_charge
 _atom_site_hse06_10hf_ddec_spin_density
 _atom_site_hse06_10hf_ddec_sum_bond_order
 _atom_site_hse06_10hf_magmom
 _atom_site_hse06_bader_spin_density
 _atom_site_hse06_ddec_charge
 _atom_site_hse06_ddec_spin_density
 _atom_site_hse06_ddec_sum_bond_order
 _atom_site_hse06_magmom
 _atom_site_pbe_bader_spin_density
 _atom_site_pbe_cm5_charge
 _atom_site_pbe_ddec_charge
 _atom_site_pbe_ddec_spin_density
 _atom_site_pbe_ddec_sum_bond_order
 _atom_site_pbe_magmom
Zn  Zn0  1  0.23623247  0.73075763  0.12176461  1  0  0.988303  0  1.890157  0  0  0.814027  0  2.333654  0  0  0.860016  0  2.284506  0  0  0.676662  0.782189  0  2.367275  0
Zn  Zn1  1  0.76376704  0.26924622  0.87823399  1  0  0.988223  0  1.890234  0  0  0.813973  0  2.33372  0  0  0.85996  0  2.284575  0  0  0.676623  0.782135  0  2.36734  0
H  H2  1  0.06166629  0.46623942  0.15031543  1  0  0.109621  0  0.965456  0  0  0.110856  0  1.042596  0  0  0.114594  0  1.03751  0  0  0.132817  0.108135  0  1.046254  0
H  H3  1  0.93834372  0.53376139  0.84968665  1  0  0.109632  0  0.965555  0  0  0.110885  0  1.04267  0  0  0.114618  0  1.037588  0  0  0.132841  0.108165  0  1.046327  0
H  H4  1  0.97418171  0.87382294  0.20396030  1  0  0.097208  0  0.964754  0  0  0.10734  0  1.024589  0  0  0.108774  0  1.024974  0  0  0.11308  0.106506  0  1.023976  0
H  H5  1  0.02581721  0.12617785  0.79604279  1  0  0.097233  0  0.964726  0  0  0.107361  0  1.024563  0  0  0.108789  0  1.024966  0  0  0.11309  0.106527  0  1.023951  0
H  H6  1  0.79209736  0.72724281  0.27376308  1  0  0.118559  0  0.937448  0  0  0.131748  0  0.991108  0  0  0.134155  0  0.990958  0  0  0.123711  0.130012  0  0.991308  0
H  H7  1  0.20790350  0.27275169  0.72623679  1  0  0.118552  0  0.937393  0  0  0.131712  0  0.991084  0  0  0.13412  0  0.990936  0  0  0.123706  0.129977  0  0.991282  0
H  H8  1  0.86265577  0.35636918  0.19969155  1  0  0.109624  0  0.926821  0  0  0.122209  0  0.988073  0  0  0.12358  0  0.987254  0  0  0.118699  0.121251  0  0.988598  0
H  H9  1  0.13735224  0.64362746  0.80031060  1  0  0.109656  0  0.926856  0  0  0.122197  0  0.988168  0  0  0.123563  0  0.987349  0  0  0.118699  0.12124  0  0.988695  0
H  H10  1  0.72547289  0.45068137  0.22800165  1  0  0.08699  0  0.919249  0  0  0.100549  0  0.982916  0  0  0.101101  0  0.982935  0  0  0.112041  0.100114  0  0.982854  0
H  H11  1  0.27453449  0.54931739  0.77200235  1  0  0.087016  0  0.919227  0  0  0.10056  0  0.9829  0  0  0.101123  0  0.98291  0  0  0.112038  0.100127  0  0.982839  0
H  H12  1  0.72232028  0.40189447  0.39499830  1  0  0.090561  0  0.94377  0  0  0.103542  0  0.997822  0  0  0.106632  0  0.996502  0  0  0.09998  0.101348  0  0.998827  0
H  H13  1  0.27768059  0.59810524  0.60500199  1  0  0.090531  0  0.943806  0  0  0.103491  0  0.997875  0  0  0.106582  0  0.996556  0  0  0.099955  0.1013  0  0.99888  0
H  H14  1  0.85027144  0.43350768  0.60351904  1  0  0.083003  0  0.972174  0  0  0.09075  0  1.041235  0  0  0.093253  0  1.040562  0  0  0.095113  0.088841  0  1.042074  0
H  H15  1  0.14973591  0.56649105  0.39648342  1  0  0.082955  0  0.972139  0  0  0.090684  0  1.041242  0  0  0.093189  0  1.040569  0  0  0.095073  0.088773  0  1.042084  0
H  H16  1  0.52335025  0.97805121  0.32894053  1  0  0.107831  0  0.908962  0  0  0.120099  0  0.965031  0  0  0.122843  0  0.96165  0  0  0.144918  0.118116  0  0.967433  0
H  H17  1  0.47665156  0.02195271  0.67106247  1  0  0.107829  0  0.90902  0  0  0.120106  0  0.965082  0  0  0.122851  0  0.9617  0  0  0.144925  0.118124  0  0.967486  0
H  H18  1  0.37326286  0.57037141  0.30955558  1  0  0.10745  0  0.953881  0  0  0.115319  0  1.016438  0  0  0.118025  0  1.01506  0  0  0.116999  0.113349  0  1.017502  0
H  H19  1  0.62673555  0.42962724  0.69044385  1  0  0.107463  0  0.953928  0  0  0.115317  0  1.016498  0  0  0.118023  0  1.015121  0  0  0.116982  0.113348  0  1.017561  0
H  H20  1  0.61153524  0.71273726  0.52725454  1  0  0.113021  0  0.970193  0  0  0.122169  0  1.032664  0  0  0.125155  0  1.030779  0  0  0.115282  0.120041  0  1.034032  0
H  H21  1  0.38846806  0.28726349  0.47274508  1  0  0.112964  0  0.970211  0  0  0.122112  0  1.032695  0  0  0.125098  0  1.03081  0  0  0.115246  0.119983  0  1.034063  0
H  H22  1  0.74768416  0.96745273  0.63047618  1  0  0.098537  0  0.947195  0  0  0.106274  0  1.022076  0  0  0.108493  0  1.019441  0  0  0.111303  0.104498  0  1.024255  0
H  H23  1  0.25232164  0.03255433  0.36952702  1  0  0.098511  0  0.947156  0  0  0.106205  0  1.022087  0  0  0.108423  0  1.019461  0  0  0.111293  0.104428  0  1.024267  0
H  H24  1  0.69131517  0.08710039  0.55813986  1  0  0.08459  0  0.937434  0  0  0.096717  0  1.004061  0  0  0.097172  0  1.004791  0  0  0.111878  0.096303  0  1.00364  0
H  H25  1  0.30868525  0.91290244  0.44186026  1  0  0.084602  0  0.937487  0  0  0.096734  0  1.004087  0  0  0.097209  0  1.004798  0  0  0.111872  0.096321  0  1.003666  0
H  H26  1  0.18743842  0.85564765  0.56067443  1  0  0.086623  0  0.955004  0  0  0.099526  0  1.013163  0  0  0.101852  0  1.012706  0  0  0.098488  0.097625  0  1.01414  0
H  H27  1  0.81256268  0.14435832  0.43932658  1  0  0.086585  0  0.955003  0  0  0.099473  0  1.01318  0  0  0.101799  0  1.012723  0  0  0.098456  0.09757  0  1.014155  0
H  H28  1  0.95694022  0.84475540  0.60480752  1  0  0.088675  0  0.971398  0  0  0.095903  0  1.039368  0  0  0.098454  0  1.038893  0  0  0.093004  0.094244  0  1.039522  0
H  H29  1  0.04306004  0.15525166  0.39519657  1  0  0.088602  0  0.971497  0  0  0.095867  0  1.03943  0  0  0.098421  0  1.038951  0  0  0.093029  0.094206  0  1.039584  0
C  C30  1  0.37747765  0.50526544  0.04043579  1  0  0.274012  0  3.851768  0  0  0.245939  0  4.130987  0  0  0.26713  0  4.138717  0  0  0.099184  0.232077  0  4.12467  0
C  C31  1  0.62251925  0.49473637  0.95956626  1  0  0.273969  0  3.851995  0  0  0.245979  0  4.131151  0  0  0.267173  0  4.138878  0  0  0.099212  0.232116  0  4.124834  0
C  C32  1  0.43629626  0.38303799  0.02302881  1  0  -0.167119  0  3.850522  0  0  -0.170143  0  4.150499  0  0  -0.186616  0  4.174512  0  0  -0.053453  -0.158996  0  4.133682  0
C  C33  1  0.56369432  0.61696060  0.97696787  1  0  -0.167166  0  3.85069  0  0  -0.170305  0  4.150771  0  0  -0.186777  0  4.174782  0  0  -0.053496  -0.159159  0  4.133958  0
C  C34  1  0.55065134  0.36896434  0.97892364  1  0  0.276362  0  3.848311  0  0  0.252716  0  4.124805  0  0  0.274284  0  4.131014  0  0  0.102051  0.238281  0  4.119841  0
C  C35  1  0.44934310  0.63102600  0.02107671  1  0  0.276379  0  3.848416  0  0  0.252766  0  4.124941  0  0  0.274332  0  4.13115  0  0  0.101941  0.238331  0  4.119979  0
C  C36  1  0.12131915  0.98029850  0.09572582  1  0  0.279658  0  3.851607  0  0  0.256462  0  4.123814  0  0  0.277112  0  4.131506  0  0  0.105585  0.242527  0  4.118278  0
C  C37  1  0.87866795  0.01970515  0.90426200  1  0  0.279538  0  3.851912  0  0  0.256448  0  4.123881  0  0  0.277083  0  4.131583  0  0  0.105527  0.242512  0  4.118346  0
C  C38  1  0.07306922  0.10756768  0.11428936  1  0  -0.153814  0  3.806509  0  0  -0.159061  0  4.104344  0  0  -0.175833  0  4.128265  0  0  -0.047521  -0.148235  0  4.088024  0
C  C39  1  0.92692728  0.89243294  0.88570241  1  0  -0.153686  0  3.80611  0  0  -0.158908  0  4.103853  0  0  -0.175672  0  4.127788  0  0  -0.047435  -0.148082  0  4.087532  0
C  C40  1  0.95911569  0.13465019  0.02502341  1  0  0.299838  0  3.81756  0  0  0.27462  0  4.088046  0  0  0.296786  0  4.093972  0  0  0.116424  0.260072  0  4.08334  0
C  C41  1  0.04088282  0.86534420  0.97496898  1  0  0.299756  0  3.817577  0  0  0.274484  0  4.088185  0  0  0.296628  0  4.094135  0  0  0.116372  0.259935  0  4.08348  0
C  C42  1  0.01825519  0.55968051  0.17660951  1  0  0.170286  0  3.619539  0  0  0.107906  0  3.890721  0  0  0.121854  0  3.901923  0  0  0.142029  0.098737  0  3.883164  0
C  C43  1  0.98175040  0.44032551  0.82339416  1  0  0.170315  0  3.619425  0  0  0.10791  0  3.890637  0  0  0.121863  0  3.90183  0  0  0.142011  0.098741  0  3.883082  0
C  C44  1  0.96763696  0.76810274  0.20440653  1  0  0.011985  0  3.750891  0  0  -0.021695  0  4.018731  0  0  -0.019497  0  4.039438  0  0  -0.004703  -0.023128  0  4.004497  0
C  C45  1  0.03236301  0.23189801  0.79559301  1  0  0.011912  0  3.750979  0  0  -0.021754  0  4.018805  0  0  -0.019559  0  4.039507  0  0  -0.00473  -0.023187  0  4.00457  0
C  C46  1  0.87564462  0.69690513  0.23833641  1  0  -0.06336  0  3.673245  0  0  -0.103896  0  3.934048  0  0  -0.103302  0  3.954208  0  0  -0.000143  -0.10437  0  3.920725  0
C  C47  1  0.12435471  0.30309251  0.76166455  1  0  -0.06335  0  3.673288  0  0  -0.10386  0  3.93409  0  0  -0.103267  0  3.954252  0  0  -0.000162  -0.104333  0  3.920767  0
C  C48  1  0.84833345  0.45610756  0.25257718  1  0  -0.048811  0  3.64217  0  0  -0.114012  0  3.889293  0  0  -0.109975  0  3.900065  0  0  -0.044772  -0.11663  0  3.88174  0
C  C49  1  0.15167612  0.54389118  0.74742507  1  0  -0.048934  0  3.642284  0  0  -0.114096  0  3.889432  0  0  -0.110062  0  3.900195  0  0  -0.044776  -0.116716  0  3.881886  0
C  C50  1  0.92717875  0.48118390  0.38096053  1  0  0.070503  0  3.755195  0  0  0.088617  0  3.996297  0  0  0.087951  0  4.021206  0  0  -0.014671  0.089279  0  3.979223  0
C  C51  1  0.07282859  0.51880962  0.61904151  1  0  0.070728  0  3.755051  0  0  0.08879  0  3.996206  0  0  0.088124  0  4.021118  0  0  -0.014558  0.08945  0  3.979135  0
C  C52  1  0.84458542  0.44487891  0.44097670  1  0  -0.124889  0  3.776383  0  0  -0.139895  0  4.017303  0  0  -0.143104  0  4.039527  0  0  -0.095004  -0.137912  0  4.002159  0
C  C53  1  0.15542127  0.55511670  0.55902641  1  0  -0.124844  0  3.776392  0  0  -0.139806  0  4.017312  0  0  -0.143014  0  4.039533  0  0  -0.094948  -0.137826  0  4.002172  0
C  C54  1  0.91650160  0.46315351  0.55844018  1  0  -0.114542  0  3.779621  0  0  -0.137332  0  4.033398  0  0  -0.139779  0  4.055886  0  0  -0.098354  -0.135384  0  4.018434  0
C  C55  1  0.08350422  0.53684315  0.44156371  1  0  -0.114433  0  3.779702  0  0  -0.137234  0  4.033464  0  0  -0.139683  0  4.055955  0  0  -0.098274  -0.135284  0  4.018501  0
C  C56  1  0.51409780  0.88538085  0.35187440  1  0  0.16475  0  3.645192  0  0  0.101908  0  3.916749  0  0  0.115845  0  3.927833  0  0  0.14477  0.093006  0  3.908735  0
C  C57  1  0.48590243  0.11462098  0.64812774  1  0  0.164773  0  3.645257  0  0  0.101911  0  3.916834  0  0  0.115849  0  3.927915  0  0  0.144802  0.093008  0  3.908819  0
C  C58  1  0.43931710  0.67653180  0.34676166  1  0  -0.009197  0  3.76889  0  0  -0.04165  0  4.032763  0  0  -0.040404  0  4.053591  0  0  -0.006732  -0.042463  0  4.018715  0
C  C59  1  0.56068093  0.32347003  0.65324144  1  0  -0.009288  0  3.769065  0  0  -0.041716  0  4.032934  0  0  -0.040472  0  4.053762  0  0  -0.006706  -0.042531  0  4.018885  0
C  C60  1  0.55658428  0.74454459  0.45364929  1  0  -0.082676  0  3.702503  0  0  -0.120316  0  3.955789  0  0  -0.119405  0  3.975466  0  0  -0.006698  -0.120804  0  3.942428  0
C  C61  1  0.44341061  0.25545824  0.54635172  1  0  -0.082538  0  3.70251  0  0  -0.120189  0  3.955795  0  0  -0.119278  0  3.975477  0  0  -0.00665  -0.120676  0  3.94243  0
C  C62  1  0.72830940  0.98712398  0.54935760  1  0  -0.050294  0  3.647747  0  0  -0.118269  0  3.90071  0  0  -0.11351  0  3.910006  0  0  -0.051105  -0.121342  0  3.894417  0
C  C63  1  0.27169215  0.01287887  0.45064357  1  0  -0.050331  0  3.647811  0  0  -0.118277  0  3.900697  0  0  -0.113538  0  3.910001  0  0  -0.051099  -0.12135  0  3.894402  0
C  C64  1  0.86948707  0.99333628  0.52429608  1  0  0.059824  0  3.783237  0  0  0.078573  0  4.023536  0  0  0.077118  0  4.048978  0  0  -0.015545  0.079677  0  4.006168  0
C  C65  1  0.13051023  0.00666757  0.47570349  1  0  0.059806  0  3.783337  0  0  0.078614  0  4.023539  0  0  0.077162  0  4.048987  0  0  -0.015565  0.079718  0  4.006172  0
C  C66  1  0.10548896  0.91970649  0.53451970  1  0  -0.109686  0  3.768641  0  0  -0.130257  0  4.014439  0  0  -0.133011  0  4.037169  0  0  -0.090963  -0.128562  0  3.999676  0
C  C67  1  0.89451083  0.08029846  0.46548303  1  0  -0.109639  0  3.768893  0  0  -0.130177  0  4.014721  0  0  -0.13293  0  4.037452  0  0  -0.090934  -0.12848  0  3.999953  0
C  C68  1  0.97565487  0.91254041  0.55859671  1  0  -0.106319  0  3.751334  0  0  -0.123534  0  3.995359  0  0  -0.126304  0  4.017552  0  0  -0.091247  -0.121591  0  3.980151  0
C  C69  1  0.02434357  0.08746348  0.44140467  1  0  -0.106294  0  3.751798  0  0  -0.123564  0  3.995818  0  0  -0.126336  0  4.018007  0  0  -0.091315  -0.12162  0  3.980607  0
N  N70  1  0.05656879  0.68177953  0.16677119  1  0  -0.372236  0  3.270808  0  0  -0.297882  0  3.557969  0  0  -0.318093  0  3.573957  0  0  -0.352641  -0.284004  0  3.546798  0
N  N71  1  0.94343142  0.31822227  0.83322941  1  0  -0.372212  0  3.270762  0  0  -0.297859  0  3.557943  0  0  -0.318069  0  3.573927  0  0  -0.352602  -0.28398  0  3.546771  0
N  N72  1  0.90840407  0.56490922  0.21962345  1  0  -0.058072  0  3.577584  0  0  0.036397  0  3.795042  0  0  0.02125  0  3.822179  0  0  -0.243052  0.046421  0  3.776748  0
N  N73  1  0.09160441  0.43508953  0.78038005  1  0  -0.058084  0  3.577473  0  0  0.036398  0  3.794912  0  0  0.021252  0  3.822048  0  0  -0.243084  0.046422  0  3.776622  0
N  N74  1  0.41385089  0.76619108  0.28484806  1  0  -0.361843  0  3.291759  0  0  -0.289309  0  3.574819  0  0  -0.308418  0  3.591381  0  0  -0.346733  -0.27637  0  3.563278  0
N  N75  1  0.58614513  0.23381178  0.71515477  1  0  -0.361766  0  3.291898  0  0  -0.289243  0  3.574966  0  0  -0.308351  0  3.591526  0  0  -0.346743  -0.276303  0  3.563424  0
N  N76  1  0.60210798  0.87700462  0.45555188  1  0  -0.061791  0  3.580762  0  0  0.031282  0  3.803198  0  0  0.016431  0  3.829787  0  0  -0.243757  0.041151  0  3.784939  0
N  N77  1  0.39789025  0.12299824  0.54444998  1  0  -0.061828  0  3.580797  0  0  0.031261  0  3.803207  0  0  0.016408  0  3.829803  0  0  -0.243777  0.041131  0  3.784945  0
Cl  Cl78  1  0.35923512  0.24272968  0.04722740  1  0  -0.074946  0  1.390462  0  0  -0.068281  0  1.61664  0  0  -0.067948  0  1.613251  0  0  -0.037686  -0.069054  0  1.621108  0
Cl  Cl79  1  0.64076222  0.75726380  0.95277440  1  0  -0.074889  0  1.390523  0  0  -0.068185  0  1.616736  0  0  -0.067855  0  1.613349  0  0  -0.037619  -0.068957  0  1.621203  0
Cl  Cl80  1  0.15954035  0.23986536  0.24949001  1  0  -0.080776  0  1.414298  0  0  -0.06547  0  1.661003  0  0  -0.064856  0  1.655305  0  0  -0.005653  -0.065858  0  1.665252  0
Cl  Cl81  1  0.84044922  0.76012894  0.75049860  1  0  -0.08083  0  1.414181  0  0  -0.065536  0  1.660876  0  0  -0.064923  0  1.655176  0  0  -0.005675  -0.065922  0  1.665125  0
O  O82  1  0.26689000  0.52082594  0.07126876  1  0  -0.488801  0  2.076716  0  0  -0.430699  0  2.329015  0  0  -0.453994  0  2.32328  0  0  -0.285524  -0.414237  0  2.332048  0
O  O83  1  0.73310442  0.47916959  0.92873125  1  0  -0.488792  0  2.076983  0  0  -0.430751  0  2.329341  0  0  -0.454046  0  2.323603  0  0  -0.285599  -0.414287  0  2.332373  0
O  O84  1  0.59997483  0.25803688  0.95334889  1  0  -0.478156  0  2.06477  0  0  -0.424778  0  2.301303  0  0  -0.445932  0  2.29398  0  0  -0.287758  -0.410732  0  2.30782  0
O  O85  1  0.40002901  0.74196084  0.04665627  1  0  -0.478211  0  2.064655  0  0  -0.424817  0  2.301161  0  0  -0.445968  0  2.293833  0  0  -0.287709  -0.410766  0  2.307671  0
O  O86  1  0.91733848  0.24998681  0.03697790  1  0  -0.474666  0  2.117974  0  0  -0.41409  0  2.361846  0  0  -0.436379  0  2.3551  0  0  -0.264691  -0.398894  0  2.366037  0
O  O87  1  0.08265026  0.75000859  0.96301455  1  0  -0.474766  0  2.118099  0  0  -0.414125  0  2.361967  0  0  -0.436403  0  2.355225  0  0  -0.264756  -0.398928  0  2.366157  0
O  O88  1  0.22598161  0.95062733  0.17120173  1  0  -0.495751  0  2.062312  0  0  -0.440856  0  2.307453  0  0  -0.463476  0  2.300822  0  0  -0.285572  -0.425217  0  2.311944  0
O  O89  1  0.77401195  0.04937011  0.82878707  1  0  -0.495714  0  2.062539  0  0  -0.440857  0  2.307607  0  0  -0.463462  0  2.300966  0  0  -0.285519  -0.425221  0  2.3121  0
