# generated using pymatgen
data_ZnH14C16(NO)4
_symmetry_space_group_name_H-M   'P 1'
_cell_length_a   8.57840243
_cell_length_b   10.32556868
_cell_length_c   22.01581034
_cell_angle_alpha   89.99984495
_cell_angle_beta   89.99989614
_cell_angle_gamma   103.39851603
_symmetry_Int_Tables_number   1
_chemical_formula_structural   ZnH14C16(NO)4
_chemical_formula_sum   'Zn4 H56 C64 N16 O16'
_cell_volume   1897.01403108
_cell_formula_units_Z   4
loop_
 _symmetry_equiv_pos_site_id
 _symmetry_equiv_pos_as_xyz
  1  'x, y, z'
loop_
 _atom_site_type_symbol
 _atom_site_label
 _atom_site_symmetry_multiplicity
 _atom_site_fract_x
 _atom_site_fract_y
 _atom_site_fract_z
 _atom_site_occupancy
 _atom_site_pbe_bader_charge
 _atom_site_pbe_bader_spin_density
 _atom_site_pbe_cm5_charge
 _atom_site_pbe_ddec_charge
 _atom_site_pbe_ddec_spin_density
 _atom_site_pbe_ddec_sum_bond_order
 _atom_site_pbe_magmom
Zn  Zn0  1  0.36073487  0.41333043  0.60190977  1  1.249952  0  0.694515  0.767556  0  2.404962  0
Zn  Zn1  1  0.13926465  0.58666778  0.10191043  1  1.249902  0  0.694494  0.767533  0  2.40494  0
Zn  Zn2  1  0.63926465  0.58666911  0.39809058  1  1.249895  0  0.694495  0.767539  0  2.404967  0
Zn  Zn3  1  0.86073631  0.41333275  0.89809038  1  1.249949  0  0.694484  0.76749  0  2.405022  0
H  H4  1  0.18604122  0.43297550  0.97966562  1  0.206208  0  0.139343  0.119649  0  1.017361  0
H  H5  1  0.31395841  0.56702106  0.47966618  1  0.206248  0  0.13935  0.119665  0  1.017348  0
H  H6  1  0.81395865  0.56702105  0.02033428  1  0.206234  0  0.139347  0.119671  0  1.017357  0
H  H7  1  0.68604344  0.43297849  0.52033418  1  0.206249  0  0.139369  0.119706  0  1.017336  0
H  H8  1  0.46050628  0.79226127  0.05285816  1  0.136219  0  0.122049  0.12139  0  1.015871  0
H  H9  1  0.03949281  0.20773032  0.55285709  1  0.136446  0  0.122033  0.121387  0  1.015837  0
H  H10  1  0.53949510  0.20773230  0.94714265  1  0.136468  0  0.122049  0.121396  0  1.015824  0
H  H11  1  0.96050733  0.79226723  0.44714191  1  0.136444  0  0.122034  0.121378  0  1.01585  0
H  H12  1  0.59747551  0.73765788  0.94189197  1  0.16017  0  0.12646  0.14249  0  1.026409  0
H  H13  1  0.90252579  0.26234168  0.44189195  1  0.160179  0  0.12645  0.142472  0  1.026424  0
H  H14  1  0.40252518  0.26234166  0.05810793  1  0.160181  0  0.126459  0.142488  0  1.026402  0
H  H15  1  0.09747634  0.73765886  0.55810750  1  0.160208  0  0.12646  0.142483  0  1.026396  0
H  H16  1  0.36402281  0.39733279  0.89260224  1  0.083788  0  0.115806  0.095254  0  0.998026  0
H  H17  1  0.13597678  0.60266636  0.39260288  1  0.083811  0  0.115821  0.095262  0  0.998009  0
H  H18  1  0.63597644  0.60266575  0.10739721  1  0.083806  0  0.115824  0.095269  0  0.998013  0
H  H19  1  0.86402534  0.39733418  0.60739748  1  0.083821  0  0.115827  0.095257  0  0.998021  0
H  H20  1  0.54024015  0.52342404  0.87555071  1  0.134036  0  0.115714  0.114583  0  1.012939  0
H  H21  1  0.95975897  0.47657499  0.37555174  1  0.134027  0  0.115732  0.114579  0  1.012889  0
H  H22  1  0.45975965  0.47657649  0.12444919  1  0.134038  0  0.115715  0.114575  0  1.01295  0
H  H23  1  0.04024055  0.52342455  0.62444907  1  0.134027  0  0.115728  0.11457  0  1.012917  0
H  H24  1  0.20033223  0.56633513  0.85728575  1  0.139457  0  0.114232  0.107376  0  1.027806  0
H  H25  1  0.29966526  0.43366427  0.35728558  1  0.13926  0  0.114211  0.107305  0  1.027851  0
H  H26  1  0.79966613  0.43366441  0.14271415  1  0.139251  0  0.114207  0.107305  0  1.027863  0
H  H27  1  0.70033337  0.56633626  0.64271432  1  0.13923  0  0.114214  0.107345  0  1.027828  0
H  H28  1  0.38074007  0.65918292  0.82408267  1  0.067187  0  0.122933  0.108162  0  0.944752  0
H  H29  1  0.11925709  0.34081472  0.32408456  1  0.067148  0  0.122946  0.108156  0  0.944767  0
H  H30  1  0.61925890  0.34081463  0.17591632  1  0.067144  0  0.122946  0.108163  0  0.944751  0
H  H31  1  0.88074127  0.65918481  0.67591625  1  0.06717  0  0.122953  0.108179  0  0.944738  0
H  H32  1  0.42821230  0.60354654  0.71775592  1  0.151192  0  0.142132  0.11255  0  0.98689  0
H  H33  1  0.07178735  0.39644987  0.21775641  1  0.151158  0  0.142141  0.112558  0  0.986902  0
H  H34  1  0.57178612  0.39644902  0.28224444  1  0.151399  0  0.142124  0.112555  0  0.98688  0
H  H35  1  0.92821074  0.60354867  0.78224349  1  0.151442  0  0.142119  0.112547  0  0.986881  0
H  H36  1  0.13294126  0.29826256  0.82157615  1  0.167431  0  0.12233  0.130775  0  1.045578  0
H  H37  1  0.36705681  0.70173411  0.32157605  1  0.167468  0  0.122341  0.130813  0  1.045561  0
H  H38  1  0.86705977  0.70173400  0.17842375  1  0.167454  0  0.122336  0.130798  0  1.045565  0
H  H39  1  0.63294217  0.29826344  0.67842431  1  0.167462  0  0.122341  0.130819  0  1.045539  0
H  H40  1  0.15325654  0.20968811  0.70167828  1  0.112073  0  0.125495  0.131801  0  0.991175  0
H  H41  1  0.34673704  0.79031138  0.20167898  1  0.112113  0  0.125476  0.131773  0  0.991153  0
H  H42  1  0.84673894  0.79030943  0.29832117  1  0.112122  0  0.125469  0.131773  0  0.991177  0
H  H43  1  0.65325809  0.20968915  0.79832228  1  0.112161  0  0.125481  0.131804  0  0.991165  0
H  H44  1  0.72306155  0.77475510  0.55590475  1  0.092967  0  0.097039  0.093489  0  1.06416  0
H  H45  1  0.77693365  0.22524119  0.05590668  1  0.09293  0  0.097018  0.093458  0  1.064218  0
H  H46  1  0.27693392  0.22524244  0.44409334  1  0.092917  0  0.09701  0.093436  0  1.064235  0
H  H47  1  0.22306471  0.77475834  0.94409414  1  0.092932  0  0.097011  0.093455  0  1.064213  0
H  H48  1  0.86939759  0.00589701  0.53152589  1  0.089149  0  0.098489  0.095209  0  1.014686  0
H  H49  1  0.63060010  0.99409946  0.03152830  1  0.089107  0  0.098508  0.095238  0  1.014668  0
H  H50  1  0.13060022  0.99410054  0.46847220  1  0.089097  0  0.098514  0.09524  0  1.014666  0
H  H51  1  0.36940031  0.00589909  0.96847251  1  0.089041  0  0.098497  0.09523  0  1.014665  0
H  H52  1  0.73513348  0.19450973  0.54809663  1  0.074443  0  0.096114  0.087609  0  1.051408  0
H  H53  1  0.76486698  0.80548862  0.04809692  1  0.074345  0  0.096143  0.087633  0  1.051418  0
H  H54  1  0.26486693  0.80548882  0.45190372  1  0.074361  0  0.09615  0.087656  0  1.051313  0
H  H55  1  0.23513974  0.19451591  0.95190343  1  0.074396  0  0.096171  0.087694  0  1.051371  0
H  H56  1  0.31302874  0.91810753  0.61138584  1  0.113514  0  0.102801  0.108935  0  1.019179  0
H  H57  1  0.18697093  0.08189559  0.11138483  1  0.113303  0  0.10278  0.108902  0  1.019192  0
H  H58  1  0.68697071  0.08189599  0.38861497  1  0.113302  0  0.102779  0.108904  0  1.019173  0
H  H59  1  0.81303141  0.91810992  0.88861598  1  0.113327  0  0.102804  0.108946  0  1.019163  0
C  C60  1  0.27958926  0.52278673  0.98644747  1  0.956414  0  0.15087  0.105056  0  3.877684  0
C  C61  1  0.22041149  0.47720978  0.48644731  1  0.955973  0  0.150897  0.105085  0  3.877565  0
C  C62  1  0.72041177  0.47720983  0.01355288  1  0.955979  0  0.150864  0.10503  0  3.877601  0
C  C63  1  0.77959036  0.52278976  0.51355260  1  0.95598  0  0.150833  0.104952  0  3.877597  0
C  C64  1  0.42676689  0.70944412  0.02163703  1  0.390211  0  -0.002504  -0.045329  0  4.00897  0
C  C65  1  0.07323378  0.29055267  0.52163673  1  0.390065  0  -0.002505  -0.045304  0  4.009015  0
C  C66  1  0.57323352  0.29055442  0.97836333  1  0.390002  0  -0.002503  -0.045307  0  4.008953  0
C  C67  1  0.92676808  0.70944688  0.47836272  1  0.389971  0  -0.00251  -0.045339  0  4.009072  0
C  C68  1  0.49262462  0.68601082  0.96703670  1  0.287357  0  0.002179  -0.108399  0  3.88927  0
C  C69  1  0.00737654  0.31398682  0.46703689  1  0.28735  0  0.002178  -0.10843  0  3.889242  0
C  C70  1  0.50737607  0.31398872  0.03296320  1  0.287371  0  0.002167  -0.108447  0  3.889272  0
C  C71  1  0.99262415  0.68601272  0.53296256  1  0.287303  0  0.002183  -0.108409  0  3.889214  0
C  C72  1  0.41263014  0.50465217  0.88718559  1  0.281094  0  -0.048103  -0.087596  0  3.838083  0
C  C73  1  0.08736804  0.49534602  0.38718640  1  0.28108  0  -0.048136  -0.087595  0  3.837938  0
C  C74  1  0.58736911  0.49534637  0.11281431  1  0.280734  0  -0.048148  -0.087633  0  3.838092  0
C  C75  1  0.91263175  0.50465451  0.61281441  1  0.28108  0  -0.048139  -0.087568  0  3.837976  0
C  C76  1  0.31678202  0.55920392  0.83847560  1  0.280155  0  -0.045723  -0.086372  0  3.849289  0
C  C77  1  0.18321272  0.44079362  0.33847595  1  0.280379  0  -0.045676  -0.086274  0  3.849167  0
C  C78  1  0.68321346  0.44079362  0.16152431  1  0.280724  0  -0.045679  -0.086314  0  3.849259  0
C  C79  1  0.81678303  0.55920492  0.66152395  1  0.280379  0  -0.045706  -0.086397  0  3.849295  0
C  C80  1  0.35265179  0.50703504  0.72890572  1  0.976073  0  0.144153  0.090945  0  3.920941  0
C  C81  1  0.14734716  0.49296327  0.22890604  1  0.976088  0  0.144139  0.090968  0  3.921083  0
C  C82  1  0.64734835  0.49296251  0.27109418  1  0.975845  0  0.144153  0.090951  0  3.920999  0
C  C83  1  0.85265003  0.50703626  0.77109386  1  0.975811  0  0.144151  0.09094  0  3.920926  0
C  C84  1  0.19696449  0.34537625  0.78197320  1  0.279012  0  -0.001555  -0.108014  0  3.905014  0
C  C85  1  0.30303267  0.65462069  0.28197320  1  0.27904  0  -0.001495  -0.10801  0  3.904943  0
C  C86  1  0.80303538  0.65462030  0.21802716  1  0.279046  0  -0.001466  -0.107975  0  3.904908  0
C  C87  1  0.69696630  0.34537686  0.71802716  1  0.279034  0  -0.001548  -0.108077  0  3.904903  0
C  C88  1  0.20603752  0.30424535  0.72303694  1  0.432029  0  0.001131  -0.030546  0  3.98494  0
C  C89  1  0.29395681  0.69575299  0.22303689  1  0.43206  0  0.001174  -0.030442  0  3.984855  0
C  C90  1  0.79396029  0.69575220  0.27696342  1  0.432057  0  0.001147  -0.030481  0  3.98481  0
C  C91  1  0.70603922  0.30424653  0.77696392  1  0.43196  0  0.001181  -0.030487  0  3.984821  0
C  C92  1  0.41903861  0.69207505  0.59946997  1  1.548881  0  0.194565  0.554801  0  4.234869  0
C  C93  1  0.08095942  0.30792616  0.09946966  1  1.548955  0  0.194636  0.554985  0  4.23464  0
C  C94  1  0.58096084  0.30792847  0.40053039  1  1.54898  0  0.194605  0.554882  0  4.234774  0
C  C95  1  0.91904003  0.69207736  0.90052889  1  1.548792  0  0.194598  0.554915  0  4.23467  0
C  C96  1  0.50983414  0.83158763  0.58583646  1  -0.067305  0  -0.026054  -0.04692  0  3.990005  0
C  C97  1  0.99015990  0.16841342  0.08583831  1  -0.067155  0  -0.026108  -0.047069  0  3.990062  0
C  C98  1  0.49016127  0.16841389  0.41416117  1  -0.067167  0  -0.026072  -0.047041  0  3.990101  0
C  C99  1  0.00984072  0.83159010  0.91416069  1  -0.067274  0  -0.026093  -0.046962  0  3.990014  0
C  C100  1  0.66692269  0.85756037  0.56344566  1  -0.02318  0  -0.084733  -0.078886  0  3.95748  0
C  C101  1  0.83307445  0.14243885  0.06344765  1  -0.023228  0  -0.08467  -0.078764  0  3.957517  0
C  C102  1  0.33307478  0.14244015  0.43655288  1  -0.023265  0  -0.084683  -0.078758  0  3.957525  0
C  C103  1  0.16692651  0.85756168  0.93655316  1  -0.023238  0  -0.084675  -0.078798  0  3.957526  0
C  C104  1  0.74824085  0.98751391  0.54992481  1  -0.120629  0  -0.094252  -0.088709  0  4.017176  0
C  C105  1  0.75175871  0.01248542  0.04992748  1  -0.120161  0  -0.094317  -0.088833  0  4.017238  0
C  C106  1  0.25176128  0.01248663  0.45007328  1  -0.120305  0  -0.094299  -0.088772  0  4.017219  0
C  C107  1  0.24824459  0.98751513  0.95007378  1  -0.120001  0  -0.094289  -0.088755  0  4.017122  0
C  C108  1  0.67371520  0.09257529  0.55897890  1  -0.008431  0  -0.083762  -0.088975  0  3.971151  0
C  C109  1  0.82628636  0.90742298  0.05897947  1  -0.008648  0  -0.083744  -0.088894  0  3.97115  0
C  C110  1  0.32628693  0.90742525  0.44102055  1  -0.008467  0  -0.083756  -0.088999  0  3.971125  0
C  C111  1  0.17371865  0.09257956  0.94102089  1  -0.008905  0  -0.08381  -0.089125  0  3.971197  0
C  C112  1  0.51643350  0.06779076  0.58133291  1  -0.016013  0  -0.021688  -0.037122  0  3.98285  0
C  C113  1  0.98356586  0.93220835  0.08133288  1  -0.016017  0  -0.021693  -0.037215  0  3.982988  0
C  C114  1  0.48356630  0.93220978  0.41866700  1  -0.016015  0  -0.021718  -0.037131  0  3.982935  0
C  C115  1  0.01643799  0.06779419  0.91866657  1  -0.015944  0  -0.021635  -0.036932  0  3.982765  0
C  C116  1  0.43249846  0.17808796  0.59132296  1  1.515017  0  0.194739  0.559482  0  4.209568  0
C  C117  1  0.06750278  0.82191630  0.09132292  1  1.514946  0  0.194724  0.559502  0  4.209493  0
C  C118  1  0.56750388  0.82191755  0.40867694  1  1.514953  0  0.194684  0.559448  0  4.209466  0
C  C119  1  0.93250010  0.17809121  0.90867790  1  1.515039  0  0.194738  0.559387  0  4.209804  0
C  C120  1  0.43538548  0.93710217  0.59440254  1  -0.029619  0  -0.077242  -0.100317  0  3.938335  0
C  C121  1  0.06461258  0.06289908  0.09440391  1  -0.029559  0  -0.07722  -0.100222  0  3.938236  0
C  C122  1  0.56461226  0.06289936  0.40559601  1  -0.029602  0  -0.07722  -0.10027  0  3.938264  0
C  C123  1  0.93539325  0.93710645  0.90559690  1  -0.02942  0  -0.07728  -0.100459  0  3.938339  0
N  N124  1  0.29087756  0.47399191  0.78484738  1  -1.234098  0  -0.239898  0.048009  0  3.781848  0
N  N125  1  0.20911986  0.52600601  0.28484716  1  -1.234166  0  -0.239949  0.047964  0  3.781827  0
N  N126  1  0.70912141  0.52600564  0.21515343  1  -1.234158  0  -0.239929  0.048021  0  3.781823  0
N  N127  1  0.79087733  0.47399352  0.71515275  1  -1.234107  0  -0.239916  0.04802  0  3.781877  0
N  N128  1  0.30294590  0.40630111  0.69039848  1  -1.236144  0  -0.360572  -0.288678  0  3.643157  0
N  N129  1  0.19705187  0.59369648  0.19039909  1  -1.236161  0  -0.360611  -0.288788  0  3.643369  0
N  N130  1  0.69705280  0.59369545  0.30960188  1  -1.236155  0  -0.360638  -0.28882  0  3.643218  0
N  N131  1  0.80294505  0.40630206  0.80960218  1  -1.236162  0  -0.360578  -0.288689  0  3.643173  0
N  N132  1  0.29475737  0.60673112  0.03320201  1  -1.243305  0  -0.361545  -0.284661  0  3.62351  0
N  N133  1  0.20524384  0.39326360  0.53320195  1  -1.243012  0  -0.361569  -0.28474  0  3.623609  0
N  N134  1  0.70524366  0.39326544  0.96679835  1  -1.242927  0  -0.361561  -0.284719  0  3.623635  0
N  N135  1  0.79475890  0.60673495  0.46679796  1  -1.242913  0  -0.361576  -0.284702  0  3.623648  0
N  N136  1  0.39801801  0.56727639  0.94561584  1  -1.229307  0  -0.240068  0.050482  0  3.756629  0
N  N137  1  0.10198384  0.43272340  0.44561536  1  -1.229307  0  -0.240089  0.050491  0  3.756488  0
N  N138  1  0.60198241  0.43272216  0.05438497  1  -1.229342  0  -0.240038  0.05058  0  3.756453  0
N  N139  1  0.89801829  0.56727714  0.55438455  1  -1.22931  0  -0.240008  0.050623  0  3.75634  0
O  O140  1  0.27652460  0.67091590  0.61735399  1  -1.192433  0  -0.331925  -0.577873  0  2.182962  0
O  O141  1  0.22347708  0.32908619  0.11735129  1  -1.192439  0  -0.331977  -0.577988  0  2.182836  0
O  O142  1  0.72347718  0.32908763  0.38264818  1  -1.192382  0  -0.331947  -0.577896  0  2.182943  0
O  O143  1  0.77652415  0.67091534  0.88264635  1  -1.192416  0  -0.331929  -0.577908  0  2.182941  0
O  O144  1  0.49703013  0.59902825  0.59149664  1  -1.182343  0  -0.337698  -0.564652  0  2.326104  0
O  O145  1  0.00296706  0.40097401  0.09149626  1  -1.182419  0  -0.33768  -0.564631  0  2.325983  0
O  O146  1  0.50296959  0.40097626  0.40850508  1  -1.182434  0  -0.337707  -0.564642  0  2.326019  0
O  O147  1  0.99703329  0.59902852  0.90850319  1  -1.182265  0  -0.337702  -0.564658  0  2.325945  0
O  O148  1  0.51890534  0.29959441  0.58524313  1  -1.174567  0  -0.339577  -0.570389  0  2.284459  0
O  O149  1  0.98109975  0.70040867  0.08524522  1  -1.174403  0  -0.339575  -0.570385  0  2.284364  0
O  O150  1  0.48109905  0.70041012  0.41475450  1  -1.174385  0  -0.339564  -0.570379  0  2.28434  0
O  O151  1  0.01890464  0.29959586  0.91475650  1  -1.174611  0  -0.339589  -0.570341  0  2.284551  0
O  O152  1  0.28728151  0.15313199  0.60584396  1  -1.166662  0  -0.326182  -0.552133  0  2.12284  0
O  O153  1  0.21271936  0.84687117  0.10584378  1  -1.166703  0  -0.326175  -0.552159  0  2.122803  0
O  O154  1  0.71272028  0.84687154  0.39415595  1  -1.16672  0  -0.326144  -0.552127  0  2.122772  0
O  O155  1  0.78728476  0.15313236  0.89415704  1  -1.166672  0  -0.326176  -0.552119  0  2.122962  0
