# generated using pymatgen
data_MnH3C7NO4
_symmetry_space_group_name_H-M   'P 1'
_cell_length_a   6.00357576
_cell_length_b   7.35254150
_cell_length_c   14.65922635
_cell_angle_alpha   89.99995077
_cell_angle_beta   89.99980570
_cell_angle_gamma   90.00004995
_symmetry_Int_Tables_number   1
_chemical_formula_structural   MnH3C7NO4
_chemical_formula_sum   'Mn4 H12 C28 N4 O16'
_cell_volume   647.08082530
_cell_formula_units_Z   4
loop_
 _symmetry_equiv_pos_site_id
 _symmetry_equiv_pos_as_xyz
  1  'x, y, z'
loop_
 _atom_site_type_symbol
 _atom_site_label
 _atom_site_symmetry_multiplicity
 _atom_site_fract_x
 _atom_site_fract_y
 _atom_site_fract_z
 _atom_site_occupancy
 _atom_site_hle17_ddec_charge
 _atom_site_hle17_ddec_spin_density
 _atom_site_hle17_ddec_sum_bond_order
 _atom_site_hle17_magmom
 _atom_site_hse06_10hf_ddec_charge
 _atom_site_hse06_10hf_ddec_spin_density
 _atom_site_hse06_10hf_ddec_sum_bond_order
 _atom_site_hse06_10hf_magmom
 _atom_site_hse06_ddec_charge
 _atom_site_hse06_ddec_spin_density
 _atom_site_hse06_ddec_sum_bond_order
 _atom_site_hse06_magmom
 _atom_site_pbe_cm5_charge
 _atom_site_pbe_ddec_charge
 _atom_site_pbe_ddec_spin_density
 _atom_site_pbe_ddec_sum_bond_order
 _atom_site_pbe_magmom
Mn  Mn0  1  0.09023404  0.13108478  0.54020236  1  1.203395  -4.794977  1.715664  -4.662  1.037  -4.721136  2.223658  -4.514  1.099149  -4.768318  2.147164  -4.584  0.63511  0.989683  -4.668967  2.279919  -4.441
Mn  Mn1  1  0.90977283  0.63108648  0.45979842  1  1.203387  -4.794974  1.715646  -4.662  1.036987  -4.721114  2.223623  -4.514  1.099136  -4.768296  2.147132  -4.584  0.635105  0.989664  -4.668946  2.279887  -4.441
Mn  Mn2  1  0.90976270  0.13107204  0.04020269  1  1.203374  -4.794936  1.715598  -4.662  1.037005  -4.72114  2.223552  -4.514  1.099158  -4.768321  2.147064  -4.584  0.635107  0.989678  -4.668972  2.279815  -4.441
Mn  Mn3  1  0.09022918  0.63108562  0.95979604  1  1.203435  -4.794967  1.715613  -4.662  1.037009  -4.721121  2.22362  -4.514  1.099158  -4.768303  2.147122  -4.584  0.635131  0.98968  -4.668951  2.279883  -4.441
H  H4  1  0.95730517  0.15700574  0.25209583  1  0.089073  0.000486  0.951883  0.0  0.093629  -2.5e-05  1.023807  0.0  0.096817  0.000138  1.020922  0.0  0.119366  0.091206  -0.000201  1.026212  -0.001
H  H5  1  0.04269173  0.65701698  0.74790153  1  0.089104  0.000462  0.951806  0.0  0.093598  -2.6e-05  1.023806  0.0  0.096792  0.000138  1.020913  0.0  0.119341  0.091177  -0.000202  1.02621  -0.001
H  H6  1  0.04269317  0.15701300  0.75209489  1  0.089048  0.000468  0.951882  0.0  0.093608  -2.6e-05  1.023806  0.0  0.096801  0.000138  1.020913  0.0  0.119348  0.091185  -0.000201  1.026212  -0.001
H  H7  1  0.95730706  0.65700700  0.24790589  1  0.08905  0.000463  0.951874  0.0  0.093639  -2.6e-05  1.023773  0.0  0.096829  0.000139  1.020886  0.0  0.119364  0.091219  -0.000202  1.026179  -0.001
H  H8  1  0.22975576  0.44091275  0.19943594  1  0.118763  -4.1e-05  0.934498  0.0  0.128008  -0.000187  0.996389  0.0  0.131604  -4.4e-05  0.994585  0.0  0.115419  0.125278  -0.000335  0.99814  0.0
H  H9  1  0.77024470  0.94092315  0.80056406  1  0.118787  -3.4e-05  0.934429  0.0  0.128033  -0.000187  0.996326  0.0  0.131629  -4.4e-05  0.994515  0.0  0.115409  0.125301  -0.000335  0.998078  0.0
H  H10  1  0.77024325  0.44092064  0.69943398  1  0.118788  -4e-05  0.934447  0.0  0.128036  -0.000187  0.996346  0.0  0.131634  -4.4e-05  0.994535  0.0  0.115415  0.125305  -0.000335  0.998097  0.0
H  H11  1  0.22975888  0.94091662  0.30056465  1  0.118817  -2.5e-05  0.934493  0.0  0.12806  -0.000187  0.996389  0.0  0.131654  -4.5e-05  0.994587  0.0  0.115424  0.125328  -0.000335  0.998138  0.0
H  H12  1  0.47838141  0.34803761  0.07239429  1  0.103318  0.001037  0.974509  0.0  0.108419  0.000633  1.037974  0.0  0.11167  0.000811  1.03506  0.0  0.124261  0.105828  0.000416  1.040459  0.0
H  H13  1  0.52160565  0.84805707  0.92760437  1  0.103454  0.001037  0.974322  0.0  0.108418  0.000634  1.037958  0.0  0.111671  0.000812  1.03504  0.0  0.124249  0.105826  0.000417  1.040442  0.0
H  H14  1  0.52161358  0.34805345  0.57239404  1  0.103387  0.001037  0.974421  0.0  0.108407  0.000633  1.037989  0.0  0.111659  0.000812  1.035074  0.0  0.124246  0.105821  0.000417  1.040472  0.0
H  H15  1  0.47838848  0.84805619  0.42760667  1  0.103362  0.001037  0.974456  0.0  0.108382  0.000634  1.038031  0.0  0.111634  0.000812  1.035115  0.0  0.124246  0.105795  0.000417  1.040513  0.0
C  C16  1  0.79513022  0.22112908  0.24313775  1  0.117043  -0.008451  3.672977  -0.008  0.075816  -0.010309  3.931403  -0.009  0.083529  -0.009015  3.949211  -0.008  0.054237  0.070013  -0.012212  3.920959  -0.01
C  C17  1  0.20486674  0.72113636  0.75686164  1  0.117198  -0.00837  3.672981  -0.008  0.076012  -0.010306  3.931323  -0.009  0.0837  -0.009012  3.949175  -0.008  0.054363  0.070203  -0.012211  3.920888  -0.01
C  C18  1  0.20486825  0.22113376  0.74313794  1  0.117251  -0.008379  3.673061  -0.008  0.075984  -0.010308  3.9314  -0.009  0.083679  -0.009013  3.949239  -0.008  0.054338  0.070176  -0.012211  3.920964  -0.01
C  C19  1  0.79513370  0.72112897  0.25686485  1  0.117189  -0.008377  3.672918  -0.008  0.075913  -0.010305  3.931345  -0.009  0.083625  -0.009016  3.949156  -0.008  0.054301  0.070108  -0.012213  3.920902  -0.01
C  C20  1  0.66843710  0.27166658  0.31887648  1  -0.120675  0.006286  3.726891  0.004  -0.103371  0.00277  3.964624  0.002  -0.114185  0.004804  3.986321  0.003  -0.003574  -0.096891  0.000591  3.951219  0.001
C  C21  1  0.33155990  0.77167140  0.68112357  1  -0.120937  0.00625  3.727074  0.004  -0.10353  0.002762  3.964785  0.002  -0.114334  0.00479  3.986468  0.003  -0.003647  -0.097053  0.000591  3.95138  0.001
C  C22  1  0.33155746  0.27166729  0.81887581  1  -0.120925  0.006247  3.72708  0.004  -0.103474  0.002767  3.964682  0.002  -0.114282  0.004799  3.986369  0.003  -0.003602  -0.096993  0.000591  3.951273  0.001
C  C23  1  0.66843288  0.77165573  0.18112424  1  -0.120796  0.006259  3.726752  0.004  -0.103493  0.002759  3.964508  0.002  -0.114304  0.004791  3.986206  0.003  -0.00361  -0.097013  0.00059  3.951106  0.001
C  C24  1  0.45709980  0.35002716  0.30459005  1  -0.014473  -0.009185  3.679101  -0.009  -0.00774  -0.011225  3.915195  -0.01  -0.007161  -0.009177  3.932873  -0.008  0.011988  -0.008574  -0.014923  3.904153  -0.012
C  C25  1  0.54290059  0.85002398  0.69540998  1  -0.014435  -0.009177  3.67899  -0.009  -0.007745  -0.01122  3.915122  -0.01  -0.007167  -0.009167  3.932791  -0.008  0.011988  -0.008579  -0.014924  3.904079  -0.012
C  C26  1  0.54290326  0.35002397  0.80458841  1  -0.014391  -0.009174  3.678983  -0.009  -0.007718  -0.011224  3.915125  -0.01  -0.007137  -0.009175  3.932795  -0.008  0.012005  -0.00855  -0.014924  3.904081  -0.012
C  C27  1  0.45709380  0.85001629  0.19541094  1  -0.014444  -0.009162  3.679027  -0.009  -0.007716  -0.011217  3.915145  -0.01  -0.007142  -0.009168  3.932826  -0.008  0.012  -0.008549  -0.014922  3.904103  -0.012
C  C28  1  0.39103123  0.38003997  0.21455942  1  -0.109764  0.005903  3.675879  0.004  -0.133835  0.002254  3.935963  0.001  -0.139542  0.004008  3.953847  0.002  -0.071458  -0.130393  0.000901  3.925082  0.001
C  C29  1  0.60896586  0.88005163  0.78544060  1  -0.109719  0.005851  3.675898  0.004  -0.133768  0.002252  3.935921  0.001  -0.13949  0.004003  3.953847  0.002  -0.071427  -0.130323  0.000902  3.925033  0.001
C  C30  1  0.60896428  0.38005044  0.71455768  1  -0.109759  0.005865  3.675958  0.004  -0.133832  0.002255  3.936053  0.001  -0.139544  0.004002  3.953951  0.002  -0.07144  -0.13039  0.000901  3.925168  0.001
C  C31  1  0.39103281  0.88004252  0.28544165  1  -0.10986  0.005789  3.67603  0.003  -0.133935  0.002252  3.936116  0.001  -0.139637  0.004008  3.953999  0.002  -0.071483  -0.13049  0.000901  3.925228  0.001
C  C32  1  0.52880440  0.32731956  0.14291912  1  0.159358  -0.00863  3.636131  -0.008  0.123149  -0.011336  3.89803  -0.01  0.133447  -0.009373  3.910486  -0.008  0.060372  0.115668  -0.014703  3.89031  -0.012
C  C33  1  0.47119098  0.82733639  0.85708023  1  0.159214  -0.00861  3.636159  -0.008  0.123083  -0.011335  3.898088  -0.01  0.133381  -0.009374  3.910535  -0.008  0.060343  0.115603  -0.014703  3.890361  -0.012
C  C34  1  0.47119166  0.32732991  0.64291826  1  0.159305  -0.008597  3.636138  -0.008  0.123133  -0.011337  3.898071  -0.01  0.133435  -0.009371  3.910512  -0.008  0.060367  0.11565  -0.014703  3.89035  -0.012
C  C35  1  0.52880871  0.82733148  0.35708177  1  0.159363  -0.008587  3.63621  -0.008  0.123185  -0.011336  3.898127  -0.01  0.133484  -0.009378  3.910578  -0.008  0.060365  0.115704  -0.014702  3.890401  -0.012
C  C36  1  0.77419368  0.24663301  0.41016431  1  0.679127  -0.01527  3.876681  -0.013  0.620219  -0.023437  4.171657  -0.019  0.658124  -0.018017  4.163235  -0.015  0.229019  0.593399  -0.029144  4.176728  -0.024
C  C37  1  0.22581329  0.74663249  0.58983439  1  0.679289  -0.015285  3.876488  -0.013  0.620271  -0.023436  4.171612  -0.019  0.658179  -0.018015  4.163181  -0.015  0.229025  0.593452  -0.029144  4.176682  -0.024
C  C38  1  0.22581009  0.24663091  0.91016516  1  0.679206  -0.015287  3.87669  -0.013  0.620249  -0.023435  4.171678  -0.019  0.658155  -0.018015  4.163255  -0.015  0.229026  0.593425  -0.029143  4.176755  -0.024
C  C39  1  0.77419188  0.74661147  0.08983695  1  0.679064  -0.015266  3.876717  -0.013  0.620173  -0.023435  4.171692  -0.019  0.658077  -0.018017  4.163277  -0.015  0.228935  0.593353  -0.029143  4.17677  -0.024
C  C40  1  0.29581229  0.38589760  0.38166516  1  0.682303  -0.00828  3.852947  -0.009  0.628488  -0.015255  4.146862  -0.014  0.665081  -0.011224  4.137548  -0.011  0.233656  0.602814  -0.019689  4.15234  -0.018
C  C41  1  0.70419480  0.88589744  0.61833485  1  0.682309  -0.008263  3.852761  -0.009  0.628468  -0.015258  4.146754  -0.014  0.665062  -0.011225  4.137436  -0.011  0.23363  0.602795  -0.01969  4.152232  -0.018
C  C42  1  0.70419017  0.38589455  0.88166398  1  0.682472  -0.008272  3.852731  -0.009  0.628593  -0.015253  4.14676  -0.014  0.66519  -0.011221  4.137443  -0.011  0.233685  0.602917  -0.019686  4.152245  -0.018
C  C43  1  0.29580526  0.88588144  0.11833740  1  0.682255  -0.008289  3.852546  -0.009  0.628416  -0.015256  4.146499  -0.014  0.66501  -0.011225  4.137191  -0.011  0.233578  0.602742  -0.01969  4.151983  -0.018
N  N44  1  0.72741594  0.24630955  0.15662368  1  -0.343738  -0.021428  3.247272  -0.005  -0.275108  -0.026202  3.540745  -0.004  -0.294817  -0.02183  3.551872  -0.001  -0.321748  -0.261082  -0.030783  3.533223  -0.008
N  N45  1  0.27257437  0.74632352  0.84337502  1  -0.343824  -0.021459  3.247264  -0.005  -0.275158  -0.026203  3.54067  -0.004  -0.294864  -0.021829  3.551795  -0.001  -0.321776  -0.26113  -0.030783  3.53314  -0.008
N  N46  1  0.27257660  0.24632109  0.65662378  1  -0.343906  -0.021469  3.247331  -0.005  -0.275226  -0.026203  3.540763  -0.004  -0.294933  -0.021833  3.551889  -0.001  -0.321837  -0.261199  -0.030785  3.533242  -0.008
N  N47  1  0.72742204  0.74631878  0.34337833  1  -0.343844  -0.021465  3.247297  -0.005  -0.275152  -0.026203  3.540729  -0.004  -0.294866  -0.021825  3.551866  -0.001  -0.321765  -0.261124  -0.030783  3.533206  -0.008
O  O48  1  0.88229414  0.10117314  0.42365474  1  -0.6154  -0.037294  2.044795  -0.028  -0.552164  -0.04387  2.311606  -0.031  -0.584329  -0.038101  2.299741  -0.025  -0.287418  -0.527799  -0.049568  2.318937  -0.036
O  O49  1  0.11771271  0.60117527  0.57634537  1  -0.615393  -0.037288  2.044837  -0.028  -0.552144  -0.043871  2.311724  -0.031  -0.584307  -0.038104  2.299851  -0.025  -0.287408  -0.52778  -0.049569  2.319056  -0.036
O  O50  1  0.11770940  0.10117230  0.92365642  1  -0.615377  -0.037288  2.04479  -0.028  -0.552147  -0.04387  2.311623  -0.031  -0.584311  -0.038102  2.299751  -0.025  -0.287427  -0.527789  -0.049569  2.318957  -0.036
O  O51  1  0.88229912  0.60115570  0.07634915  1  -0.615186  -0.037289  2.044894  -0.028  -0.551945  -0.043869  2.311679  -0.031  -0.584113  -0.0381  2.299814  -0.025  -0.287237  -0.527585  -0.049564  2.319013  -0.036
O  O52  1  0.76619659  0.37589845  0.46880177  1  -0.665942  -0.042859  2.080143  -0.025  -0.593066  -0.056649  2.361945  -0.034  -0.625905  -0.049449  2.342787  -0.028  -0.304275  -0.56791  -0.06405  2.374338  -0.041
O  O53  1  0.23380882  0.87589806  0.53119620  1  -0.665964  -0.042856  2.07998  -0.025  -0.593091  -0.056654  2.361891  -0.034  -0.625929  -0.049451  2.342728  -0.028  -0.304254  -0.567939  -0.064054  2.374286  -0.041
O  O54  1  0.23380847  0.37589772  0.96880124  1  -0.66594  -0.042853  2.080095  -0.025  -0.593097  -0.056647  2.361965  -0.034  -0.625939  -0.049447  2.342808  -0.028  -0.304276  -0.56795  -0.064048  2.374361  -0.041
O  O55  1  0.76620028  0.87587839  0.03119741  1  -0.666041  -0.042868  2.080121  -0.025  -0.593173  -0.056653  2.361916  -0.034  -0.62603  -0.049452  2.342768  -0.028  -0.304295  -0.568019  -0.064053  2.374313  -0.041
O  O56  1  0.30039757  0.27372000  0.44736442  1  -0.631044  -0.03148  2.060725  -0.019  -0.563014  -0.040869  2.328543  -0.026  -0.594559  -0.035615  2.31414  -0.021  -0.294275  -0.539401  -0.046429  2.337761  -0.031
O  O57  1  0.69960443  0.77371996  0.55263495  1  -0.631052  -0.031487  2.060609  -0.019  -0.56298  -0.04087  2.328401  -0.026  -0.594533  -0.03562  2.31402  -0.021  -0.294258  -0.539365  -0.04643  2.337621  -0.031
O  O58  1  0.69961258  0.27371015  0.94735847  1  -0.63112  -0.031484  2.060796  -0.019  -0.563077  -0.040872  2.328666  -0.026  -0.594615  -0.035619  2.314238  -0.021  -0.294286  -0.539423  -0.046432  2.337791  -0.031
O  O59  1  0.30039608  0.77371213  0.05263545  1  -0.630973  -0.031476  2.060433  -0.019  -0.562906  -0.040867  2.32826  -0.026  -0.594421  -0.035615  2.313799  -0.021  -0.294187  -0.539274  -0.046425  2.337433  -0.031
O  O60  1  0.16433907  0.52041158  0.37210606  1  -0.651342  -0.035804  2.044121  -0.025  -0.586396  -0.045158  2.316192  -0.031  -0.618892  -0.039599  2.30416  -0.025  -0.300676  -0.561808  -0.050907  2.323561  -0.036
O  O61  1  0.83567104  0.02040764  0.62789476  1  -0.651375  -0.035808  2.044172  -0.025  -0.586445  -0.04516  2.316279  -0.031  -0.618934  -0.039597  2.304242  -0.025  -0.300677  -0.561857  -0.05091  2.323649  -0.036
O  O62  1  0.83566358  0.52041273  0.87210606  1  -0.65147  -0.035808  2.044037  -0.025  -0.58648  -0.04516  2.316109  -0.031  -0.618973  -0.039598  2.304072  -0.025  -0.300706  -0.561896  -0.050909  2.323477  -0.036
O  O63  1  0.16432655  0.02039561  0.12789749  1  -0.651379  -0.035797  2.044003  -0.025  -0.586456  -0.045159  2.316109  -0.031  -0.618957  -0.039595  2.304078  -0.025  -0.300744  -0.56187  -0.050909  2.323479  -0.036
