# generated using pymatgen
data_CdH12C15N3O7
_symmetry_space_group_name_H-M   'P 1'
_cell_length_a   8.18022642
_cell_length_b   10.26022414
_cell_length_c   11.39194085
_cell_angle_alpha   69.81600055
_cell_angle_beta   69.68314508
_cell_angle_gamma   68.41624655
_symmetry_Int_Tables_number   1
_chemical_formula_structural   CdH12C15N3O7
_chemical_formula_sum   'Cd2 H24 C30 N6 O14'
_cell_volume   807.47549508
_cell_formula_units_Z   2
loop_
 _symmetry_equiv_pos_site_id
 _symmetry_equiv_pos_as_xyz
  1  'x, y, z'
loop_
 _atom_site_type_symbol
 _atom_site_label
 _atom_site_symmetry_multiplicity
 _atom_site_fract_x
 _atom_site_fract_y
 _atom_site_fract_z
 _atom_site_occupancy
 _atom_site_hle17_bader_spin_density
 _atom_site_hle17_ddec_charge
 _atom_site_hle17_ddec_spin_density
 _atom_site_hle17_ddec_sum_bond_order
 _atom_site_hle17_magmom
 _atom_site_hse06_10hf_bader_spin_density
 _atom_site_hse06_10hf_ddec_charge
 _atom_site_hse06_10hf_ddec_spin_density
 _atom_site_hse06_10hf_ddec_sum_bond_order
 _atom_site_hse06_10hf_magmom
 _atom_site_hse06_bader_spin_density
 _atom_site_hse06_ddec_charge
 _atom_site_hse06_ddec_spin_density
 _atom_site_hse06_ddec_sum_bond_order
 _atom_site_hse06_magmom
 _atom_site_pbe_bader_spin_density
 _atom_site_pbe_cm5_charge
 _atom_site_pbe_ddec_charge
 _atom_site_pbe_ddec_spin_density
 _atom_site_pbe_ddec_sum_bond_order
 _atom_site_pbe_magmom
Cd  Cd0  1  0.15511047  0.07996303  0.06210391  1  0  1.186096  0  1.623813  0  0  1.007837  0  2.059833  0  0  1.064209  0  2.005974  0  0  0.778363  0.964712  0  2.098765  0
Cd  Cd1  1  0.84489033  0.92003854  0.93789599  1  0  1.186091  0  1.623829  0  0  1.007836  0  2.059841  0  0  1.064208  0  2.00598  0  0  0.778365  0.964709  0  2.098773  0
H  H2  1  0.46888125  0.04908385  0.13551522  1  0  0.420553  0  0.884752  0  0  0.389727  0  0.949273  0  0  0.400725  0  0.93323  0  0  0.287418  0.38186  0  0.960762  0
H  H3  1  0.53111899  0.95091557  0.86448547  1  0  0.420543  0  0.884762  0  0  0.389718  0  0.94928  0  0  0.400717  0  0.933237  0  0  0.287428  0.381852  0  0.960767  0
H  H4  1  0.40507660  0.27565421  0.61959140  1  0  0.098163  0  0.942758  0  0  0.112406  0  0.997986  0  0  0.115598  0  0.996164  0  0  0.10198  0.110025  0  0.999535  0
H  H5  1  0.59492176  0.72434307  0.38040953  1  0  0.098165  0  0.942768  0  0  0.112404  0  0.997997  0  0  0.115595  0  0.996177  0  0  0.101991  0.110022  0  0.999549  0
H  H6  1  0.40204856  0.64688297  0.22693207  1  0  0.122919  0  0.943648  0  0  0.130464  0  1.007025  0  0  0.134141  0  1.004089  0  0  0.118055  0.127789  0  1.009076  0
H  H7  1  0.59795261  0.35311751  0.77306806  1  0  0.122922  0  0.943593  0  0  0.13046  0  1.006979  0  0  0.134134  0  1.004053  0  0  0.118047  0.127779  0  1.00904  0
H  H8  1  0.43856591  0.22164861  0.21767568  1  0  0.120679  0  0.949953  0  0  0.12621  0  1.018324  0  0  0.130476  0  1.013899  0  0  0.117366  0.123241  0  1.021339  0
H  H9  1  0.56143526  0.77835188  0.78232445  1  0  0.120712  0  0.949916  0  0  0.126259  0  1.018277  0  0  0.130526  0  1.013848  0  0  0.117368  0.123288  0  1.021293  0
H  H10  1  0.86317056  0.42181281  0.97306720  1  0  0.123029  0  0.933914  0  0  0.127335  0  1.000652  0  0  0.131722  0  0.996557  0  0  0.113168  0.124145  0  1.003655  0
H  H11  1  0.13683154  0.57818875  0.02693238  1  0  0.123024  0  0.933938  0  0  0.127338  0  1.000672  0  0  0.131726  0  0.996577  0  0  0.113169  0.124149  0  1.003676  0
H  H12  1  0.90078129  0.23816885  0.53625924  1  0  0.094952  0  0.937498  0  0  0.104811  0  1.008134  0  0  0.106114  0  1.007184  0  0  0.113359  0.103868  0  1.008824  0
H  H13  1  0.09921635  0.76183056  0.46374299  1  0  0.094941  0  0.937473  0  0  0.104846  0  1.008091  0  0  0.106148  0  1.007144  0  0  0.113374  0.103902  0  1.008779  0
H  H14  1  0.72943045  0.14920459  0.63098119  1  0  0.100773  0  0.945984  0  0  0.11713  0  1.006467  0  0  0.118484  0  1.005218  0  0  0.113516  0.116088  0  1.00748  0
H  H15  1  0.27056848  0.85079483  0.36901983  1  0  0.100761  0  0.945934  0  0  0.117165  0  1.006396  0  0  0.118521  0  1.005148  0  0  0.113526  0.116121  0  1.007413  0
H  H16  1  0.00571075  0.25130267  0.28530929  1  0  0.112246  0  0.947979  0  0  0.120214  0  1.012982  0  0  0.123103  0  1.00924  0  0  0.136819  0.117984  0  1.015828  0
H  H17  1  0.99428911  0.74869782  0.71469117  1  0  0.112237  0  0.947981  0  0  0.120202  0  1.012988  0  0  0.123091  0  1.009247  0  0  0.136825  0.117971  0  1.015835  0
H  H18  1  0.66726193  0.98697099  0.53876438  1  0  0.119414  0  0.949613  0  0  0.129691  0  1.01017  0  0  0.132761  0  1.008156  0  0  0.124912  0.127399  0  1.011838  0
H  H19  1  0.33273696  0.01302847  0.46123401  1  0  0.11941  0  0.949641  0  0  0.129686  0  1.010196  0  0  0.132755  0  1.008183  0  0  0.124906  0.127393  0  1.011864  0
H  H20  1  0.82776429  0.48819383  0.41336588  1  0  0.09859  0  0.970036  0  0  0.102631  0  1.041445  0  0  0.106655  0  1.038361  0  0  0.097589  0.099707  0  1.043759  0
H  H21  1  0.17223238  0.51180455  0.58663427  1  0  0.098579  0  0.970018  0  0  0.102629  0  1.041419  0  0  0.106655  0  1.038334  0  0  0.097594  0.099728  0  1.04371  0
H  H22  1  0.83080476  0.90295755  0.30622036  1  0  0.117966  0  0.932366  0  0  0.132357  0  0.981928  0  0  0.134852  0  0.980716  0  0  0.124366  0.130355  0  0.983262  0
H  H23  1  0.16919433  0.09704514  0.69377788  1  0  0.117944  0  0.932371  0  0  0.132323  0  0.98195  0  0  0.134816  0  0.980738  0  0  0.124364  0.130323  0  0.983282  0
H  H24  1  0.47094209  0.89286441  0.15825343  1  0  0.425897  0  0.878168  0  0  0.395682  0  0.941717  0  0  0.406597  0  0.92587  0  0  0.288347  0.387821  0  0.953187  0
H  H25  1  0.52905944  0.10713501  0.84174605  1  0  0.425875  0  0.878199  0  0  0.395664  0  0.94174  0  0  0.406579  0  0.925892  0  0  0.288351  0.387803  0  0.953209  0
C  C26  1  0.44723471  0.37365928  0.56568970  1  0  -0.108744  0  3.750943  0  0  -0.131575  0  4.003637  0  0  -0.134111  0  4.025588  0  0  -0.094451  -0.129575  0  3.988413  0
C  C27  1  0.55276493  0.62633802  0.43430914  1  0  -0.108785  0  3.75097  0  0  -0.131609  0  4.00366  0  0  -0.134145  0  4.025609  0  0  -0.094471  -0.129609  0  3.988427  0
C  C28  1  0.66407042  0.30640962  0.08976030  1  0  -0.068033  0  3.753575  0  0  -0.040532  0  3.992281  0  0  -0.052624  0  4.017429  0  0  -0.013899  -0.033272  0  3.976044  0
C  C29  1  0.33592902  0.69359200  0.91023730  1  0  -0.06805  0  3.753589  0  0  -0.040518  0  3.99229  0  0  -0.052613  0  4.017443  0  0  -0.0139  -0.033256  0  3.976049  0
C  C30  1  0.72203589  0.67211950  0.04442410  1  0  0.645862  0  3.919095  0  0  0.596398  0  4.20524  0  0  0.630851  0  4.19964  0  0  0.20019  0.573001  0  4.208048  0
C  C31  1  0.27796696  0.32787989  0.95557594  1  0  0.645871  0  3.918992  0  0  0.596398  0  4.205145  0  0  0.630851  0  4.199545  0  0  0.200254  0.573003  0  4.207954  0
C  C32  1  0.47849131  0.55139839  0.18997843  1  0  -0.070713  0  3.673663  0  0  -0.114057  0  3.931577  0  0  -0.109364  0  3.94909  0  0  -0.061316  -0.116037  0  3.918746  0
C  C33  1  0.52150818  0.44860319  0.81002181  1  0  -0.070674  0  3.673537  0  0  -0.113996  0  3.931482  0  0  -0.109304  0  3.948996  0  0  -0.06129  -0.11597  0  3.918656  0
C  C34  1  0.64503534  0.54552121  0.09791952  1  0  -0.050219  0  3.722106  0  0  -0.02179  0  3.955906  0  0  -0.032516  0  3.978542  0  0  -0.008159  -0.015082  0  3.940842  0
C  C35  1  0.35496585  0.45447924  0.90208237  1  0  -0.050197  0  3.72207  0  0  -0.021734  0  3.955839  0  0  -0.032461  0  3.978475  0  0  -0.008119  -0.015026  0  3.940775  0
C  C36  1  0.49962959  0.31002657  0.18406902  1  0  -0.070572  0  3.669168  0  0  -0.115083  0  3.929731  0  0  -0.109425  0  3.945358  0  0  -0.064756  -0.118057  0  3.919132  0
C  C37  1  0.50037250  0.68997501  0.81592967  1  0  -0.07065  0  3.669177  0  0  -0.115159  0  3.929768  0  0  -0.109502  0  3.945399  0  0  -0.064756  -0.11813  0  3.919165  0
C  C38  1  0.73626429  0.42367020  0.04767790  1  0  -0.025624  0  3.633879  0  0  -0.068097  0  3.885276  0  0  -0.062702  0  3.902063  0  0  -0.056709  -0.071239  0  3.874516  0
C  C39  1  0.26373518  0.57633139  0.95232145  1  0  -0.02564  0  3.633898  0  0  -0.068144  0  3.885299  0  0  -0.062747  0  3.902086  0  0  -0.056743  -0.071286  0  3.874538  0
C  C40  1  0.40902835  0.43325637  0.23106707  1  0  0.058984  0  3.706527  0  0  0.056381  0  3.967939  0  0  0.05067  0  3.990601  0  0  0.077695  0.059533  0  3.952667  0
C  C41  1  0.59097375  0.56674519  0.76893250  1  0  0.05901  0  3.706474  0  0  0.056315  0  3.968026  0  0  0.050603  0  3.990688  0  0  0.077662  0.059467  0  3.952752  0
C  C42  1  0.77504225  0.22152743  0.53766255  1  0  -0.058868  0  3.629622  0  0  -0.127183  0  3.876578  0  0  -0.122762  0  3.886453  0  0  -0.052474  -0.130016  0  3.869809  0
C  C43  1  0.22495218  0.77846988  0.46233850  1  0  -0.058749  0  3.629345  0  0  -0.127204  0  3.876466  0  0  -0.122788  0  3.886342  0  0  -0.052469  -0.130038  0  3.8697  0
C  C44  1  0.93603422  0.16821718  0.32071108  1  0  0.16757  0  3.641459  0  0  0.105406  0  3.905265  0  0  0.119646  0  3.918967  0  0  0.141752  0.09612  0  3.89559  0
C  C45  1  0.06396527  0.83178440  0.67928916  1  0  0.167625  0  3.641359  0  0  0.10546  0  3.905183  0  0  0.1197  0  3.918884  0  0  0.141771  0.096175  0  3.895506  0
C  C46  1  0.75797593  0.18273348  0.02681674  1  0  0.656532  0  3.911533  0  0  0.599915  0  4.207266  0  0  0.635037  0  4.201338  0  0  0.207026  0.576009  0  4.210372  0
C  C47  1  0.24202392  0.81726703  0.97318284  1  0  0.656494  0  3.911503  0  0  0.59983  0  4.20731  0  0  0.634952  0  4.201385  0  0  0.206947  0.575923  0  4.210415  0
C  C48  1  0.63229181  0.36533008  0.51646741  1  0  0.05871  0  3.761533  0  0  0.078307  0  4.004933  0  0  0.076752  0  4.030898  0  0  -0.018886  0.079397  0  3.987043  0
C  C49  1  0.36770581  0.63466934  0.48353394  1  0  0.058703  0  3.761498  0  0  0.078314  0  4.004937  0  0  0.07676  0  4.030902  0  0  -0.018906  0.079406  0  3.987053  0
C  C50  1  0.75837686  0.02971319  0.45048674  1  0  -0.066698  0  3.665741  0  0  -0.108133  0  3.925956  0  0  -0.10703  0  3.945086  0  0  0.001015  -0.108831  0  3.913247  0
C  C51  1  0.24162296  0.97028735  0.54951109  1  0  -0.066799  0  3.665787  0  0  -0.108215  0  3.925979  0  0  -0.107112  0  3.945107  0  0  0.000998  -0.108912  0  3.91327  0
C  C52  1  0.68404575  0.49288425  0.45058135  1  0  -0.113429  0  3.746857  0  0  -0.133369  0  3.99867  0  0  -0.136963  0  4.021897  0  0  -0.0971  -0.130779  0  3.982694  0
C  C53  1  0.31595395  0.50711298  0.54942101  1  0  -0.113499  0  3.746851  0  0  -0.133445  0  3.998674  0  0  -0.13704  0  4.021903  0  0  -0.097135  -0.130876  0  3.982681  0
C  C54  1  0.84060786  0.98907899  0.33569004  1  0  0.000499  0  3.758607  0  0  -0.03469  0  4.027734  0  0  -0.03241  0  4.048445  0  0  -0.003473  -0.036271  0  4.013658  0
C  C55  1  0.15939160  0.01092261  0.66430844  1  0  0.000584  0  3.758644  0  0  -0.034593  0  4.027759  0  0  -0.032309  0  4.048466  0  0  -0.003443  -0.036176  0  4.013687  0
N  N56  1  0.22778922  0.44222225  0.31979951  1  0  0.505996  0  3.897743  0  0  0.53322  0  4.197247  0  0  0.554473  0  4.205809  0  0  0.060482  0.518909  0  4.191756  0
N  N57  1  0.77221065  0.55777824  0.68020096  1  0  0.506018  0  3.897725  0  0  0.533256  0  4.197249  0  0  0.554509  0  4.205813  0  0  0.0605  0.518944  0  4.191757  0
N  N58  1  0.95111609  0.07636477  0.25590046  1  0  -0.413088  0  3.303578  0  0  -0.331732  0  3.585648  0  0  -0.35598  0  3.606147  0  0  -0.364962  -0.314627  0  3.570542  0
N  N59  1  0.04888562  0.92363789  0.74409801  1  0  -0.413164  0  3.303647  0  0  -0.331808  0  3.585713  0  0  -0.356059  0  3.606213  0  0  -0.365035  -0.314703  0  3.570608  0
N  N60  1  0.82092265  0.14287034  0.43907111  1  0  -0.043108  0  3.551993  0  0  0.051504  0  3.770702  0  0  0.036618  0  3.797373  0  0  -0.2367  0.061342  0  3.752571  0
N  N61  1  0.17907535  0.85712801  0.56093047  1  0  -0.043107  0  3.551875  0  0  0.051509  0  3.770642  0  0  0.036624  0  3.797311  0  0  -0.236692  0.061348  0  3.75251  0
O  O62  1  0.91830504  0.16979520  0.95542250  1  0  -0.648299  0  1.991302  0  0  -0.588682  0  2.243828  0  0  -0.615309  0  2.230083  0  0  -0.328083  -0.569333  0  2.252653  0
O  O63  1  0.08169425  0.83020315  0.04457787  1  0  -0.648288  0  1.991286  0  0  -0.58866  0  2.243844  0  0  -0.615287  0  2.230099  0  0  -0.328079  -0.569311  0  2.252669  0
O  O64  1  0.38607624  0.98626541  0.17698145  1  0  -0.83911  0  1.843698  0  0  -0.783932  0  2.032541  0  0  -0.806068  0  1.999179  0  0  -0.593449  -0.768336  0  2.056226  0
O  O65  1  0.61392361  0.01373510  0.82301813  1  0  -0.839077  0  1.843736  0  0  -0.783893  0  2.032579  0  0  -0.806028  0  1.999215  0  0  -0.593463  -0.768298  0  2.056261  0
O  O66  1  0.83998577  0.67980890  0.93688887  1  0  -0.625154  0  1.927537  0  0  -0.569321  0  2.161798  0  0  -0.597745  0  2.154397  0  0  -0.321103  -0.548646  0  2.165631  0
O  O67  1  0.16001670  0.32019158  0.06311093  1  0  -0.625119  0  1.927464  0  0  -0.569295  0  2.161739  0  0  -0.597728  0  2.154359  0  0  -0.321116  -0.54862  0  2.165572  0
O  O68  1  0.66530840  0.76873555  0.10784759  1  0  -0.66418  0  2.00718  0  0  -0.595425  0  2.237922  0  0  -0.624393  0  2.227174  0  0  -0.327024  -0.574088  0  2.245507  0
O  O69  1  0.33469447  0.23126383  0.89215332  1  0  -0.664214  0  2.007163  0  0  -0.595458  0  2.237909  0  0  -0.624424  0  2.22716  0  0  -0.327069  -0.57412  0  2.245493  0
O  O70  1  0.66770924  0.09491812  0.04599223  1  0  -0.653511  0  2.0808  0  0  -0.573352  0  2.323366  0  0  -0.604637  0  2.313189  0  0  -0.315088  -0.551016  0  2.330823  0
O  O71  1  0.33229157  0.90508343  0.95400855  1  0  -0.653469  0  2.080717  0  0  -0.573289  0  2.323301  0  0  -0.604573  0  2.313124  0  0  -0.315016  -0.550953  0  2.330758  0
O  O72  1  0.12561853  0.56383402  0.33052654  1  0  -0.340815  0  1.736283  0  0  -0.321889  0  1.936974  0  0  -0.333488  0  1.933728  0  0  -0.115136  -0.314126  0  1.939376  0
O  O73  1  0.87438131  0.43616651  0.66947216  1  0  -0.340827  0  1.736275  0  0  -0.321888  0  1.936941  0  0  -0.333487  0  1.933694  0  0  -0.11514  -0.314128  0  1.93935  0
O  O74  1  0.18557051  0.32719754  0.37764715  1  0  -0.375215  0  1.742319  0  0  -0.358734  0  1.953692  0  0  -0.371899  0  1.950237  0  0  -0.130618  -0.349922  0  1.95624  0
O  O75  1  0.81442934  0.67280297  0.62235243  1  0  -0.375256  0  1.742315  0  0  -0.358758  0  1.953677  0  0  -0.37192  0  1.950221  0  0  -0.130634  -0.349945  0  1.956225  0
