# generated using pymatgen
data_CuH8C12S2N5
_symmetry_space_group_name_H-M   'P 1'
_cell_length_a   7.66908902
_cell_length_b   9.37399212
_cell_length_c   9.87851370
_cell_angle_alpha   83.51602074
_cell_angle_beta   81.67812138
_cell_angle_gamma   71.64507651
_symmetry_Int_Tables_number   1
_chemical_formula_structural   CuH8C12S2N5
_chemical_formula_sum   'Cu2 H16 C24 S4 N10'
_cell_volume   665.22139524
_cell_formula_units_Z   2
loop_
 _symmetry_equiv_pos_site_id
 _symmetry_equiv_pos_as_xyz
  1  'x, y, z'
loop_
 _atom_site_type_symbol
 _atom_site_label
 _atom_site_symmetry_multiplicity
 _atom_site_fract_x
 _atom_site_fract_y
 _atom_site_fract_z
 _atom_site_occupancy
 _atom_site_hle17_bader_spin_density
 _atom_site_hle17_ddec_charge
 _atom_site_hle17_ddec_spin_density
 _atom_site_hle17_ddec_sum_bond_order
 _atom_site_hle17_magmom
 _atom_site_hse06_10hf_bader_spin_density
 _atom_site_hse06_10hf_ddec_charge
 _atom_site_hse06_10hf_ddec_spin_density
 _atom_site_hse06_10hf_ddec_sum_bond_order
 _atom_site_hse06_10hf_magmom
 _atom_site_hse06_bader_spin_density
 _atom_site_hse06_ddec_charge
 _atom_site_hse06_ddec_spin_density
 _atom_site_hse06_ddec_sum_bond_order
 _atom_site_hse06_magmom
 _atom_site_pbe_bader_spin_density
 _atom_site_pbe_cm5_charge
 _atom_site_pbe_ddec_charge
 _atom_site_pbe_ddec_spin_density
 _atom_site_pbe_ddec_sum_bond_order
 _atom_site_pbe_magmom
Cu  Cu0  1  0.95925517  0.83079123  0.16707606  1  0  0.529573  0  2.186136  0  0  0.439383  0  2.709357  0  0  0.426863  0  2.67077  0  0  0.583065  0.45135  0  2.732258  0
Cu  Cu1  1  0.04073673  0.16920808  0.83292074  1  0  0.529466  0  2.186188  0  0  0.43926  0  2.709436  0  0  0.42676  0  2.670821  0  0  0.583014  0.451224  0  2.732328  0
H  H2  1  0.98913104  0.86306860  0.57967557  1  0  0.111327  0  0.954895  0  0  0.121356  0  1.015407  0  0  0.124271  0  1.015522  0  0  0.102418  0.119374  0  1.015213  0
H  H3  1  0.01086708  0.13693183  0.42032747  1  0  0.111337  0  0.954867  0  0  0.121361  0  1.015387  0  0  0.124275  0  1.015503  0  0  0.102418  0.119378  0  1.015195  0
H  H4  1  0.23922496  0.94277591  0.65489528  1  0  0.089741  0  0.979085  0  0  0.097132  0  1.048032  0  0  0.100864  0  1.044615  0  0  0.099553  0.094576  0  1.049872  0
H  H5  1  0.76077575  0.05722116  0.34510678  1  0  0.089749  0  0.979021  0  0  0.097115  0  1.048005  0  0  0.100847  0  1.044589  0  0  0.099529  0.094562  0  1.049842  0
H  H6  1  0.56979086  0.82366214  0.55485544  1  0  0.100223  0  0.962921  0  0  0.104786  0  1.033464  0  0  0.108128  0  1.032827  0  0  0.098642  0.102501  0  1.033885  0
H  H7  1  0.43020987  0.17633152  0.44514898  1  0  0.100186  0  0.962942  0  0  0.104735  0  1.033506  0  0  0.108076  0  1.032867  0  0  0.098643  0.102449  0  1.033927  0
H  H8  1  0.63118857  0.63072349  0.38406132  1  0  0.065209  0  0.950494  0  0  0.071622  0  1.021643  0  0  0.074095  0  1.019772  0  0  0.102512  0.069947  0  1.022753  0
H  H9  1  0.36880995  0.36927583  0.61593976  1  0  0.065203  0  0.950538  0  0  0.071603  0  1.021685  0  0  0.074074  0  1.01982  0  0  0.102506  0.069926  0  1.0228  0
H  H10  1  0.33775689  0.28398542  0.09451533  1  0  0.11146  0  0.983649  0  0  0.117715  0  1.046866  0  0  0.121028  0  1.04634  0  0  0.101612  0.115458  0  1.047272  0
H  H11  1  0.66224160  0.71601733  0.90548236  1  0  0.111425  0  0.983685  0  0  0.117708  0  1.046884  0  0  0.121009  0  1.046371  0  0  0.101595  0.115461  0  1.047281  0
H  H12  1  0.46148533  0.33642273  0.85064882  1  0  0.095075  0  0.957199  0  0  0.104387  0  1.019934  0  0  0.10644  0  1.018662  0  0  0.105137  0.102507  0  1.021395  0
H  H13  1  0.53851270  0.66358117  0.14934678  1  0  0.095024  0  0.957266  0  0  0.104335  0  1.020011  0  0  0.106386  0  1.018743  0  0  0.105112  0.102457  0  1.02147  0
H  H14  1  0.36311639  0.60069222  0.74480940  1  0  0.10167  0  0.975347  0  0  0.10984  0  1.0404  0  0  0.112023  0  1.041269  0  0  0.100971  0.108175  0  1.039992  0
H  H15  1  0.63689312  0.39931284  0.25519284  1  0  0.101672  0  0.975294  0  0  0.109825  0  1.040371  0  0  0.112008  0  1.041242  0  0  0.100977  0.108163  0  1.039961  0
H  H16  1  0.14072361  0.80288886  0.88593339  1  0  0.082137  0  0.963124  0  0  0.08983  0  1.031167  0  0  0.092569  0  1.028391  0  0  0.111206  0.087893  0  1.032557  0
H  H17  1  0.85928720  0.19711623  0.11406769  1  0  0.082141  0  0.963105  0  0  0.089821  0  1.031168  0  0  0.092563  0  1.028394  0  0  0.111206  0.087885  0  1.032555  0
C  C18  1  0.54070616  0.97849437  0.17880344  1  0  0.494637  0  3.980672  0  0  0.466937  0  4.250011  0  0  0.487321  0  4.264365  0  0  0.302923  0.453329  0  4.239764  0
C  C19  1  0.45928799  0.02149924  0.82119974  1  0  0.494635  0  3.98075  0  0  0.46692  0  4.250116  0  0  0.487303  0  4.264475  0  0  0.302903  0.453311  0  4.239873  0
C  C20  1  0.23359759  0.00094861  0.18841471  1  0  0.497792  0  3.972808  0  0  0.466835  0  4.251274  0  0  0.488326  0  4.263434  0  0  0.303235  0.452569  0  4.24205  0
C  C21  1  0.76639260  0.99904499  0.81158691  1  0  0.497796  0  3.973105  0  0  0.466831  0  4.251562  0  0  0.488324  0  4.263722  0  0  0.303194  0.452567  0  4.242339  0
C  C22  1  0.18277999  0.71145516  0.43669358  1  0  0.190609  0  3.801762  0  0  0.196315  0  4.068079  0  0  0.203536  0  4.087424  0  0  0.110609  0.191369  0  4.05472  0
C  C23  1  0.81721985  0.28854418  0.56330734  1  0  0.190601  0  3.801727  0  0  0.196311  0  4.068034  0  0  0.203534  0  4.087383  0  0  0.110612  0.191366  0  4.054677  0
C  C24  1  0.13261476  0.81661188  0.53645925  1  0  -0.161489  0  3.726098  0  0  -0.175919  0  3.967892  0  0  -0.18378  0  3.991225  0  0  -0.092649  -0.171645  0  3.952305  0
C  C25  1  0.86738330  0.18338520  0.46354009  1  0  -0.161451  0  3.726016  0  0  -0.175861  0  3.967775  0  0  -0.18373  0  3.991111  0  0  -0.092598  -0.17159  0  3.952189  0
C  C26  1  0.27293300  0.86024930  0.57820327  1  0  -0.004619  0  3.7254  0  0  -0.016181  0  3.963821  0  0  -0.013528  0  3.981992  0  0  -0.072578  -0.017581  0  3.950939  0
C  C27  1  0.72706770  0.13974778  0.42179778  1  0  -0.004676  0  3.725392  0  0  -0.016233  0  3.963839  0  0  -0.013581  0  3.98201  0  0  -0.072608  -0.017635  0  3.950961  0
C  C28  1  0.45584727  0.79435102  0.52318060  1  0  -0.131469  0  3.735045  0  0  -0.14622  0  3.985577  0  0  -0.151767  0  4.005864  0  0  -0.092482  -0.142292  0  3.971492  0
C  C29  1  0.54415343  0.20564608  0.47681943  1  0  -0.131321  0  3.735078  0  0  -0.146071  0  3.985577  0  0  -0.151606  0  4.005865  0  0  -0.092419  -0.142137  0  3.971493  0
C  C30  1  0.48996665  0.68700539  0.42786953  1  0  0.131631  0  3.729938  0  0  0.107099  0  3.991129  0  0  0.112702  0  4.008325  0  0  0.043285  0.103597  0  3.979023  0
C  C31  1  0.51002923  0.31299392  0.57212983  1  0  0.131561  0  3.730159  0  0  0.107068  0  3.991314  0  0  0.112663  0  4.008517  0  0  0.043247  0.103562  0  3.979212  0
C  C32  1  0.17962362  0.51757611  0.11619787  1  0  0.19771  0  3.75878  0  0  0.200874  0  4.016834  0  0  0.20951  0  4.03518  0  0  0.112941  0.195253  0  4.00453  0
C  C33  1  0.82038055  0.48242557  0.88379826  1  0  0.197741  0  3.758863  0  0  0.200931  0  4.016866  0  0  0.209561  0  4.035201  0  0  0.112977  0.195307  0  4.004568  0
C  C34  1  0.29773899  0.39706535  0.04390126  1  0  -0.147786  0  3.706004  0  0  -0.158776  0  3.945978  0  0  -0.166689  0  3.966728  0  0  -0.089514  -0.154436  0  3.932522  0
C  C35  1  0.70226520  0.60293632  0.95609689  1  0  -0.147814  0  3.705983  0  0  -0.158845  0  3.94598  0  0  -0.166745  0  3.966732  0  0  -0.089527  -0.154511  0  3.932522  0
C  C36  1  0.36414502  0.42629401  0.90867067  1  0  0.01003  0  3.716666  0  0  -0.012228  0  3.971628  0  0  -0.006769  0  3.988275  0  0  -0.070067  -0.01544  0  3.960734  0
C  C37  1  0.63585656  0.57371101  0.09132846  1  0  0.010122  0  3.716594  0  0  -0.012135  0  3.971582  0  0  -0.006678  0  3.988229  0  0  -0.07002  -0.015351  0  3.960691  0
C  C38  1  0.30989852  0.57363827  0.84944244  1  0  -0.134326  0  3.762228  0  0  -0.149889  0  4.019038  0  0  -0.157017  0  4.041396  0  0  -0.093878  -0.145283  0  4.003615  0
C  C39  1  0.69010918  0.42636796  0.15055483  1  0  -0.134382  0  3.762206  0  0  -0.149931  0  4.019013  0  0  -0.157059  0  4.041373  0  0  -0.093843  -0.145328  0  4.003593  0
C  C40  1  0.18892118  0.68616997  0.92731009  1  0  0.127809  0  3.675202  0  0  0.101426  0  3.921039  0  0  0.107556  0  3.937574  0  0  0.037698  0.097567  0  3.909028  0
C  C41  1  0.81108434  0.31383510  0.07268858  1  0  0.127828  0  3.675211  0  0  0.10145  0  3.921011  0  0  0.107566  0  3.937545  0  0  0.037568  0.097594  0  3.908996  0
S  S42  1  0.99446804  0.67412022  0.37325771  1  0  -0.026282  0  2.782544  0  0  -0.030044  0  3.230579  0  0  -0.021583  0  3.213835  0  0  0.015918  -0.036764  0  3.24127  0
S  S43  1  0.00552958  0.32588139  0.62674021  1  0  -0.02622  0  2.782552  0  0  -0.029985  0  3.230586  0  0  -0.021523  0  3.213843  0  0  0.015946  -0.036697  0  3.241262  0
S  S44  1  0.10625346  0.47167078  0.29028501  1  0  0.004853  0  2.457318  0  0  -0.006544  0  2.834135  0  0  -0.009434  0  2.831401  0  0  0.041366  -0.004995  0  2.835394  0
S  S45  1  0.89374633  0.52833199  0.70971152  1  0  0.004866  0  2.457295  0  0  -0.006551  0  2.834119  0  0  -0.009443  0  2.83139  0  0  0.041356  -0.004996  0  2.835367  0
N  N46  1  0.70217169  0.92336917  0.15853633  1  0  -0.596183  0  3.112641  0  0  -0.556988  0  3.455961  0  0  -0.566854  0  3.452525  0  0  -0.441508  -0.551014  0  3.457769  0
N  N47  1  0.29782241  0.07662449  0.84146280  1  0  -0.596157  0  3.11251  0  0  -0.556957  0  3.455827  0  0  -0.566831  0  3.452399  0  0  -0.441459  -0.550981  0  3.457631  0
N  N48  1  0.10109097  0.96681199  0.17762288  1  0  -0.586772  0  3.05411  0  0  -0.547971  0  3.390638  0  0  -0.557916  0  3.386132  0  0  -0.430337  -0.542021  0  3.392943  0
N  N49  1  0.89889528  0.03318836  0.82237751  1  0  -0.586714  0  3.054376  0  0  -0.547917  0  3.390912  0  0  -0.557862  0  3.386404  0  0  -0.430268  -0.541958  0  3.3932  0
N  N50  1  0.36694331  0.05193616  0.20529714  1  0  -0.472441  0  3.298226  0  0  -0.415446  0  3.548757  0  0  -0.438478  0  3.556058  0  0  -0.312523  -0.399097  0  3.542144  0
N  N51  1  0.63304778  0.94805856  0.79470629  1  0  -0.472454  0  3.298434  0  0  -0.415444  0  3.548964  0  0  -0.438484  0  3.556257  0  0  -0.312548  -0.39911  0  3.542361  0
N  N52  1  0.35568844  0.64723341  0.38304498  1  0  -0.343403  0  3.117918  0  0  -0.307665  0  3.38393  0  0  -0.320229  0  3.401614  0  0  -0.318267  -0.298496  0  3.371172  0
N  N53  1  0.64430744  0.35276930  0.61695404  1  0  -0.343463  0  3.118002  0  0  -0.307727  0  3.383984  0  0  -0.320295  0  3.40167  0  0  -0.318313  -0.298564  0  3.371231  0
N  N54  1  0.12328687  0.65931856  0.05958155  1  0  -0.336728  0  3.369615  0  0  -0.271669  0  3.659446  0  0  -0.28119  0  3.667656  0  0  -0.359282  -0.266404  0  3.65374  0
N  N55  1  0.87671468  0.34068309  0.94041589  1  0  -0.336687  0  3.369674  0  0  -0.271614  0  3.659471  0  0  -0.281113  0  3.667659  0  0  -0.359207  -0.266349  0  3.653762  0
