# generated using pymatgen
data_CoH17C20N3O4
_symmetry_space_group_name_H-M   'P 1'
_cell_length_a   9.68069572
_cell_length_b   10.10868964
_cell_length_c   10.43015671
_cell_angle_alpha   78.32688073
_cell_angle_beta   84.50657084
_cell_angle_gamma   67.71702583
_symmetry_Int_Tables_number   1
_chemical_formula_structural   CoH17C20N3O4
_chemical_formula_sum   'Co2 H34 C40 N6 O8'
_cell_volume   924.72673840
_cell_formula_units_Z   2
loop_
 _symmetry_equiv_pos_site_id
 _symmetry_equiv_pos_as_xyz
  1  'x, y, z'
loop_
 _atom_site_type_symbol
 _atom_site_label
 _atom_site_symmetry_multiplicity
 _atom_site_fract_x
 _atom_site_fract_y
 _atom_site_fract_z
 _atom_site_occupancy
 _atom_site_hle17_ddec_charge
 _atom_site_hle17_ddec_spin_density
 _atom_site_hle17_ddec_sum_bond_order
 _atom_site_hle17_magmom
 _atom_site_hse06_10hf_ddec_charge
 _atom_site_hse06_10hf_ddec_spin_density
 _atom_site_hse06_10hf_ddec_sum_bond_order
 _atom_site_hse06_10hf_magmom
 _atom_site_hse06_ddec_charge
 _atom_site_hse06_ddec_spin_density
 _atom_site_hse06_ddec_sum_bond_order
 _atom_site_hse06_magmom
 _atom_site_pbe_cm5_charge
 _atom_site_pbe_ddec_charge
 _atom_site_pbe_ddec_spin_density
 _atom_site_pbe_ddec_sum_bond_order
 _atom_site_pbe_magmom
Co  Co0  1  0.96569269  0.36036427  0.37619853  1  0.967121  2.884341  2.023662  2.58  0.933018  2.855173  2.43343  2.643  1.010107  2.891358  2.3628  2.72  0.665261  0.863258  2.824193  2.501907  2.571
Co  Co1  1  0.03430890  0.63963611  0.62380009  1  0.967138  2.884364  2.023832  2.58  0.933085  2.855175  2.433512  2.643  1.010136  2.891355  2.362902  2.72  0.665309  0.863319  2.8242  2.501975  2.571
H  H2  1  0.29026502  0.16495634  0.34479205  1  0.088329  0.000332  0.920967  0.001  0.098915  0.000219  0.977479  0.001  0.102161  0.000108  0.974074  0.001  0.120562  0.096016  0.00031  0.980666  0.001
H  H3  1  0.70973654  0.83504406  0.65520369  1  0.088306  0.000333  0.920998  0.001  0.098891  0.000219  0.977517  0.001  0.102135  0.000108  0.974114  0.001  0.120551  0.095995  0.00031  0.980706  0.001
H  H4  1  0.50050892  0.14014203  0.17898140  1  0.111959  0.000127  0.943995  0.0  0.123719  0.000325  0.999653  0.0  0.126595  0.00023  0.999728  0.0  0.107401  0.121823  0.000398  0.999201  0.0
H  H5  1  0.49948964  0.85985517  0.82101238  1  0.111934  0.000126  0.944007  0.0  0.123697  0.000325  0.999663  0.0  0.126578  0.00023  0.999732  0.0  0.107394  0.121803  0.000398  0.999211  0.0
H  H6  1  0.78494745  0.90240363  0.88674836  1  0.29816  -0.000193  0.925983  0.0  0.288079  -0.000141  0.985149  0.0  0.292468  -0.000117  0.983351  0.0  0.292846  0.284938  -0.000226  0.986512  0.0
H  H7  1  0.21504222  0.09760116  0.11325918  1  0.29816  -0.000194  0.926017  0.0  0.288029  -0.000141  0.985251  0.0  0.292418  -0.000118  0.983455  0.0  0.292847  0.284886  -0.000226  0.986611  0.0
H  H8  1  0.81443524  0.05972922  0.85301229  1  0.305693  5.4e-05  0.906312  0.0  0.297141  -4e-06  0.962487  0.0  0.30137  -2e-06  0.960998  0.0  0.299826  0.294088  2.1e-05  0.963615  0.0
H  H9  1  0.18555506  0.94027665  0.14699403  1  0.305598  5.7e-05  0.906388  0.0  0.297047  -4e-06  0.962553  0.0  0.301276  -2e-06  0.961066  0.0  0.299802  0.293993  2.1e-05  0.963681  0.0
H  H10  1  0.21141370  0.53862861  0.94700432  1  0.127343  8.6e-05  0.983252  0.0  0.13686  0.00028  1.043997  0.0  0.141341  0.000163  1.041934  0.0  0.107439  0.13316  0.000384  1.046087  0.0
H  H11  1  0.78858998  0.46137175  0.05299506  1  0.127389  8.3e-05  0.983182  0.0  0.136891  0.00028  1.043946  0.0  0.141382  0.000163  1.041869  0.0  0.107456  0.133182  0.000384  1.046044  0.0
H  H12  1  0.01663482  0.54471936  0.12161854  1  0.076672  0.000439  0.97468  0.001  0.083791  0.000335  1.042748  0.001  0.086087  0.00021  1.04103  0.001  0.112964  0.081953  0.000414  1.044059  0.001
H  H13  1  0.98337288  0.45528421  0.87838078  1  0.076755  0.00044  0.974561  0.001  0.08386  0.000335  1.042631  0.001  0.086157  0.000209  1.040911  0.001  0.112987  0.081977  0.000414  1.043986  0.001
H  H14  1  0.54334932  0.40869188  0.94691319  1  0.080153  -0.000721  0.943171  -0.001  0.099211  -0.000316  1.00297  0.0  0.099855  -0.000234  1.003729  0.0  0.095382  0.098633  -0.00054  1.00248  0.0
H  H15  1  0.45665673  0.59130198  0.05308339  1  0.080187  -0.00072  0.943178  -0.001  0.099234  -0.000316  1.002971  0.0  0.099877  -0.000235  1.003732  0.0  0.095385  0.098655  -0.000541  1.002481  0.0
H  H16  1  0.58563067  0.21987750  0.96533577  1  0.079739  -5e-05  0.982086  0.0  0.09481  -2.6e-05  1.048157  0.0  0.09618  -1.1e-05  1.04828  0.0  0.090987  0.093664  -1.7e-05  1.047973  0.0
H  H17  1  0.41437164  0.78011530  0.03466330  1  0.079821  -4.7e-05  0.982116  0.0  0.094868  -2.6e-05  1.048182  0.0  0.096235  -1.1e-05  1.048307  0.0  0.090993  0.093721  -1.7e-05  1.048  0.0
H  H18  1  0.34310646  0.45195042  0.78408108  1  0.107612  -0.000532  0.947  0.0  0.122866  -0.000393  1.009159  0.0  0.125147  -0.000371  1.007715  0.0  0.10243  0.120843  -0.000439  1.010432  0.0
H  H19  1  0.65689586  0.54804238  0.21591895  1  0.107509  -0.000527  0.947039  0.0  0.122868  -0.000393  1.009097  0.0  0.125143  -0.000372  1.007652  0.0  0.10244  0.120842  -0.000439  1.010371  0.0
H  H20  1  0.40157438  0.26144026  0.79780768  1  0.080249  -7.1e-05  0.940508  0.0  0.098126  -1.3e-05  1.000269  0.0  0.099143  -1.6e-05  1.000197  0.0  0.092789  0.097334  -4e-05  1.000185  0.0
H  H21  1  0.59842832  0.73855146  0.20219061  1  0.080262  -6.8e-05  0.94044  0.0  0.09813  -1.3e-05  1.000242  0.0  0.099145  -1.6e-05  1.000165  0.0  0.092819  0.097338  -4e-05  1.000158  0.0
H  H22  1  0.53107583  0.57631758  0.69881667  1  0.106461  8.2e-05  0.946397  0.0  0.118279  0.000233  1.004192  0.0  0.121144  0.000162  1.004592  0.0  0.104981  0.116281  0.000304  1.003916  0.0
H  H23  1  0.46892404  0.42367631  0.30118626  1  0.106457  8.2e-05  0.946381  0.0  0.118252  0.000233  1.004197  0.0  0.121136  0.000162  1.004582  0.0  0.104972  0.116251  0.000304  1.003919  0.0
H  H24  1  0.73609551  0.57114769  0.53421255  1  0.083863  0.000176  0.978392  0.001  0.090775  0.00013  1.044941  0.001  0.093724  -8e-06  1.042299  0.001  0.114028  0.088262  0.00025  1.046994  0.001
H  H25  1  0.26390197  0.42885272  0.46579126  1  0.083833  0.000177  0.978409  0.001  0.090738  0.00013  1.044969  0.001  0.093688  -8e-06  1.042324  0.001  0.114002  0.088222  0.00025  1.047023  0.001
H  H26  1  0.82143620  0.14261201  0.51065122  1  0.084012  0.0003  0.964807  0.001  0.092449  0.000256  1.0296  0.001  0.095125  0.000147  1.026925  0.001  0.115517  0.090213  0.000359  1.031805  0.001
H  H27  1  0.17856475  0.85739274  0.48934086  1  0.083974  0.000301  0.964874  0.001  0.092483  0.000256  1.029595  0.001  0.095156  0.000147  1.026919  0.001  0.115548  0.090244  0.000359  1.031801  0.001
H  H28  1  0.62018844  0.13093929  0.67275704  1  0.104722  0.00016  0.946756  0.0  0.118124  0.000311  1.000678  0.0  0.121356  0.000221  0.999785  0.0  0.105836  0.11546  0.000394  1.002022  0.0
H  H29  1  0.37981280  0.86905898  0.32723243  1  0.104739  0.000164  0.946805  0.0  0.118112  0.000311  1.000751  0.0  0.121344  0.000221  0.999859  0.0  0.10583  0.115444  0.000394  1.002093  0.0
H  H30  1  0.92946325  0.91615951  0.41187267  1  0.118067  -0.000341  0.978389  0.0  0.12264  -0.00022  1.051772  0.0  0.127251  -0.000246  1.047909  0.0  0.104873  0.119266  -0.000199  1.054675  0.0
H  H31  1  0.07053507  0.08383871  0.58813436  1  0.118111  -0.000342  0.978363  0.0  0.122679  -0.00022  1.05175  0.0  0.12729  -0.000246  1.047891  0.0  0.104902  0.119304  -0.000199  1.054654  0.0
H  H32  1  0.83584165  0.18303422  0.02848826  1  0.1105  0.000118  0.939027  0.0  0.122504  7.4e-05  0.997943  0.0  0.126123  5.7e-05  0.996011  0.0  0.105454  0.119786  9.7e-05  0.999471  0.0
H  H33  1  0.16415243  0.81697269  0.97151940  1  0.110596  0.000117  0.939085  0.0  0.122656  7.4e-05  0.997899  0.0  0.126276  5.7e-05  0.995966  0.0  0.105498  0.119941  9.7e-05  0.999429  0.0
H  H34  1  0.81483979  0.75459957  0.10178085  1  0.104361  0.000146  0.973343  0.0  0.112626  5.4e-05  1.041129  0.0  0.115845  2.1e-05  1.039712  0.0  0.100854  0.110381  7.1e-05  1.042086  0.0
H  H35  1  0.18514121  0.24541181  0.89822529  1  0.104347  0.000145  0.973392  0.0  0.112615  5.4e-05  1.041179  0.0  0.115834  2.1e-05  1.03976  0.0  0.100874  0.110369  7.1e-05  1.04213  0.0
C  C36  1  0.27856846  0.24477970  0.25469326  1  0.117034  -0.020516  3.723865  -0.014  0.090725  -0.006802  3.981328  -0.004  0.100026  -0.006097  3.995441  -0.004  0.041776  0.083285  -0.008844  3.973482  -0.005
C  C37  1  0.72143375  0.75522177  0.74530317  1  0.11706  -0.020529  3.723594  -0.014  0.090729  -0.006804  3.981086  -0.004  0.100028  -0.006098  3.995197  -0.004  0.041763  0.083286  -0.008847  3.973251  -0.005
C  C38  1  0.39459612  0.23207013  0.16205098  1  -0.189116  0.008118  3.720594  0.011  -0.203634  0.002149  3.962905  0.003  -0.211398  0.002045  3.981818  0.003  -0.088465  -0.198473  0.002358  3.951212  0.004
C  C39  1  0.60540185  0.76792598  0.83794691  1  -0.189057  0.008124  3.720418  0.011  -0.203563  0.002149  3.962751  0.003  -0.211333  0.002045  3.981663  0.003  -0.088444  -0.198402  0.002359  3.951062  0.004
C  C40  1  0.37423199  0.33690909  0.04720519  1  0.155902  -0.020785  3.714373  -0.014  0.171794  -0.007565  3.952675  -0.005  0.178574  -0.00593  3.973185  -0.004  0.010277  0.166115  -0.011383  3.940283  -0.007
C  C41  1  0.62576978  0.66308804  0.95279500  1  0.155938  -0.020791  3.714407  -0.014  0.17179  -0.007567  3.952747  -0.005  0.178571  -0.005934  3.973258  -0.004  0.010292  0.16611  -0.011385  3.940353  -0.007
C  C42  1  0.23558274  0.45242716  0.03333709  1  -0.188839  0.008433  3.699413  0.012  -0.205602  0.002399  3.944833  0.004  -0.214411  0.002276  3.964316  0.003  -0.090802  -0.200674  0.002502  3.934033  0.004
C  C43  1  0.76442262  0.54757427  0.96666095  1  -0.188829  0.008435  3.699352  0.012  -0.205582  0.0024  3.944786  0.004  -0.214396  0.002277  3.964261  0.003  -0.090796  -0.200643  0.002503  3.933971  0.004
C  C44  1  0.12551579  0.45670415  0.12999161  1  0.125985  -0.019054  3.715537  -0.013  0.098317  -0.005537  3.969969  -0.003  0.106339  -0.00507  3.987633  -0.003  0.040796  0.092676  -0.006967  3.958571  -0.004
C  C45  1  0.87448900  0.54330162  0.87000565  1  0.125862  -0.019055  3.715568  -0.013  0.098213  -0.005539  3.969967  -0.003  0.106234  -0.005069  3.987632  -0.003  0.040762  0.092606  -0.006969  3.958577  -0.004
C  C46  1  0.49531389  0.32647285  0.94354307  1  -0.15434  -0.000634  3.678109  0.0  -0.196182  -0.000535  3.923699  0.0  -0.197806  -0.000335  3.934342  0.0  -0.157068  -0.194884  -0.000809  3.916878  0.0
C  C47  1  0.50468759  0.67352214  0.05645374  1  -0.154519  -0.000639  3.678484  0.0  -0.196327  -0.000535  3.924103  0.0  -0.197953  -0.000335  3.934736  0.0  -0.157089  -0.195029  -0.00081  3.917286  0.0
C  C48  1  0.43946487  0.34945731  0.80401721  1  -0.160923  -0.000509  3.672901  0.0  -0.204375  -0.000571  3.919667  0.0  -0.205665  -0.000416  3.92928  0.0  -0.160298  -0.203216  -0.000672  3.913877  0.0
C  C49  1  0.56053800  0.65053660  0.19597487  1  -0.160793  -0.000515  3.672845  0.0  -0.204326  -0.000571  3.919614  0.0  -0.205591  -0.000414  3.929195  0.0  -0.160327  -0.203163  -0.000672  3.913819  0.0
C  C50  1  0.55838897  0.35268762  0.70165357  1  0.16134  -0.017593  3.731136  -0.012  0.177796  -0.005242  3.96776  -0.003  0.184397  -0.00384  3.988783  -0.002  0.011969  0.172306  -0.008452  3.954586  -0.005
C  C51  1  0.44161610  0.64731168  0.29834013  1  0.161289  -0.017597  3.731086  -0.012  0.177751  -0.005243  3.967733  -0.003  0.184344  -0.003844  3.988762  -0.002  0.012017  0.172263  -0.008453  3.954559  -0.005
C  C52  1  0.59305495  0.47732540  0.65978486  1  -0.174286  0.007565  3.706074  0.011  -0.192444  0.001843  3.953423  0.003  -0.201827  0.001672  3.976078  0.002  -0.088719  -0.18628  0.002033  3.939079  0.003
C  C53  1  0.40694706  0.52267389  0.34021489  1  -0.174298  0.007563  3.706061  0.011  -0.192434  0.001843  3.95341  0.003  -0.201839  0.001672  3.976061  0.002  -0.088751  -0.186267  0.002033  3.93906  0.003
C  C54  1  0.70601769  0.47600591  0.56656282  1  0.133464  -0.017796  3.695085  -0.012  0.10502  -0.004912  3.952794  -0.003  0.113399  -0.004451  3.970137  -0.003  0.042093  0.099113  -0.005891  3.941535  -0.003
C  C55  1  0.29398181  0.52399450  0.43343504  1  0.133515  -0.017794  3.695119  -0.012  0.105073  -0.004913  3.952807  -0.003  0.113452  -0.004452  3.970154  -0.003  0.042133  0.099167  -0.005892  3.941547  -0.003
C  C56  1  0.75353314  0.23799417  0.55236496  1  0.125523  -0.017386  3.720172  -0.012  0.099184  -0.004314  3.97307  -0.003  0.108147  -0.003583  3.989826  -0.002  0.039584  0.092289  -0.00626  3.962589  -0.004
C  C57  1  0.24646632  0.76200626  0.44762906  1  0.125606  -0.017395  3.720378  -0.012  0.099206  -0.004315  3.973254  -0.003  0.108173  -0.003582  3.990007  -0.002  0.039594  0.092312  -0.006261  3.962773  -0.004
C  C58  1  0.64157834  0.23150627  0.64465191  1  -0.18972  0.007417  3.737366  0.01  -0.20355  0.001913  3.977474  0.003  -0.212108  0.001687  3.997586  0.002  -0.09209  -0.198077  0.002197  3.965538  0.004
C  C59  1  0.35842213  0.76849416  0.35534009  1  -0.189763  0.007411  3.737584  0.01  -0.203571  0.001913  3.977687  0.003  -0.212134  0.001688  3.99781  0.002  -0.092136  -0.198092  0.002197  3.965744  0.004
C  C60  1  0.88553824  0.68434407  0.35932294  1  0.663416  -0.012538  3.844508  -0.007  0.62254  0.001715  4.137179  0.006  0.664717  0.00247  4.125106  0.006  0.222037  0.58991  -0.000539  4.144033  0.004
C  C61  1  0.11446006  0.31565416  0.64068217  1  0.663371  -0.012539  3.844444  -0.007  0.622541  0.001716  4.137108  0.006  0.664717  0.00247  4.125036  0.006  0.222051  0.589903  -0.000538  4.143958  0.004
C  C62  1  0.87106916  0.82236333  0.26638183  1  -0.052302  0.007017  3.813827  0.011  -0.027687  0.003369  4.046404  0.006  -0.034834  0.002272  4.067548  0.004  -0.025563  -0.023404  0.004468  4.034242  0.007
C  C63  1  0.12893301  0.17763271  0.73361853  1  -0.052296  0.007016  3.813847  0.011  -0.027801  0.003369  4.046532  0.006  -0.034947  0.002272  4.067674  0.004  -0.025604  -0.023491  0.004467  4.034329  0.007
C  C64  1  0.89892820  0.93143979  0.31078250  1  -0.124605  -0.004176  3.728402  -0.003  -0.16626  0.000113  3.981748  0.001  -0.166317  -0.000174  4.000462  0.0  -0.102987  -0.167851  -0.000805  3.971851  0.0
C  C65  1  0.10106925  0.06855518  0.68922621  1  -0.124724  -0.004183  3.728449  -0.003  -0.166255  0.000113  3.981872  0.001  -0.166315  -0.000176  4.000585  0.0  -0.103026  -0.167851  -0.000804  3.971965  0.0
C  C66  1  0.88641549  0.06041536  0.22401604  1  -0.043337  0.003616  3.818214  0.005  -0.017172  0.00118  4.053354  0.002  -0.02077  0.000756  4.071325  0.001  -0.024403  -0.015743  0.001467  4.042489  0.002
C  C67  1  0.11359279  0.93957841  0.77599280  1  -0.043071  0.003618  3.818039  0.005  -0.017167  0.00118  4.053502  0.002  -0.020766  0.000756  4.071475  0.001  -0.024388  -0.015741  0.001467  4.042647  0.002
C  C68  1  0.91889960  0.17428998  0.27285948  1  0.608665  -0.013628  3.919911  -0.011  0.564233  -0.005674  4.222161  -0.005  0.59986  -0.004238  4.216905  -0.003  0.191811  0.539243  -0.006832  4.221928  -0.006
C  C69  1  0.08110225  0.82571256  0.72714061  1  0.60858  -0.013629  3.919808  -0.011  0.564212  -0.005674  4.222092  -0.005  0.599839  -0.004237  4.216832  -0.003  0.191805  0.53923  -0.006831  4.221858  -0.006
C  C70  1  0.84490575  0.08161571  0.09449215  1  -0.189522  -0.0077  3.688195  -0.005  -0.220993  -0.001286  3.940691  -0.001  -0.222334  -0.000508  3.956762  0.0  -0.097494  -0.218654  -0.00178  3.929103  -0.001
C  C71  1  0.15508773  0.91839011  0.90551866  1  -0.189705  -0.007691  3.688491  -0.005  -0.221122  -0.001287  3.941041  -0.001  -0.222465  -0.000508  3.957113  0.0  -0.09747  -0.218784  -0.001779  3.929459  -0.001
C  C72  1  0.81977484  0.97121408  0.04820309  1  0.299466  0.002047  3.875202  0.003  0.297293  0.000295  4.132101  0.001  0.304844  0.000232  4.152069  0.0  0.08975  0.291846  0.000342  4.11761  0.001
C  C73  1  0.18022314  0.02879064  0.95180174  1  0.299427  0.002046  3.875328  0.003  0.29724  0.000295  4.132203  0.001  0.304792  0.000232  4.152171  0.0  0.089704  0.291792  0.000342  4.117714  0.001
C  C74  1  0.83332522  0.84157582  0.13583278  1  -0.196752  -0.009033  3.69514  -0.006  -0.225989  -0.001901  3.94279  -0.001  -0.227185  -0.000872  3.95998  0.0  -0.102045  -0.223767  -0.002022  3.929883  -0.001
C  C75  1  0.16666751  0.15842897  0.86416967  1  -0.196721  -0.009033  3.69509  -0.006  -0.225928  -0.001901  3.942768  -0.001  -0.227123  -0.000873  3.959958  0.0  -0.102049  -0.223709  -0.002022  3.929846  -0.001
N  N76  1  0.14450594  0.35459215  0.23913061  1  -0.313328  0.035251  3.312033  0.067  -0.267735  0.024149  3.591033  0.042  -0.289348  0.020675  3.604816  0.036  -0.328111  -0.252119  0.027084  3.583016  0.047
N  N77  1  0.85550068  0.64541144  0.76086498  1  -0.313307  0.03525  3.311969  0.067  -0.267702  0.024149  3.590954  0.042  -0.289307  0.020675  3.604731  0.036  -0.328107  -0.252083  0.027084  3.582922  0.047
N  N78  1  0.78675962  0.35826862  0.51275294  1  -0.328849  0.033927  3.299333  0.066  -0.282245  0.022497  3.579688  0.04  -0.305914  0.018759  3.59463  0.034  -0.326419  -0.264752  0.025715  3.570999  0.045
N  N79  1  0.21324135  0.64173069  0.48724691  1  -0.328886  0.033931  3.299445  0.066  -0.28228  0.022497  3.579812  0.04  -0.30594  0.018759  3.594748  0.034  -0.326441  -0.264784  0.025715  3.571119  0.045
N  N80  1  0.77690329  0.99258370  0.92033803  1  -0.661391  0.000495  3.121053  0.001  -0.63143  8.3e-05  3.34667  0.0  -0.649476  3.9e-05  3.350457  0.0  -0.600539  -0.618498  7e-06  3.343025  0.0
N  N81  1  0.22308370  0.00742546  0.07966700  1  -0.661246  0.000493  3.121146  0.001  -0.631223  8.3e-05  3.346821  0.0  -0.649268  3.9e-05  3.350611  0.0  -0.600506  -0.61829  6e-06  3.34317  0.0
O  O82  1  0.88174565  0.57826942  0.31348618  1  -0.608221  0.044316  2.136518  0.075  -0.57381  0.036688  2.422119  0.058  -0.610099  0.027593  2.408675  0.043  -0.303059  -0.542877  0.046022  2.430538  0.072
O  O83  1  0.11825572  0.42173424  0.68650702  1  -0.608257  0.044318  2.136674  0.075  -0.57383  0.03669  2.422226  0.058  -0.610113  0.027594  2.40878  0.043  -0.303066  -0.54289  0.046026  2.430633  0.072
O  O84  1  0.89663648  0.68108758  0.48117528  1  -0.632834  0.043015  2.186383  0.074  -0.606904  0.032151  2.484117  0.051  -0.646164  0.022024  2.469412  0.034  -0.317984  -0.569023  0.04589  2.489671  0.073
O  O85  1  0.10336718  0.31890734  0.51882900  1  -0.632841  0.043017  2.186227  0.074  -0.606897  0.032149  2.483933  0.051  -0.646176  0.022022  2.469255  0.034  -0.317985  -0.569017  0.045888  2.489495  0.073
O  O86  1  0.01987573  0.13481592  0.35861742  1  -0.610326  0.039608  1.982158  0.07  -0.578175  0.029855  2.241774  0.051  -0.614325  0.021502  2.235335  0.038  -0.312145  -0.547284  0.039462  2.242811  0.066
O  O87  1  0.98013125  0.86518116  0.64138324  1  -0.610294  0.039603  1.982313  0.07  -0.578158  0.029853  2.241908  0.051  -0.614303  0.021501  2.235465  0.038  -0.312106  -0.547262  0.039458  2.24294  0.066
O  O88  1  0.84511192  0.30906514  0.23280850  1  -0.607124  0.036071  1.974243  0.063  -0.576672  0.027667  2.226673  0.047  -0.611357  0.019849  2.219871  0.035  -0.31137  -0.546603  0.035977  2.227872  0.059
O  O89  1  0.15488806  0.69093415  0.76719625  1  -0.607153  0.036077  1.974065  0.063  -0.576697  0.027669  2.226475  0.047  -0.611376  0.01985  2.219668  0.035  -0.311401  -0.546624  0.035979  2.227669  0.059
