# generated using pymatgen
data_ZnH14C22N2O7
_symmetry_space_group_name_H-M   'P 1'
_cell_length_a   9.58515522
_cell_length_b   11.01025274
_cell_length_c   23.72578071
_cell_angle_alpha   90.59138506
_cell_angle_beta   90.00467849
_cell_angle_gamma   90.07594587
_symmetry_Int_Tables_number   1
_chemical_formula_structural   ZnH14C22N2O7
_chemical_formula_sum   'Zn2 H28 C44 N4 O14'
_cell_volume   2503.76424139
_cell_formula_units_Z   2
loop_
 _symmetry_equiv_pos_site_id
 _symmetry_equiv_pos_as_xyz
  1  'x, y, z'
loop_
 _atom_site_type_symbol
 _atom_site_label
 _atom_site_symmetry_multiplicity
 _atom_site_fract_x
 _atom_site_fract_y
 _atom_site_fract_z
 _atom_site_occupancy
 _atom_site_pbe_bader_charge
 _atom_site_pbe_bader_spin_density
 _atom_site_pbe_cm5_charge
 _atom_site_pbe_ddec_charge
 _atom_site_pbe_ddec_spin_density
 _atom_site_pbe_ddec_sum_bond_order
 _atom_site_pbe_magmom
Zn  Zn0  1  0.36990175  0.49904368  0.49981871  1  1.276902  0  0.662096  0.801151  0  2.463961  0
Zn  Zn1  1  0.65264678  0.49964439  0.50025533  1  1.287617  0  0.663028  0.802274  0  2.472936  0
H  H2  1  0.49847258  0.80952786  0.05066958  1  0.129835  0  0.118175  0.123794  0  0.977467  0
H  H3  1  0.28480165  0.54274848  0.32105628  1  0.0961  0  0.103645  0.112895  0  1.043493  0
H  H4  1  0.74203760  0.88683146  0.50859958  1  0.062279  0  0.101296  0.103471  0  1.006734  0
H  H5  1  0.29480084  0.11196755  0.49187249  1  0.082676  0  0.101428  0.103552  0  1.006945  0
H  H6  1  0.74183315  0.11429983  0.50006012  1  0.107947  0  0.101403  0.104174  0  1.006004  0
H  H7  1  0.29497394  0.88437936  0.50052583  1  0.088866  0  0.101679  0.104339  0  1.005891  0
H  H8  1  0.87622958  0.36669505  0.43764143  1  0.121173  0  0.142446  0.1244  0  0.95754  0
H  H9  1  0.14630070  0.63116084  0.56292461  1  0.165516  0  0.142404  0.124658  0  0.955618  0
H  H10  1  0.87774532  0.63248698  0.56267535  1  0.140342  0  0.142384  0.124063  0  0.957517  0
H  H11  1  0.14476152  0.36796015  0.43665479  1  0.118398  0  0.142445  0.124043  0  0.955902  0
H  H12  1  0.13282386  0.35813370  0.74169187  1  0.046707  0  0.104708  0.065141  0  0.955384  0
H  H13  1  0.49738535  0.19176945  0.94939930  1  0.138646  0  0.118162  0.123485  0  0.97777  0
H  H14  1  0.10875197  0.51900779  0.73812428  1  0.042961  0  0.100499  0.058065  0  0.964346  0
H  H15  1  0.01291531  0.52134305  0.83656106  1  0.003261  0  0.094239  0.1272  0  0.991527  0
H  H16  1  0.91593873  0.41889989  0.79277927  1  0.033382  0  0.09425  0.126865  0  1.018138  0
H  H17  1  0.03982568  0.36141617  0.84134490  1  0.032616  0  0.097242  0.132872  0  0.987153  0
H  H18  1  0.13628592  0.64137207  0.25792955  1  0.057246  0  0.104816  0.065137  0  0.955799  0
H  H19  1  0.11198084  0.48044708  0.26116023  1  0.04742  0  0.100578  0.058032  0  0.964023  0
H  H20  1  0.01680902  0.47885270  0.16261516  1  0.041257  0  0.094347  0.127533  0  0.991546  0
H  H21  1  0.91977431  0.58085637  0.20645907  1  0.015523  0  0.09442  0.127166  0  1.018741  0
H  H22  1  0.04408149  0.63884689  0.15815702  1  0.05685  0  0.097225  0.133228  0  0.986539  0
H  H23  1  0.49458938  0.80262557  0.94384288  1  0.139272  0  0.118514  0.12457  0  0.977418  0
H  H24  1  0.49751272  0.19864947  0.05624567  1  0.145123  0  0.118699  0.124275  0  0.977517  0
H  H25  1  0.72408913  0.51178452  0.78560266  1  0.063992  0  0.105277  0.107904  0  1.011765  0
H  H26  1  0.72789554  0.49013882  0.21493505  1  0.058306  0  0.10502  0.107332  0  1.013695  0
H  H27  1  0.72644740  0.50362206  0.67929471  1  0.083159  0  0.10006  0.103927  0  1.013287  0
H  H28  1  0.72881252  0.49730343  0.32124524  1  0.073611  0  0.100452  0.104744  0  1.01326  0
H  H29  1  0.28251077  0.45640257  0.67858666  1  0.088845  0  0.103881  0.113642  0  1.041859  0
C  C30  1  0.51880069  0.73709232  0.50880748  1  1.55627  0  0.215765  0.594744  0  4.160379  0
C  C31  1  0.38051510  0.53196288  0.29693511  1  0.029979  0  -0.101326  -0.227664  0  3.974858  0
C  C32  1  0.37658693  0.47106226  0.76179529  1  0.447762  0  0.092279  0.195372  0  4.053444  0
C  C33  1  0.38001908  0.52930296  0.23803445  1  0.44225  0  0.092497  0.195353  0  4.05243  0
C  C34  1  0.50356744  0.48670274  0.79077094  1  0.394361  0  0.083407  0.099714  0  4.004265  0
C  C35  1  0.50741271  0.51439742  0.20930565  1  0.370275  0  0.082616  0.098523  0  4.005732  0
C  C36  1  0.64471584  0.93718507  0.50504804  1  -0.082051  0  -0.084881  -0.094353  0  3.981771  0
C  C37  1  0.39204018  0.06158179  0.49549180  1  -0.052775  0  -0.084723  -0.093566  0  3.984807  0
C  C38  1  0.64465929  0.06287686  0.50005287  1  0.028293  0  -0.084917  -0.094891  0  3.981257  0
C  C39  1  0.39209254  0.93586843  0.50051430  1  -0.073306  0  -0.084946  -0.095507  0  3.984  0
C  C40  1  0.51829464  0.12597192  0.49519095  1  -0.086062  0  -0.014492  -0.024849  0  3.958234  0
C  C41  1  0.51836213  0.26161336  0.49145991  1  1.562959  0  0.216205  0.595745  0  4.160694  0
C  C42  1  0.51840816  0.87277929  0.50532903  1  0.065065  0  -0.014094  -0.022928  0  3.956745  0
C  C43  1  0.93824857  0.42575045  0.46504182  1  0.57828  0  0.080613  0.061478  0  3.863777  0
C  C44  1  0.08434177  0.57305967  0.53506798  1  0.464231  0  0.080694  0.060563  0  3.86333  0
C  C45  1  0.93906915  0.57341608  0.53510259  1  0.538178  0  0.08103  0.061672  0  3.862984  0
C  C46  1  0.08351536  0.42609334  0.46469311  1  0.530979  0  0.081097  0.061221  0  3.864302  0
C  C47  1  0.50336566  0.48072826  0.61046053  1  1.521427  0  0.216617  0.598084  0  4.150249  0
C  C48  1  0.50459186  0.51842276  0.38963272  1  1.523333  0  0.21644  0.596953  0  4.150627  0
C  C49  1  0.50071849  0.39451409  0.12286972  1  1.296264  0  0.244464  0.442574  0  4.09496  0
C  C50  1  0.49601471  0.60673198  0.87719523  1  1.299566  0  0.244636  0.440263  0  4.096812  0
C  C51  1  0.50343785  0.62266166  0.12075196  1  1.398893  0  0.244667  0.440666  0  4.09885  0
C  C52  1  0.62827244  0.49852362  0.76161386  1  -0.019667  0  -0.085497  -0.135814  0  4.011798  0
C  C53  1  0.49999636  0.37860155  0.87931906  1  1.260644  0  0.245871  0.442165  0  4.096005  0
C  C54  1  0.49944734  0.61657754  0.05830088  1  -0.032351  0  -0.002208  -0.055092  0  3.975567  0
C  C55  1  0.49761661  0.38471155  0.94177769  1  0.005425  0  -0.002624  -0.056198  0  3.979242  0
C  C56  1  0.49853127  0.50261119  0.03007207  1  0.020681  0  0.004826  0.032441  0  3.996438  0
C  C57  1  0.49740594  0.49866989  0.97000562  1  -0.073411  0  0.004605  0.029571  0  3.998964  0
C  C58  1  0.49884015  0.39245170  0.06035990  1  0.06062  0  -0.003052  -0.05955  0  3.982641  0
C  C59  1  0.49619983  0.60882332  0.93971438  1  0.059031  0  -0.002736  -0.055541  0  3.97854  0
C  C60  1  0.49780704  0.72335380  0.02760243  1  0.002632  0  -0.062873  -0.07088  0  3.933982  0
C  C61  1  0.49733832  0.27792314  0.97247607  1  0.016427  0  -0.062652  -0.069991  0  3.933112  0
C  C62  1  0.49589521  0.71949237  0.96840993  1  -0.079493  0  -0.062633  -0.07215  0  3.935028  0
C  C63  1  0.63174200  0.50280225  0.23872907  1  0.024593  0  -0.085174  -0.133912  0  4.014323  0
C  C64  1  0.49770921  0.28177721  0.03166852  1  -0.088839  0  -0.062475  -0.070254  0  3.933541  0
C  C65  1  0.12871772  0.44282151  0.76692277  1  0.399913  0  -0.060205  0.091452  0  3.917355  0
C  C66  1  0.01807690  0.43597410  0.81228499  1  0.009484  0  -0.240981  -0.397512  0  3.973552  0
C  C67  1  0.13226921  0.55690369  0.23253729  1  0.409957  0  -0.060413  0.091953  0  3.916437  0
C  C68  1  0.02200709  0.56401820  0.18704973  1  -0.057861  0  -0.241061  -0.398772  0  3.97418  0
C  C69  1  0.62972766  0.49470973  0.70292613  1  -0.041911  0  -0.094885  -0.107728  0  4.000642  0
C  C70  1  0.63238865  0.50610256  0.29742168  1  -0.068483  0  -0.094986  -0.109711  0  4.002484  0
C  C71  1  0.50412489  0.48004387  0.67364817  1  0.045871  0  -0.014921  -0.000311  0  3.976361  0
C  C72  1  0.50635890  0.51985540  0.32644728  1  0.10433  0  -0.015342  0.000344  0  3.97497  0
C  C73  1  0.37789123  0.46782949  0.70289301  1  0.07189  0  -0.101693  -0.22851  0  3.974492  0
N  N74  1  0.50704390  0.51032841  0.14870824  1  -1.196374  0  -0.23095  -0.214133  0  3.614614  0
N  N75  1  0.50277831  0.49094896  0.85136252  1  -1.169646  0  -0.231424  -0.214545  0  3.616985  0
N  N76  1  0.15472030  0.49952621  0.49980451  1  -1.206149  0  -0.291082  -0.136629  0  3.501505  0
N  N77  1  0.86787126  0.49957700  0.50017083  1  -1.228895  0  -0.290622  -0.135573  0  3.499091  0
O  O78  1  0.40079841  0.68338893  0.50964468  1  -1.166593  0  -0.319667  -0.554274  0  2.324271  0
O  O79  1  0.49159944  0.69920310  0.84875591  1  -1.101229  0  -0.276274  -0.429906  0  2.05564  0
O  O80  1  0.50500967  0.71882472  0.14744366  1  -1.101391  0  -0.276075  -0.430922  0  2.058707  0
O  O81  1  0.50122575  0.28245398  0.85263209  1  -1.094671  0  -0.276567  -0.43135  0  2.056727  0
O  O82  1  0.26069834  0.46131386  0.79459803  1  -1.064242  0  -0.1809  -0.198891  0  2.545381  0
O  O83  1  0.26446623  0.53884224  0.20502978  1  -1.061456  0  -0.180753  -0.198641  0  2.54223  0
O  O84  1  0.63679484  0.31456933  0.49101211  1  -1.163914  0  -0.320535  -0.553589  0  2.330284  0
O  O85  1  0.40025927  0.31481717  0.48996465  1  -1.156453  0  -0.320102  -0.553986  0  2.322833  0
O  O86  1  0.63736931  0.68465853  0.50973344  1  -1.16469  0  -0.3204  -0.552926  0  2.328467  0
O  O87  1  0.38491716  0.48027516  0.58592623  1  -1.160929  0  -0.322525  -0.549548  0  2.312082  0
O  O88  1  0.62222494  0.51630327  0.41469655  1  -1.167848  0  -0.320186  -0.552286  0  2.321447  0
O  O89  1  0.38570090  0.51817548  0.41379623  1  -1.160657  0  -0.322633  -0.548702  0  2.311981  0
O  O90  1  0.62142436  0.48306734  0.58575004  1  -1.164628  0  -0.32061  -0.552474  0  2.321739  0
O  O91  1  0.49802063  0.30197014  0.15130196  1  -1.099723  0  -0.276054  -0.430726  0  2.055345  0
