# generated using pymatgen
data_CuH8C8(N3O2)2
_symmetry_space_group_name_H-M   'P 1'
_cell_length_a   4.76585447
_cell_length_b   9.97352367
_cell_length_c   11.54372844
_cell_angle_alpha   90.00028296
_cell_angle_beta   89.99995382
_cell_angle_gamma   100.52946257
_symmetry_Int_Tables_number   1
_chemical_formula_structural   CuH8C8(N3O2)2
_chemical_formula_sum   'Cu2 H16 C16 N12 O8'
_cell_volume   539.46114981
_cell_formula_units_Z   2
loop_
 _symmetry_equiv_pos_site_id
 _symmetry_equiv_pos_as_xyz
  1  'x, y, z'
loop_
 _atom_site_type_symbol
 _atom_site_label
 _atom_site_symmetry_multiplicity
 _atom_site_fract_x
 _atom_site_fract_y
 _atom_site_fract_z
 _atom_site_occupancy
 _atom_site_pbe_cm5_charge
 _atom_site_pbe_ddec_charge
 _atom_site_pbe_ddec_spin_density
 _atom_site_pbe_ddec_sum_bond_order
 _atom_site_pbe_magmom
Cu  Cu0  1  0.99999929  0.99999991  0.99999950  1  0.744463  0.758912  0.716785  2.218249  0.557
Cu  Cu1  1  0.50000050  0.49999945  0.49999975  1  0.744488  0.758954  0.716785  2.218208  0.557
H  H2  1  0.47534262  0.97931632  0.31874305  1  0.121077  0.132105  -4.1e-05  0.981099  0.0
H  H3  1  0.02465059  0.52068384  0.81874611  1  0.121069  0.132076  -4.2e-05  0.981095  0.0
H  H4  1  0.52465496  0.02068461  0.68125645  1  0.121072  0.132095  -4.2e-05  0.981104  0.0
H  H5  1  0.97535080  0.47931608  0.18125425  1  0.12108  0.132084  -4.1e-05  0.981096  0.0
H  H6  1  0.77590654  0.93645378  0.39487948  1  0.123804  0.130806  7.3e-05  1.021531  0.0
H  H7  1  0.72408521  0.56354598  0.89488006  1  0.123795  0.130771  7.2e-05  1.021522  0.0
H  H8  1  0.22409314  0.06354715  0.60512001  1  0.123792  0.130781  7.2e-05  1.021537  0.0
H  H9  1  0.27591369  0.43645291  0.10511770  1  0.123817  0.130831  7.3e-05  1.02156  0.0
H  H10  1  0.38935189  0.23053560  0.33896110  1  0.141045  0.133616  -4.5e-05  1.047155  0.0
H  H11  1  0.11065065  0.26947090  0.83896173  1  0.141054  0.133607  -4.6e-05  1.047224  0.0
H  H12  1  0.61064817  0.76946635  0.66103926  1  0.141047  0.133614  -4.6e-05  1.047183  0.0
H  H13  1  0.88934903  0.73053004  0.16103690  1  0.141052  0.13362  -4.5e-05  1.047199  0.0
H  H14  1  0.00478142  0.34443196  0.60246726  1  0.130851  0.097046  -0.000474  1.044298  0.0
H  H15  1  0.49521873  0.15556706  0.10246627  1  0.130867  0.097076  -0.000474  1.044361  0.0
H  H16  1  0.99522169  0.65556694  0.39753223  1  0.130838  0.097029  -0.000474  1.044311  0.0
H  H17  1  0.50478304  0.84443388  0.89753322  1  0.130862  0.097072  -0.000474  1.044363  0.0
C  C18  1  0.69976982  0.01394206  0.34158279  1  -0.050695  -0.24524  0.00863  3.832405  0.009
C  C19  1  0.80022434  0.48605647  0.84158428  1  -0.050682  -0.245127  0.00863  3.83235  0.009
C  C20  1  0.30022947  0.98605785  0.65841671  1  -0.050704  -0.245234  0.008631  3.832381  0.009
C  C21  1  0.19977667  0.51394242  0.15841522  1  -0.05072  -0.24522  0.00863  3.832476  0.009
C  C22  1  0.88127935  0.03639443  0.23059267  1  0.204612  0.59908  -0.002225  4.179166  -0.004
C  C23  1  0.61872068  0.46360245  0.73059413  1  0.204602  0.599006  -0.002227  4.179255  -0.004
C  C24  1  0.11872204  0.96360548  0.76940770  1  0.204599  0.599046  -0.002227  4.179159  -0.004
C  C25  1  0.38128033  0.53639644  0.26940624  1  0.20462  0.599023  -0.002225  4.179246  -0.004
C  C26  1  0.56718163  0.23588554  0.39884555  1  0.164792  0.090977  0.000538  3.844932  0.001
C  C27  1  0.93281922  0.26411435  0.89884604  1  0.164783  0.091023  0.000537  3.844915  0.001
C  C28  1  0.43282186  0.76411437  0.60115395  1  0.164833  0.091023  0.000537  3.844896  0.001
C  C29  1  0.06717758  0.73588454  0.10115259  1  0.164835  0.09103  0.000538  3.84487  0.001
C  C30  1  0.87723430  0.28897481  0.53386697  1  0.143679  0.137505  0.000378  3.984954  0.002
C  C31  1  0.62276721  0.21102503  0.03386895  1  0.143677  0.137485  0.000379  3.985001  0.002
C  C32  1  0.12276709  0.71102511  0.46613252  1  0.143709  0.137522  0.000379  3.984903  0.002
C  C33  1  0.37723208  0.78897488  0.96613141  1  0.143697  0.137498  0.000378  3.984945  0.002
N  N34  1  0.66091090  0.33390947  0.47627826  1  -0.374153  -0.324215  0.049805  3.632144  0.064
N  N35  1  0.83909246  0.16609189  0.97627924  1  -0.374138  -0.324207  0.049806  3.63209  0.064
N  N36  1  0.33909297  0.66609146  0.52372124  1  -0.37417  -0.324228  0.049804  3.632123  0.064
N  N37  1  0.16090683  0.83390803  0.02372026  1  -0.374171  -0.324217  0.049804  3.632112  0.064
N  N38  1  0.72145483  0.13692010  0.41071496  1  -0.127122  0.204405  0.00253  3.730735  0.003
N  N39  1  0.77854393  0.36307986  0.91071680  1  -0.127113  0.204399  0.00253  3.730707  0.003
N  N40  1  0.27854485  0.86308083  0.58928454  1  -0.127161  0.204354  0.00253  3.730739  0.003
N  N41  1  0.22145497  0.63691903  0.08928270  1  -0.127128  0.20441  0.00253  3.730709  0.003
N  N42  1  0.92090829  0.16909108  0.49593096  1  -0.211855  -0.252922  0.00467  3.115932  0.006
N  N43  1  0.57909050  0.33090937  0.99593273  1  -0.211908  -0.253029  0.00467  3.116009  0.006
N  N44  1  0.07909100  0.83090883  0.50406940  1  -0.21188  -0.252945  0.00467  3.115956  0.006
N  N45  1  0.42090879  0.66909054  0.00406677  1  -0.211922  -0.253034  0.00467  3.115953  0.006
O  O46  1  0.77244076  0.96005142  0.14575552  1  -0.321828  -0.52902  0.07759  2.320445  0.11
O  O47  1  0.72756101  0.53994591  0.64575686  1  -0.321798  -0.528982  0.077602  2.320454  0.11
O  O48  1  0.22755681  0.03994951  0.85424485  1  -0.321781  -0.528946  0.077599  2.320421  0.11
O  O49  1  0.27243999  0.46005298  0.35424264  1  -0.321814  -0.528987  0.07759  2.320508  0.11
O  O50  1  0.10969052  0.12048384  0.22783477  1  -0.316431  -0.553594  0.000178  2.178042  0.002
O  O51  1  0.39030547  0.37951589  0.72783405  1  -0.316447  -0.553571  0.000176  2.178028  0.002
O  O52  1  0.89030877  0.87951607  0.77216646  1  -0.316446  -0.553598  0.000177  2.178028  0.002
O  O53  1  0.60969421  0.62048504  0.27216632  1  -0.316445  -0.553566  0.000178  2.177964  0.002
