# generated using pymatgen
data_MgPH7(CO4)2
_symmetry_space_group_name_H-M   'P 1'
_cell_length_a   5.70004337
_cell_length_b   7.78704327
_cell_length_c   15.47128656
_cell_angle_alpha   90.00521519
_cell_angle_beta   89.99717304
_cell_angle_gamma   110.39102336
_symmetry_Int_Tables_number   1
_chemical_formula_structural   MgPH7(CO4)2
_chemical_formula_sum   'Mg4 P4 H28 C8 O32'
_cell_volume   643.68404894
_cell_formula_units_Z   4
loop_
 _symmetry_equiv_pos_site_id
 _symmetry_equiv_pos_as_xyz
  1  'x, y, z'
loop_
 _atom_site_type_symbol
 _atom_site_label
 _atom_site_symmetry_multiplicity
 _atom_site_fract_x
 _atom_site_fract_y
 _atom_site_fract_z
 _atom_site_occupancy
 _atom_site_hle17_bader_spin_density
 _atom_site_hle17_ddec_charge
 _atom_site_hle17_ddec_spin_density
 _atom_site_hle17_ddec_sum_bond_order
 _atom_site_hle17_magmom
 _atom_site_hse06_10hf_bader_spin_density
 _atom_site_hse06_10hf_ddec_charge
 _atom_site_hse06_10hf_ddec_spin_density
 _atom_site_hse06_10hf_ddec_sum_bond_order
 _atom_site_hse06_10hf_magmom
 _atom_site_hse06_bader_spin_density
 _atom_site_hse06_ddec_charge
 _atom_site_hse06_ddec_spin_density
 _atom_site_hse06_ddec_sum_bond_order
 _atom_site_hse06_magmom
 _atom_site_pbe_bader_spin_density
 _atom_site_pbe_cm5_charge
 _atom_site_pbe_ddec_charge
 _atom_site_pbe_ddec_spin_density
 _atom_site_pbe_ddec_sum_bond_order
 _atom_site_pbe_magmom
Mg  Mg0  1  0.76065336  0.02124334  0.63472067  1  0  1.535988  0  1.073944  0  0  1.424304  0  1.325297  0  0  1.446052  0  1.291897  0  0  0.826132  1.409037  0  1.348549  0
Mg  Mg1  1  0.23936344  0.47877367  0.13471796  1  0  1.535977  0  1.073997  0  0  1.42441  0  1.325198  0  0  1.446151  0  1.291802  0  0  0.826087  1.40914  0  1.348429  0
Mg  Mg2  1  0.23934750  0.97874850  0.36527811  1  0  1.535997  0  1.073916  0  0  1.424307  0  1.325284  0  0  1.446056  0  1.291882  0  0  0.826148  1.409035  0  1.348534  0
Mg  Mg3  1  0.76064582  0.52123598  0.86528017  1  0  1.535926  0  1.074024  0  0  1.42432  0  1.325258  0  0  1.446064  0  1.291862  0  0  0.826073  1.40905  0  1.348505  0
P  P4  1  0.51758575  0.34013011  0.68036488  1  0  1.503086  0  4.748497  0  0  1.325963  0  5.265896  0  0  1.375805  0  5.226052  0  0  0.373923  1.291486  0  5.292853  0
P  P5  1  0.48240637  0.15986536  0.18036803  1  0  1.503293  0  4.7486  0  0  1.326104  0  5.266111  0  0  1.37597  0  5.226261  0  0  0.374007  1.291637  0  5.293043  0
P  P6  1  0.48241464  0.65986447  0.31963584  1  0  1.503147  0  4.748625  0  0  1.325866  0  5.266287  0  0  1.375715  0  5.226452  0  0  0.373887  1.291421  0  5.293187  0
P  P7  1  0.51759726  0.84013607  0.81963139  1  0  1.503256  0  4.748619  0  0  1.326025  0  5.266217  0  0  1.375889  0  5.226365  0  0  0.373933  1.29158  0  5.293105  0
H  H8  1  0.45200224  0.71804933  0.55363731  1  0  0.44665  0  0.845923  0  0  0.413107  0  0.912594  0  0  0.423915  0  0.896766  0  0  0.307036  0.405435  0  0.92384  0
H  H9  1  0.54801579  0.78197761  0.05363280  1  0  0.446687  0  0.845924  0  0  0.413165  0  0.912545  0  0  0.423969  0  0.896731  0  0  0.307129  0.405489  0  0.923801  0
H  H10  1  0.54798983  0.28194249  0.44636341  1  0  0.446736  0  0.845813  0  0  0.413161  0  0.912547  0  0  0.423971  0  0.896713  0  0  0.30707  0.405467  0  0.923818  0
H  H11  1  0.45199680  0.21802795  0.94636404  1  0  0.446713  0  0.845858  0  0  0.413127  0  0.912603  0  0  0.423943  0  0.896764  0  0  0.307099  0.405432  0  0.923877  0
H  H12  1  0.55222507  0.86140630  0.47966520  1  0  0.43807  0  0.861155  0  0  0.405056  0  0.928046  0  0  0.414966  0  0.913422  0  0  0.308129  0.398076  0  0.938347  0
H  H13  1  0.44778765  0.63860530  0.97966203  1  0  0.43824  0  0.860925  0  0  0.405254  0  0.927752  0  0  0.415163  0  0.91313  0  0  0.308238  0.398275  0  0.938051  0
H  H14  1  0.44776461  0.13858414  0.52033422  1  0  0.438072  0  0.861157  0  0  0.405081  0  0.928004  0  0  0.414991  0  0.91338  0  0  0.308173  0.398105  0  0.938297  0
H  H15  1  0.55221357  0.36139475  0.02033804  1  0  0.438085  0  0.861129  0  0  0.405086  0  0.927991  0  0  0.414996  0  0.913367  0  0  0.308163  0.398109  0  0.938286  0
H  H16  1  0.03503867  0.83290447  0.57444570  1  0  0.443121  0  0.833652  0  0  0.409954  0  0.909422  0  0  0.421177  0  0.892828  0  0  0.310973  0.40197  0  0.920178  0
H  H17  1  0.96495979  0.66710445  0.07444344  1  0  0.443159  0  0.833518  0  0  0.409998  0  0.909328  0  0  0.421219  0  0.892738  0  0  0.311029  0.402023  0  0.920024  0
H  H18  1  0.96496256  0.16709558  0.42554985  1  0  0.443238  0  0.833496  0  0  0.410068  0  0.90926  0  0  0.421289  0  0.892669  0  0  0.311028  0.402084  0  0.920024  0
H  H19  1  0.03503330  0.33289695  0.92555469  1  0  0.443188  0  0.833541  0  0  0.410026  0  0.909304  0  0  0.421248  0  0.892711  0  0  0.311027  0.402055  0  0.92004  0
H  H20  1  0.21514343  0.98842809  0.63453639  1  0  0.434063  0  0.870798  0  0  0.399587  0  0.939963  0  0  0.409989  0  0.924845  0  0  0.305045  0.392253  0  0.950619  0
H  H21  1  0.78486094  0.51158809  0.13453667  1  0  0.434032  0  0.870803  0  0  0.399522  0  0.939997  0  0  0.409921  0  0.924884  0  0  0.305037  0.392186  0  0.950658  0
H  H22  1  0.78485826  0.01156923  0.36546174  1  0  0.434116  0  0.870728  0  0  0.39962  0  0.939921  0  0  0.410022  0  0.924803  0  0  0.305045  0.39228  0  0.95059  0
H  H23  1  0.21513566  0.48841331  0.86546146  1  0  0.434055  0  0.87078  0  0  0.399541  0  0.939978  0  0  0.409942  0  0.924864  0  0  0.305049  0.392205  0  0.950641  0
H  H24  1  0.00927890  0.26531755  0.77435609  1  0  0.41701  0  0.846695  0  0  0.387838  0  0.921298  0  0  0.398568  0  0.909108  0  0  0.315875  0.380262  0  0.929888  0
H  H25  1  0.99071241  0.23467241  0.27436248  1  0  0.417078  0  0.846642  0  0  0.38791  0  0.921228  0  0  0.398634  0  0.909057  0  0  0.315911  0.38033  0  0.929815  0
H  H26  1  0.99070171  0.73467971  0.22564398  1  0  0.41702  0  0.846552  0  0  0.387837  0  0.921194  0  0  0.398567  0  0.909005  0  0  0.315863  0.380264  0  0.929782  0
H  H27  1  0.00928863  0.76532354  0.72563889  1  0  0.417025  0  0.84672  0  0  0.387857  0  0.921312  0  0  0.398583  0  0.909135  0  0  0.31587  0.380277  0  0.9299  0
H  H28  1  0.22489814  0.50367040  0.69346114  1  0  0.134976  0  0.918085  0  0  0.138048  0  0.979423  0  0  0.141961  0  0.976836  0  0  0.131121  0.135235  0  0.981418  0
H  H29  1  0.77509788  0.99632952  0.19345022  1  0  0.134911  0  0.917981  0  0  0.138011  0  0.979306  0  0  0.141926  0  0.976701  0  0  0.131081  0.135186  0  0.981327  0
H  H30  1  0.77509218  0.49632141  0.30654345  1  0  0.134999  0  0.918184  0  0  0.13808  0  0.979459  0  0  0.141997  0  0.976874  0  0  0.131143  0.135261  0  0.981464  0
H  H31  1  0.22491647  0.00367604  0.80654533  1  0  0.134933  0  0.918061  0  0  0.138023  0  0.97937  0  0  0.14193  0  0.976788  0  0  0.131068  0.135205  0  0.981373  0
H  H32  1  0.73261262  0.50636684  0.56761042  1  0  0.431731  0  0.87831  0  0  0.392049  0  0.954707  0  0  0.405215  0  0.936106  0  0  0.307947  0.382897  0  0.967607  0
H  H33  1  0.26736386  0.99361747  0.06760177  1  0  0.431711  0  0.878324  0  0  0.392012  0  0.954758  0  0  0.405199  0  0.936124  0  0  0.307898  0.382864  0  0.967649  0
H  H34  1  0.26737566  0.49363181  0.43238900  1  0  0.431659  0  0.878405  0  0  0.391952  0  0.954834  0  0  0.405124  0  0.936226  0  0  0.307919  0.382802  0  0.967729  0
H  H35  1  0.73264170  0.00638807  0.93239636  1  0  0.431816  0  0.87816  0  0  0.392138  0  0.954569  0  0  0.405318  0  0.935942  0  0  0.307944  0.382992  0  0.967461  0
C  C36  1  0.20780047  0.36814473  0.66762015  1  0  -0.214638  0  3.642462  0  0  -0.219906  0  3.904718  0  0  -0.225751  0  3.906798  0  0  -0.008986  -0.216146  0  3.903575  0
C  C37  1  0.79220563  0.13185795  0.16762037  1  0  -0.214835  0  3.642711  0  0  -0.220046  0  3.904923  0  0  -0.225895  0  3.907025  0  0  -0.009039  -0.216295  0  3.903797  0
C  C38  1  0.79219576  0.63184847  0.33238315  1  0  -0.2149  0  3.642554  0  0  -0.220048  0  3.904677  0  0  -0.225918  0  3.906807  0  0  -0.008988  -0.216295  0  3.903551  0
C  C39  1  0.20780298  0.86815033  0.83237906  1  0  -0.214949  0  3.642888  0  0  -0.220044  0  3.905058  0  0  -0.225899  0  3.907159  0  0  -0.008973  -0.216289  0  3.903913  0
C  C40  1  0.13748246  0.36022247  0.57265566  1  0  0.703383  0  3.854151  0  0  0.634648  0  4.174228  0  0  0.669631  0  4.163863  0  0  0.224168  0.611013  0  4.180504  0
C  C41  1  0.86252722  0.13979101  0.07265689  1  0  0.703526  0  3.854248  0  0  0.634674  0  4.17451  0  0  0.669667  0  4.164132  0  0  0.224238  0.611037  0  4.180789  0
C  C42  1  0.86250915  0.63977208  0.42734764  1  0  0.703591  0  3.854124  0  0  0.634853  0  4.174183  0  0  0.669836  0  4.163811  0  0  0.224253  0.611211  0  4.18047  0
C  C43  1  0.13748064  0.86022684  0.92734188  1  0  0.703651  0  3.853934  0  0  0.634615  0  4.174445  0  0  0.669617  0  4.164065  0  0  0.224186  0.610987  0  4.18071  0
O  O44  1  0.49436086  0.15774549  0.63554605  1  0  -0.949536  0  2.053387  0  0  -0.853088  0  2.299015  0  0  -0.877792  0  2.277941  0  0  -0.385987  -0.835779  0  2.31318  0
O  O45  1  0.50563713  0.34224700  0.13555759  1  0  -0.949669  0  2.0532  0  0  -0.853228  0  2.298867  0  0  -0.877927  0  2.277778  0  0  -0.386095  -0.835924  0  2.31303  0
O  O46  1  0.50563667  0.84225045  0.36445337  1  0  -0.94948  0  2.053244  0  0  -0.853006  0  2.298926  0  0  -0.877705  0  2.277844  0  0  -0.386011  -0.835711  0  2.313091  0
O  O47  1  0.49436234  0.65775304  0.86444119  1  0  -0.949697  0  2.053254  0  0  -0.853243  0  2.298928  0  0  -0.877942  0  2.277841  0  0  -0.386089  -0.835929  0  2.313078  0
O  O48  1  0.55782762  0.84756486  0.54292476  1  0  -0.90098  0  1.850677  0  0  -0.842542  0  2.048998  0  0  -0.859328  0  2.01631  0  0  -0.625011  -0.830787  0  2.071944  0
O  O49  1  0.44218414  0.65245730  0.04292244  1  0  -0.901153  0  1.850458  0  0  -0.842772  0  2.048831  0  0  -0.859546  0  2.01612  0  0  -0.625167  -0.831018  0  2.07178  0
O  O50  1  0.44216622  0.15242696  0.45707402  1  0  -0.901011  0  1.850519  0  0  -0.842589  0  2.048858  0  0  -0.859372  0  2.016164  0  0  -0.625093  -0.830811  0  2.071854  0
O  O51  1  0.55781856  0.34754960  0.95707699  1  0  -0.90103  0  1.850507  0  0  -0.842623  0  2.048879  0  0  -0.859399  0  2.016165  0  0  -0.625076  -0.830845  0  2.071878  0
O  O52  1  0.04229324  0.89482205  0.63105994  1  0  -0.876286  0  1.90409  0  0  -0.817229  0  2.106995  0  0  -0.836027  0  2.07418  0  0  -0.579603  -0.804049  0  2.129004  0
O  O53  1  0.95770384  0.60519892  0.13105443  1  0  -0.876258  0  1.903915  0  0  -0.817156  0  2.106935  0  0  -0.835945  0  2.074116  0  0  -0.579601  -0.804  0  2.128869  0
O  O54  1  0.95770669  0.10517526  0.36893690  1  0  -0.876418  0  1.90392  0  0  -0.817338  0  2.106835  0  0  -0.836133  0  2.074018  0  0  -0.579628  -0.80416  0  2.128857  0
O  O55  1  0.04229229  0.39480522  0.86894435  1  0  -0.876298  0  1.903936  0  0  -0.817207  0  2.106939  0  0  -0.835998  0  2.074121  0  0  -0.579604  -0.804046  0  2.128914  0
O  O56  1  0.57100789  0.84548548  0.72432012  1  0  -0.900883  0  1.949789  0  0  -0.819723  0  2.219094  0  0  -0.843561  0  2.198606  0  0  -0.415136  -0.802951  0  2.232678  0
O  O57  1  0.42899195  0.65451481  0.22432495  1  0  -0.900886  0  1.949856  0  0  -0.819745  0  2.219156  0  0  -0.843588  0  2.198687  0  0  -0.415103  -0.802954  0  2.232693  0
O  O58  1  0.42900175  0.15450639  0.27568059  1  0  -0.90098  0  1.949883  0  0  -0.819804  0  2.219169  0  0  -0.843654  0  2.198697  0  0  -0.415186  -0.803012  0  2.232714  0
O  O59  1  0.57102204  0.34548254  0.77567512  1  0  -0.900821  0  1.949819  0  0  -0.819683  0  2.21907  0  0  -0.843538  0  2.198628  0  0  -0.415076  -0.802886  0  2.232615  0
O  O60  1  0.02318108  0.22369996  0.71381168  1  0  -0.595669  0  2.199135  0  0  -0.539534  0  2.434242  0  0  -0.553519  0  2.421201  0  0  -0.399247  -0.529612  0  2.442968  0
O  O61  1  0.97682028  0.27629775  0.21382259  1  0  -0.595463  0  2.198927  0  0  -0.539404  0  2.434076  0  0  -0.553377  0  2.421042  0  0  -0.399184  -0.529508  0  2.44286  0
O  O62  1  0.97681626  0.77629187  0.28619098  1  0  -0.595621  0  2.198927  0  0  -0.539526  0  2.434042  0  0  -0.553507  0  2.421013  0  0  -0.399272  -0.529589  0  2.442722  0
O  O63  1  0.02318815  0.72370643  0.78618007  1  0  -0.595397  0  2.199152  0  0  -0.539355  0  2.434281  0  0  -0.553324  0  2.421245  0  0  -0.399147  -0.529494  0  2.443156  0
O  O64  1  0.97279305  0.21523016  0.54394413  1  0  -0.696281  0  2.025355  0  0  -0.630371  0  2.266956  0  0  -0.653984  0  2.254563  0  0  -0.331855  -0.614149  0  2.275126  0
O  O65  1  0.02720953  0.28478473  0.04394721  1  0  -0.696233  0  2.025227  0  0  -0.630315  0  2.2669  0  0  -0.65393  0  2.254499  0  0  -0.331885  -0.614094  0  2.275073  0
O  O66  1  0.02719634  0.78476712  0.45605917  1  0  -0.696287  0  2.025321  0  0  -0.630384  0  2.266918  0  0  -0.653998  0  2.254521  0  0  -0.331815  -0.614155  0  2.275083  0
O  O67  1  0.97279787  0.71523587  0.95605350  1  0  -0.696314  0  2.025131  0  0  -0.630348  0  2.266883  0  0  -0.653958  0  2.254478  0  0  -0.331884  -0.614133  0  2.275059  0
O  O68  1  0.25938175  0.49850322  0.52762808  1  0  -0.61507  0  2.091986  0  0  -0.54869  0  2.325849  0  0  -0.575546  0  2.315856  0  0  -0.293097  -0.530062  0  2.332295  0
O  O69  1  0.74062681  0.00150723  0.02762344  1  0  -0.61524  0  2.092136  0  0  -0.548823  0  2.325991  0  0  -0.575692  0  2.316012  0  0  -0.293176  -0.530196  0  2.33244  0
O  O70  1  0.74060653  0.50149543  0.47237587  1  0  -0.615242  0  2.092127  0  0  -0.548861  0  2.325985  0  0  -0.575718  0  2.315999  0  0  -0.293181  -0.530227  0  2.332437  0
O  O71  1  0.25939030  0.99850792  0.97237598  1  0  -0.615255  0  2.092101  0  0  -0.548678  0  2.325967  0  0  -0.57559  0  2.31601  0  0  -0.293135  -0.530047  0  2.332408  0
O  O72  1  0.72120206  0.50589550  0.63496485  1  0  -0.738793  0  2.048053  0  0  -0.659501  0  2.290266  0  0  -0.681793  0  2.264875  0  0  -0.371507  -0.644152  0  2.30756  0
O  O73  1  0.27879190  0.99409884  0.13495817  1  0  -0.738775  0  2.048333  0  0  -0.659485  0  2.290567  0  0  -0.681814  0  2.265185  0  0  -0.371348  -0.644128  0  2.307847  0
O  O74  1  0.27879325  0.49410317  0.36503522  1  0  -0.738734  0  2.0482  0  0  -0.659372  0  2.290442  0  0  -0.681672  0  2.265053  0  0  -0.371412  -0.644034  0  2.307735  0
O  O75  1  0.72121635  0.00590123  0.86504060  1  0  -0.738833  0  2.048269  0  0  -0.659534  0  2.290475  0  0  -0.681858  0  2.265099  0  0  -0.371347  -0.644189  0  2.307755  0
