# generated using pymatgen
data_SnH16(C5O2)2
_symmetry_space_group_name_H-M   'P 1'
_cell_length_a   9.85130036
_cell_length_b   10.26965267
_cell_length_c   11.59200000
_cell_angle_alpha   90.00000000
_cell_angle_beta   99.26011616
_cell_angle_gamma   90.00000000
_symmetry_Int_Tables_number   1
_chemical_formula_structural   SnH16(C5O2)2
_chemical_formula_sum   'Sn4 H64 C40 O16'
_cell_volume   1157.47267549
_cell_formula_units_Z   4
loop_
 _symmetry_equiv_pos_site_id
 _symmetry_equiv_pos_as_xyz
  1  'x, y, z'
loop_
 _atom_site_type_symbol
 _atom_site_label
 _atom_site_symmetry_multiplicity
 _atom_site_fract_x
 _atom_site_fract_y
 _atom_site_fract_z
 _atom_site_occupancy
 _atom_site_hle17_bader_spin_density
 _atom_site_hle17_ddec_charge
 _atom_site_hle17_ddec_spin_density
 _atom_site_hle17_ddec_sum_bond_order
 _atom_site_hle17_magmom
 _atom_site_hse06_10hf_bader_spin_density
 _atom_site_hse06_10hf_ddec_charge
 _atom_site_hse06_10hf_ddec_spin_density
 _atom_site_hse06_10hf_ddec_sum_bond_order
 _atom_site_hse06_10hf_magmom
 _atom_site_hse06_bader_spin_density
 _atom_site_hse06_ddec_charge
 _atom_site_hse06_ddec_spin_density
 _atom_site_hse06_ddec_sum_bond_order
 _atom_site_hse06_magmom
 _atom_site_pbe_bader_charge
 _atom_site_pbe_bader_spin_density
 _atom_site_pbe_cm5_charge
 _atom_site_pbe_ddec_charge
 _atom_site_pbe_ddec_spin_density
 _atom_site_pbe_ddec_sum_bond_order
 _atom_site_pbe_magmom
Sn  Sn0  1  0.66342738  0.14930008  0.10409262  1  0  1.498973  0  2.73479  0  0  1.348803  0  3.235336  0  0  1.401365  0  3.205514  0  1.834817  0  0.632503  1.312646  0  3.255198  0
Sn  Sn1  1  0.33657180  0.64929460  0.39590727  1  0  1.499018  0  2.734841  0  0  1.348885  0  3.2353  0  0  1.40145  0  3.205475  0  1.834808  0  0.632531  1.312693  0  3.25524  0
Sn  Sn2  1  0.33657077  0.85069674  0.89590540  1  0  1.498954  0  2.734902  0  0  1.348819  0  3.235389  0  0  1.401376  0  3.205567  0  1.834786  0  0.632473  1.312631  0  3.255304  0
Sn  Sn3  1  0.66343047  0.35069638  0.60409304  1  0  1.498987  0  2.734823  0  0  1.348826  0  3.235338  0  0  1.401382  0  3.205517  0  1.83483  0  0.6325  1.312625  0  3.255273  0
H  H4  1  0.96457978  0.41479494  0.34808061  1  0  0.094358  0  0.915422  0  0  0.10428  0  0.976529  0  0  0.106648  0  0.975627  0  0.047372  0  0.110989  0.102402  0  0.977265  0
H  H5  1  0.03542764  0.91480017  0.15191781  1  0  0.094417  0  0.91543  0  0  0.104308  0  0.976539  0  0  0.106681  0  0.975635  0  0.047595  0  0.111  0.102428  0  0.977275  0
H  H6  1  0.03541735  0.58520285  0.65192072  1  0  0.094367  0  0.915429  0  0  0.10431  0  0.976532  0  0  0.106684  0  0.975625  0  0.047356  0  0.111004  0.102425  0  0.977271  0
H  H7  1  0.96458286  0.08520152  0.84808448  1  0  0.09443  0  0.915389  0  0  0.104321  0  0.976528  0  0  0.106693  0  0.975625  0  0.047486  0  0.111019  0.102439  0  0.977266  0
H  H8  1  0.90397760  0.62902225  0.39459036  1  0  0.101016  0  0.892849  0  0  0.114172  0  0.94803  0  0  0.116506  0  0.94711  0  0.084903  0  0.114143  0.11261  0  0.948605  0
H  H9  1  0.09602159  0.12903260  0.10541039  1  0  0.10103  0  0.892843  0  0  0.11421  0  0.947994  0  0  0.116544  0  0.947072  0  0.084769  0  0.11411  0.112648  0  0.94857  0
H  H10  1  0.09601644  0.37097652  0.60540969  1  0  0.101009  0  0.892828  0  0  0.11418  0  0.947996  0  0  0.116514  0  0.947074  0  0.084862  0  0.1141  0.112617  0  0.948574  0
H  H11  1  0.90398068  0.87097201  0.89459164  1  0  0.101058  0  0.892844  0  0  0.114236  0  0.947989  0  0  0.116571  0  0.947067  0  0.084816  0  0.114125  0.112673  0  0.948565  0
H  H12  1  0.68328048  0.73677565  0.30961211  1  0  0.065445  0  0.943513  0  0  0.08661  0  1.00199  0  0  0.087397  0  1.002371  0  0.023601  0  0.090382  0.085962  0  1.00188  0
H  H13  1  0.31671974  0.23678113  0.19039224  1  0  0.065418  0  0.943645  0  0  0.086571  0  1.002124  0  0  0.087337  0  1.002537  0  0.023896  0  0.090361  0.085928  0  1.00201  0
H  H14  1  0.31671665  0.26322507  0.69038405  1  0  0.06541  0  0.943491  0  0  0.086535  0  1.002032  0  0  0.087349  0  1.002382  0  0.023585  0  0.090345  0.085888  0  1.001922  0
H  H15  1  0.68328151  0.76322250  0.80961138  1  0  0.065422  0  0.943486  0  0  0.086562  0  1.002009  0  0  0.08735  0  1.002393  0  0.023592  0  0.090364  0.085913  0  1.001902  0
H  H16  1  0.64021624  0.60226672  0.21612892  1  0  0.066053  0  0.957989  0  0  0.085376  0  1.020797  0  0  0.086037  0  1.021623  0  0.044037  0  0.089039  0.084799  0  1.020402  0
H  H17  1  0.35978705  0.10227026  0.28387067  1  0  0.065976  0  0.958085  0  0  0.085348  0  1.020826  0  0  0.086017  0  1.021652  0  0.044212  0  0.089029  0.084773  0  1.020429  0
H  H18  1  0.35978500  0.39773400  0.78386780  1  0  0.06591  0  0.95809  0  0  0.085319  0  1.020818  0  0  0.085979  0  1.02165  0  0.044069  0  0.089023  0.084743  0  1.020424  0
H  H19  1  0.64021727  0.89773435  0.71612992  1  0  0.065936  0  0.958079  0  0  0.085309  0  1.020857  0  0  0.08597  0  1.021687  0  0.044057  0  0.089017  0.084734  0  1.020458  0
H  H20  1  0.73950743  0.78111600  0.10960721  1  0  0.063159  0  0.967628  0  0  0.08192  0  1.030263  0  0  0.082343  0  1.031717  0  0.033825  0  0.086261  0.081547  0  1.029287  0
H  H21  1  0.26049279  0.28111759  0.39039455  1  0  0.063195  0  0.967639  0  0  0.081923  0  1.030333  0  0  0.082344  0  1.03179  0  0.033771  0  0.086251  0.08155  0  1.029357  0
H  H22  1  0.26049587  0.21888082  0.89038979  1  0  0.063165  0  0.96764  0  0  0.081934  0  1.030259  0  0  0.082353  0  1.031718  0  0.033816  0  0.08625  0.081561  0  1.029284  0
H  H23  1  0.73950743  0.71888507  0.60960634  1  0  0.06314  0  0.967589  0  0  0.081905  0  1.030236  0  0  0.082328  0  1.031692  0  0.033823  0  0.086256  0.081532  0  1.029262  0
H  H24  1  0.88988204  0.78068755  0.21600126  1  0  0.06556  0  0.953801  0  0  0.084766  0  1.016222  0  0  0.085135  0  1.01732  0  0.016376  0  0.088071  0.084407  0  1.015585  0
H  H25  1  0.11011921  0.28069012  0.28400064  1  0  0.065561  0  0.953822  0  0  0.084769  0  1.016244  0  0  0.08514  0  1.017337  0  0.016367  0  0.088076  0.08441  0  1.015608  0
H  H26  1  0.11011921  0.21931316  0.78399719  1  0  0.065594  0  0.953843  0  0  0.084774  0  1.016272  0  0  0.085143  0  1.017368  0  0.016372  0  0.088066  0.084415  0  1.015635  0
H  H27  1  0.88988101  0.71931060  0.71600026  1  0  0.065526  0  0.953804  0  0  0.084731  0  1.016244  0  0  0.085102  0  1.017339  0  0.016334  0  0.088062  0.084372  0  1.015607  0
H  H28  1  0.78876733  0.55366332  0.05226066  1  0  0.052985  0  0.935694  0  0  0.074681  0  0.993559  0  0  0.075217  0  0.9942  0  -0.024081  0  0.083544  0.074128  0  0.993204  0
H  H29  1  0.21123391  0.05366199  0.44773951  1  0  0.052995  0  0.935642  0  0  0.074695  0  0.993492  0  0  0.075232  0  0.994133  0  -0.0241  0  0.083539  0.074138  0  0.993145  0
H  H30  1  0.21123186  0.44633350  0.94773751  1  0  0.052978  0  0.9357  0  0  0.074713  0  0.99353  0  0  0.075252  0  0.994169  0  -0.024342  0  0.083525  0.074156  0  0.993183  0
H  H31  1  0.78877144  0.94633872  0.55226294  1  0  0.052988  0  0.935677  0  0  0.074693  0  0.99353  0  0  0.075229  0  0.994173  0  -0.024062  0  0.083544  0.074134  0  0.993184  0
H  H32  1  0.93083168  0.65545255  0.04145459  1  0  0.066181  0  0.929172  0  0  0.087936  0  0.983138  0  0  0.088919  0  0.983205  0  0.024518  0  0.089935  0.086989  0  0.983392  0
H  H33  1  0.06916956  0.15545219  0.45854472  1  0  0.066202  0  0.929222  0  0  0.087958  0  0.983183  0  0  0.088945  0  0.983243  0  0.024529  0  0.089944  0.087006  0  0.983442  0
H  H34  1  0.06916854  0.34454232  0.95854371  1  0  0.06616  0  0.929029  0  0  0.087919  0  0.983025  0  0  0.088903  0  0.983089  0  0.024564  0  0.089928  0.086959  0  0.983293  0
H  H35  1  0.93083579  0.84454755  0.54145688  1  0  0.066135  0  0.929152  0  0  0.087897  0  0.983126  0  0  0.088878  0  0.983193  0  0.024503  0  0.089912  0.086941  0  0.98339  0
H  H36  1  0.04855950  0.58390096  0.23517758  1  0  0.069739  0  0.969634  0  0  0.087091  0  1.034103  0  0  0.088166  0  1.03467  0  0.060555  0  0.091253  0.086172  0  1.033949  0
H  H37  1  0.95144072  0.08390255  0.26482159  1  0  0.069741  0  0.969632  0  0  0.087085  0  1.034103  0  0  0.088161  0  1.034676  0  0.060501  0  0.09124  0.086164  0  1.033954  0
H  H38  1  0.95144072  0.41609392  0.76482159  1  0  0.069711  0  0.969688  0  0  0.087057  0  1.034148  0  0  0.088135  0  1.034718  0  0.060526  0  0.091211  0.086139  0  1.033996  0
H  H39  1  0.04856053  0.91609525  0.73517944  1  0  0.06976  0  0.969776  0  0  0.0871  0  1.0342  0  0  0.088179  0  1.03477  0  0.060489  0  0.091224  0.086181  0  1.034048  0
H  H40  1  0.00881011  0.44599658  0.14303193  1  0  0.071303  0  0.950675  0  0  0.085592  0  1.01755  0  0  0.087231  0  1.016614  0  0.046893  0  0.089798  0.084422  0  1.018276  0
H  H41  1  0.99119216  0.94599402  0.35696579  1  0  0.071327  0  0.950603  0  0  0.085598  0  1.017486  0  0  0.087241  0  1.016551  0  0.046785  0  0.089784  0.084431  0  1.018211  0
H  H42  1  0.99118702  0.55400121  0.85697026  1  0  0.071384  0  0.950585  0  0  0.085617  0  1.017518  0  0  0.087259  0  1.01658  0  0.046756  0  0.089807  0.084449  0  1.018244  0
H  H43  1  0.00881423  0.05400183  0.64303594  1  0  0.071406  0  0.95063  0  0  0.085642  0  1.017537  0  0  0.087283  0  1.016601  0  0.046749  0  0.08981  0.084475  0  1.018262  0
H  H44  1  0.45596703  0.31019744  0.02402322  1  0  0.166541  0  0.976495  0  0  0.184396  0  1.032566  0  0  0.187426  0  1.032941  0  0.052035  0  0.094944  0.18226  0  1.032327  0
H  H45  1  0.54403216  0.81019585  0.47597322  1  0  0.166572  0  0.976443  0  0  0.184422  0  1.032532  0  0  0.187452  0  1.032908  0  0.052162  0  0.094969  0.182286  0  1.03229  0
H  H46  1  0.54403113  0.68981009  0.97597308  1  0  0.166543  0  0.976524  0  0  0.184398  0  1.0326  0  0  0.187426  0  1.032978  0  0.052069  0  0.094956  0.182262  0  1.032358  0
H  H47  1  0.45596292  0.18980194  0.52402611  1  0  0.166507  0  0.976429  0  0  0.184393  0  1.032474  0  0  0.187423  0  1.03285  0  0.052082  0  0.094965  0.182257  0  1.032233  0
H  H48  1  0.51689421  0.23096497  0.90282017  1  0  0.176984  0  0.982618  0  0  0.193223  0  1.039714  0  0  0.19645  0  1.040272  0  0.099916  0  0.098353  0.190933  0  1.039367  0
H  H49  1  0.48310497  0.73096435  0.59717972  1  0  0.176949  0  0.982696  0  0  0.193205  0  1.039774  0  0  0.196431  0  1.040336  0  0.099918  0  0.098336  0.190917  0  1.039426  0
H  H50  1  0.48310703  0.76903769  0.09718173  1  0  0.176961  0  0.98265  0  0  0.193212  0  1.03973  0  0  0.196441  0  1.040287  0  0.099891  0  0.098351  0.190923  0  1.039381  0
H  H51  1  0.51689318  0.26903539  0.40282348  1  0  0.176935  0  0.982614  0  0  0.193168  0  1.039738  0  0  0.196397  0  1.040294  0  0.09993  0  0.098329  0.190879  0  1.03939  0
H  H52  1  0.61246120  0.36394999  0.97741960  1  0  0.160706  0  0.980829  0  0  0.178233  0  1.03698  0  0  0.181085  0  1.0377  0  0.050694  0  0.092915  0.176215  0  1.036532  0
H  H53  1  0.38753490  0.86394937  0.52257728  1  0  0.160711  0  0.980801  0  0  0.178229  0  1.036967  0  0  0.181081  0  1.03769  0  0.050768  0  0.092928  0.176213  0  1.036515  0
H  H54  1  0.38753901  0.63605170  0.02258043  1  0  0.160745  0  0.980816  0  0  0.178287  0  1.036942  0  0  0.181139  0  1.037661  0  0.050712  0  0.092949  0.17627  0  1.036492  0
H  H55  1  0.61245812  0.13604647  0.47742177  1  0  0.160716  0  0.980779  0  0  0.178252  0  1.03692  0  0  0.181108  0  1.037633  0  0.050753  0  0.092934  0.176236  0  1.036469  0
H  H56  1  0.56827385  0.05938078  0.29148382  1  0  0.166695  0  1.002706  0  0  0.182978  0  1.061207  0  0  0.186364  0  1.061212  0  0.080327  0  0.093549  0.18052  0  1.06131  0
H  H57  1  0.43172534  0.55938016  0.20851693  1  0  0.166699  0  1.002721  0  0  0.182985  0  1.061212  0  0  0.186372  0  1.061215  0  0.080314  0  0.093554  0.18053  0  1.061309  0
H  H58  1  0.43172534  0.94061312  0.70852211  1  0  0.166711  0  1.002722  0  0  0.182999  0  1.061209  0  0  0.186383  0  1.061215  0  0.080591  0  0.093563  0.180543  0  1.061307  0
H  H59  1  0.56827179  0.44061860  0.79148268  1  0  0.16672  0  1.002666  0  0  0.183003  0  1.061165  0  0  0.18639  0  1.061168  0  0.080367  0  0.093566  0.180546  0  1.061266  0
H  H60  1  0.74623689  0.01367037  0.30139791  1  0  0.164931  0  0.98559  0  0  0.18093  0  1.044214  0  0  0.183774  0  1.045096  0  0.069227  0  0.093777  0.178778  0  1.043879  0
H  H61  1  0.25376230  0.51366976  0.19860198  1  0  0.164993  0  0.985519  0  0  0.180945  0  1.0442  0  0  0.183788  0  1.045083  0  0.069206  0  0.093786  0.178794  0  1.043862  0
H  H62  1  0.25376333  0.98632742  0.69860298  1  0  0.165014  0  0.985529  0  0  0.180942  0  1.044235  0  0  0.183785  0  1.045118  0  0.069299  0  0.093786  0.17879  0  1.043898  0
H  H63  1  0.74623483  0.48632901  0.80139677  1  0  0.164959  0  0.985632  0  0  0.180952  0  1.044253  0  0  0.183796  0  1.045135  0  0.069321  0  0.093783  0.178801  0  1.043916  0
H  H64  1  0.61369643  0.92556295  0.20704073  1  0  0.175074  0  0.987715  0  0  0.191228  0  1.045295  0  0  0.194546  0  1.045623  0  0.082556  0  0.097879  0.188774  0  1.045447  0
H  H65  1  0.38630276  0.42556259  0.29295916  1  0  0.175085  0  0.987715  0  0  0.191247  0  1.045276  0  0  0.194561  0  1.045613  0  0.082556  0  0.097894  0.188792  0  1.045428  0
H  H66  1  0.38630173  0.07443582  0.79296074  1  0  0.175086  0  0.987676  0  0  0.191257  0  1.045218  0  0  0.194569  0  1.045561  0  0.082585  0  0.097898  0.188802  0  1.04537  0
H  H67  1  0.61369643  0.57443423  0.70703642  1  0  0.175073  0  0.987714  0  0  0.191234  0  1.045285  0  0  0.19455  0  1.045614  0  0.082572  0  0.097884  0.188786  0  1.045429  0
C  C68  1  0.88826112  0.46427081  0.28270247  1  0  -0.117865  0  3.611592  0  0  -0.125039  0  3.854703  0  0  -0.130362  0  3.868584  0  0.019456  0  -0.080672  -0.121342  0  3.845237  0
C  C69  1  0.11174115  0.96427799  0.21729525  1  0  -0.117909  0  3.6117  0  0  -0.125023  0  3.854702  0  0  -0.130348  0  3.868592  0  0.01932  0  -0.080607  -0.121318  0  3.845232  0
C  C70  1  0.11173498  0.53572795  0.71729786  1  0  -0.117843  0  3.611545  0  0  -0.125091  0  3.854743  0  0  -0.130417  0  3.868634  0  0.019313  0  -0.080659  -0.121373  0  3.845263  0
C  C71  1  0.88826524  0.03572467  0.78270562  1  0  -0.117898  0  3.611699  0  0  -0.125038  0  3.854673  0  0  -0.130364  0  3.868563  0  0.019476  0  -0.080618  -0.121333  0  3.845212  0
C  C72  1  0.81858760  0.57105534  0.34633004  1  0  -0.121964  0  3.627188  0  0  -0.128827  0  3.869017  0  0  -0.134338  0  3.882385  0  0.002198  0  -0.080503  -0.125074  0  3.859627  0
C  C73  1  0.18141056  0.07106667  0.15367144  1  0  -0.122154  0  3.627227  0  0  -0.129125  0  3.869079  0  0  -0.134623  0  3.882441  0  0.00222  0  -0.080586  -0.125377  0  3.859695  0
C  C74  1  0.18140850  0.42894245  0.65367115  1  0  -0.122029  0  3.627198  0  0  -0.128961  0  3.869033  0  0  -0.134461  0  3.882417  0  0.002209  0  -0.080484  -0.125218  0  3.859646  0
C  C75  1  0.81859171  0.92893989  0.84633060  1  0  -0.122094  0  3.627325  0  0  -0.129047  0  3.86913  0  0  -0.134547  0  3.882504  0  0.002226  0  -0.080565  -0.125298  0  3.859742  0
C  C76  1  0.72712945  0.65987723  0.26085703  1  0  -0.117147  0  3.684104  0  0  -0.164704  0  3.942603  0  0  -0.165176  0  3.956835  0  -0.039827  0  -0.167615  -0.163994  0  3.932855  0
C  C77  1  0.27287282  0.15988759  0.23914328  1  0  -0.116885  0  3.684168  0  0  -0.164415  0  3.942576  0  0  -0.164887  0  3.956832  0  -0.040433  0  -0.167526  -0.163709  0  3.932828  0
C  C78  1  0.27286767  0.34012056  0.73914171  1  0  -0.116896  0  3.68402  0  0  -0.16449  0  3.942518  0  0  -0.164976  0  3.956749  0  -0.039814  0  -0.16758  -0.163781  0  3.932774  0
C  C79  1  0.72713151  0.84011994  0.76085645  1  0  -0.116942  0  3.684017  0  0  -0.164521  0  3.942536  0  0  -0.165001  0  3.956787  0  -0.039811  0  -0.167587  -0.163809  0  3.932787  0
C  C80  1  0.80705094  0.71842644  0.17061417  1  0  -0.117721  0  3.684935  0  0  -0.157217  0  3.946181  0  0  -0.158546  0  3.961373  0  -0.015797  0  -0.173226  -0.156156  0  3.935595  0
C  C81  1  0.19294928  0.21842900  0.32938845  1  0  -0.11782  0  3.685086  0  0  -0.157339  0  3.946363  0  0  -0.158662  0  3.961547  0  -0.015433  0  -0.173245  -0.15628  0  3.935778  0
C  C82  1  0.19294928  0.28157135  0.82938500  1  0  -0.117808  0  3.684966  0  0  -0.157262  0  3.946225  0  0  -0.158591  0  3.961424  0  -0.015495  0  -0.173189  -0.1562  0  3.935634  0
C  C83  1  0.80705299  0.78157366  0.67061272  1  0  -0.117706  0  3.684866  0  0  -0.157222  0  3.946171  0  0  -0.15855  0  3.961367  0  -0.015783  0  -0.173243  -0.15616  0  3.935581  0
C  C84  1  0.87100293  0.61201680  0.10415965  1  0  -0.095171  0  3.680161  0  0  -0.13321  0  3.941903  0  0  -0.134238  0  3.956456  0  -0.008216  0  -0.166791  -0.132096  0  3.931549  0
C  C85  1  0.12899728  0.11201937  0.39583951  1  0  -0.095213  0  3.680279  0  0  -0.133247  0  3.942005  0  0  -0.13427  0  3.95656  0  -0.008566  0  -0.166808  -0.132127  0  3.931649  0
C  C86  1  0.12899934  0.38798294  0.89583980  1  0  -0.095128  0  3.679984  0  0  -0.133225  0  3.94177  0  0  -0.134253  0  3.956327  0  -0.008342  0  -0.166794  -0.132101  0  3.931412  0
C  C87  1  0.87100499  0.88798329  0.60416166  1  0  -0.09506  0  3.680173  0  0  -0.133118  0  3.941924  0  0  -0.134142  0  3.956481  0  -0.008209  0  -0.166743  -0.131997  0  3.931567  0
C  C88  1  0.96411387  0.52429719  0.18939457  1  0  -0.126252  0  3.6663  0  0  -0.172404  0  3.926345  0  0  -0.172803  0  3.939404  0  -0.040056  0  -0.166757  -0.17201  0  3.917446  0
C  C89  1  0.03588943  0.02430072  0.31060502  1  0  -0.126199  0  3.666243  0  0  -0.172332  0  3.926239  0  0  -0.172746  0  3.939316  0  -0.039685  0  -0.166694  -0.17194  0  3.917339  0
C  C90  1  0.03588737  0.47569963  0.81060560  1  0  -0.12626  0  3.666328  0  0  -0.172345  0  3.926396  0  0  -0.172753  0  3.939466  0  -0.039762  0  -0.166706  -0.171957  0  3.917493  0
C  C91  1  0.96411592  0.97569902  0.68939744  1  0  -0.12641  0  3.666558  0  0  -0.172486  0  3.926544  0  0  -0.172895  0  3.939611  0  -0.039911  0  -0.166747  -0.172095  0  3.917645  0
C  C92  1  0.78924352  0.35745123  0.23179006  1  0  0.645589  0  3.807819  0  0  0.59572  0  4.106671  0  0  0.628244  0  4.101465  0  1.51956  0  0.221649  0.573718  0  4.109505  0
C  C93  1  0.21075566  0.85745938  0.26820724  1  0  0.645417  0  3.807393  0  0  0.595616  0  4.106135  0  0  0.628134  0  4.100937  0  1.519423  0  0.221571  0.573619  0  4.10896  0
C  C94  1  0.21075360  0.64254851  0.76821213  1  0  0.645433  0  3.807882  0  0  0.595589  0  4.106736  0  0  0.628109  0  4.101537  0  1.519619  0  0.221564  0.573582  0  4.10957  0
C  C95  1  0.78924764  0.14254620  0.73179235  1  0  0.645311  0  3.808025  0  0  0.595501  0  4.106779  0  0  0.628022  0  4.10158  0  1.519421  0  0.221512  0.573497  0  4.109607  0
C  C96  1  0.74489881  0.51230652  0.43886416  1  0  0.660206  0  3.816188  0  0  0.60593  0  4.122726  0  0  0.640551  0  4.114273  0  1.517005  0  0.226623  0.582426  0  4.12769  0
C  C97  1  0.25509626  0.01231687  0.06113257  1  0  0.660126  0  3.816587  0  0  0.606036  0  4.122902  0  0  0.64064  0  4.114464  0  1.51702  0  0.226653  0.58253  0  4.127873  0
C  C98  1  0.25508906  0.48769517  0.56112814  1  0  0.660095  0  3.816805  0  0  0.606066  0  4.122995  0  0  0.640643  0  4.114581  0  1.517562  0  0.226735  0.582571  0  4.127957  0
C  C99  1  0.74490190  0.98768774  0.93886890  1  0  0.659961  0  3.816723  0  0  0.605914  0  4.122956  0  0  0.64051  0  4.114529  0  1.516715  0  0.226625  0.58241  0  4.127923  0
C  C100  1  0.54613749  0.28029283  0.98663121  1  0  -0.690578  0  3.487707  0  0  -0.739313  0  3.723737  0  0  -0.754454  0  3.729484  0  -0.428792  0  -0.312627  -0.728991  0  3.719647  0
C  C101  1  0.45386169  0.78029124  0.51336782  1  0  -0.690592  0  3.487688  0  0  -0.739367  0  3.723757  0  0  -0.754493  0  3.729474  0  -0.428936  0  -0.312636  -0.729041  0  3.719661  0
C  C102  1  0.45385964  0.71970983  0.01337012  1  0  -0.69059  0  3.487818  0  0  -0.73936  0  3.723846  0  0  -0.754496  0  3.729582  0  -0.428798  0  -0.312664  -0.729034  0  3.719753  0
C  C103  1  0.54613441  0.21970461  0.48663338  1  0  -0.690503  0  3.487514  0  0  -0.739272  0  3.723556  0  0  -0.754414  0  3.729298  0  -0.428937  0  -0.312629  -0.728945  0  3.719457  0
C  C104  1  0.64658676  0.02020808  0.24425424  1  0  -0.692491  0  3.466095  0  0  -0.740708  0  3.700969  0  0  -0.755437  0  3.705405  0  -0.457819  0  -0.312205  -0.730813  0  3.698652  0
C  C105  1  0.35341140  0.52020844  0.25574464  1  0  -0.692602  0  3.466128  0  0  -0.740783  0  3.701034  0  0  -0.755512  0  3.70547  0  -0.457822  0  -0.312243  -0.730884  0  3.698714  0
C  C106  1  0.35340934  0.97978971  0.75574781  1  0  -0.692593  0  3.466105  0  0  -0.740744  0  3.700995  0  0  -0.755476  0  3.70544  0  -0.458156  0  -0.312228  -0.730843  0  3.698673  0
C  C107  1  0.64658882  0.47979033  0.74425366  1  0  -0.692582  0  3.466162  0  0  -0.740794  0  3.701028  0  0  -0.755521  0  3.705464  0  -0.457956  0  -0.31224  -0.7309  0  3.6987  0
O  O108  1  0.83846229  0.27256715  0.16556107  1  0  -0.619171  0  2.006905  0  0  -0.552669  0  2.250781  0  0  -0.579193  0  2.242716  0  -1.167353  0  -0.285428  -0.534099  0  2.255476  0
O  O109  1  0.16155027  0.77257043  0.33442770  1  0  -0.619115  0  2.006852  0  0  -0.552668  0  2.250742  0  0  -0.579187  0  2.242675  0  -1.167515  0  -0.285512  -0.534115  0  2.255448  0
O  O110  1  0.16153587  0.72743161  0.83444299  1  0  -0.619244  0  2.00699  0  0  -0.552695  0  2.250789  0  0  -0.579218  0  2.242725  0  -1.167453  0  -0.285443  -0.534118  0  2.255479  0
O  O111  1  0.83846229  0.22742736  0.66556021  1  0  -0.619069  0  2.006999  0  0  -0.552588  0  2.250853  0  0  -0.579111  0  2.242785  0  -1.167338  0  -0.285375  -0.534013  0  2.255539  0
O  O112  1  0.66804328  0.34802832  0.25167693  1  0  -0.603363  0  1.931454  0  0  -0.539747  0  2.146142  0  0  -0.565324  0  2.141977  0  -1.178708  0  -0.284297  -0.521989  0  2.14829  0
O  O113  1  0.33197442  0.84804134  0.24831773  1  0  -0.603333  0  1.930919  0  0  -0.539725  0  2.145525  0  0  -0.565316  0  2.141386  0  -1.178517  0  -0.284244  -0.521954  0  2.147665  0
O  O114  1  0.33195282  0.65197336  0.74832513  1  0  -0.603198  0  1.931475  0  0  -0.539627  0  2.146206  0  0  -0.565194  0  2.142034  0  -1.178623  0  -0.284224  -0.521868  0  2.148365  0
O  O115  1  0.66804637  0.15197009  0.75168166  1  0  -0.603214  0  1.931482  0  0  -0.539645  0  2.146171  0  0  -0.565214  0  2.141998  0  -1.178702  0  -0.284265  -0.521881  0  2.148321  0
O  O116  1  0.81438618  0.42608646  0.50744975  1  0  -0.603655  0  1.975155  0  0  -0.538232  0  2.219463  0  0  -0.56473  0  2.210566  0  -1.161412  0  -0.282265  -0.520127  0  2.224695  0
O  O117  1  0.18560580  0.92609364  0.99255174  1  0  -0.603499  0  1.975265  0  0  -0.538208  0  2.21956  0  0  -0.564698  0  2.210675  0  -1.161305  0  -0.282185  -0.520104  0  2.224794  0
O  O118  1  0.18560580  0.57391230  0.49254829  1  0  -0.603544  0  1.975435  0  0  -0.538186  0  2.219616  0  0  -0.564657  0  2.210727  0  -1.16158  0  -0.282253  -0.52009  0  2.224849  0
O  O119  1  0.81438927  0.07391194  0.00744931  1  0  -0.603496  0  1.975276  0  0  -0.538167  0  2.219512  0  0  -0.564657  0  2.210622  0  -1.161026  0  -0.28221  -0.520069  0  2.224745  0
O  O120  1  0.62539662  0.54314982  0.45348894  1  0  -0.626135  0  1.991013  0  0  -0.561791  0  2.229406  0  0  -0.588796  0  2.223574  0  -1.187801  0  -0.273221  -0.542994  0  2.232604  0
O  O121  1  0.37459845  0.04315433  0.04650521  1  0  -0.626126  0  1.991171  0  0  -0.561883  0  2.229576  0  0  -0.588884  0  2.223746  0  -1.187799  0  -0.273295  -0.543087  0  2.232772  0
O  O122  1  0.37459331  0.45684895  0.54650451  1  0  -0.62608  0  1.991208  0  0  -0.561872  0  2.229578  0  0  -0.588894  0  2.223817  0  -1.188191  0  -0.273288  -0.543058  0  2.232741  0
O  O123  1  0.62540279  0.95684541  0.95349237  1  0  -0.625983  0  1.99135  0  0  -0.561734  0  2.229673  0  0  -0.588731  0  2.223847  0  -1.18783  0  -0.273211  -0.542945  0  2.232881  0
