# generated using pymatgen
data_CdH10(C2O)8
_symmetry_space_group_name_H-M   'P 1'
_cell_length_a   5.90415443
_cell_length_b   7.42520579
_cell_length_c   18.57192841
_cell_angle_alpha   93.48908001
_cell_angle_beta   96.25877404
_cell_angle_gamma   95.44070324
_symmetry_Int_Tables_number   1
_chemical_formula_structural   CdH10(C2O)8
_chemical_formula_sum   'Cd2 H20 C32 O16'
_cell_volume   803.59830489
_cell_formula_units_Z   2
loop_
 _symmetry_equiv_pos_site_id
 _symmetry_equiv_pos_as_xyz
  1  'x, y, z'
loop_
 _atom_site_type_symbol
 _atom_site_label
 _atom_site_symmetry_multiplicity
 _atom_site_fract_x
 _atom_site_fract_y
 _atom_site_fract_z
 _atom_site_occupancy
 _atom_site_hle17_bader_spin_density
 _atom_site_hle17_ddec_charge
 _atom_site_hle17_ddec_spin_density
 _atom_site_hle17_ddec_sum_bond_order
 _atom_site_hle17_magmom
 _atom_site_hse06_10hf_bader_spin_density
 _atom_site_hse06_10hf_ddec_charge
 _atom_site_hse06_10hf_ddec_spin_density
 _atom_site_hse06_10hf_ddec_sum_bond_order
 _atom_site_hse06_10hf_magmom
 _atom_site_hse06_bader_spin_density
 _atom_site_hse06_ddec_charge
 _atom_site_hse06_ddec_spin_density
 _atom_site_hse06_ddec_sum_bond_order
 _atom_site_hse06_magmom
 _atom_site_pbe_bader_spin_density
 _atom_site_pbe_cm5_charge
 _atom_site_pbe_ddec_charge
 _atom_site_pbe_ddec_spin_density
 _atom_site_pbe_ddec_sum_bond_order
 _atom_site_pbe_magmom
Cd  Cd0  1  0.48131549  0.24579703  0.95748766  1  0  1.315018  0  1.556331  0  0  1.142349  0  2.006131  0  0  1.202075  0  1.940439  0  0  0.793026  1.099117  0  2.051816  0
Cd  Cd1  1  0.51868281  0.75420535  0.04251226  1  0  1.315054  0  1.556299  0  0  1.142376  0  2.006099  0  0  1.202102  0  1.940407  0  0  0.79304  1.099149  0  2.051782  0
H  H2  1  0.40654059  0.43798438  0.25682043  1  0  0.119  0  0.927434  0  0  0.126568  0  0.988531  0  0  0.131174  0  0.985026  0  0  0.113866  0.12322  0  0.991204  0
H  H3  1  0.59345221  0.56202878  0.74317892  1  0  0.118997  0  0.927395  0  0  0.126543  0  0.988509  0  0  0.131149  0  0.985005  0  0  0.113844  0.123193  0  0.991179  0
H  H4  1  0.63595411  0.09542596  0.20079686  1  0  0.097955  0  0.962616  0  0  0.102449  0  1.035168  0  0  0.107219  0  1.0311  0  0  0.105337  0.098973  0  1.038228  0
H  H5  1  0.36404642  0.90456691  0.79920246  1  0  0.098009  0  0.962616  0  0  0.102462  0  1.035211  0  0  0.107234  0  1.031141  0  0  0.105323  0.098988  0  1.038269  0
H  H6  1  0.56902223  0.08402815  0.46255590  1  0  0.095304  0  0.967578  0  0  0.1024  0  1.036143  0  0  0.105327  0  1.034513  0  0  0.105439  0.100291  0  1.037344  0
H  H7  1  0.43098203  0.91596740  0.53744304  1  0  0.095309  0  0.967552  0  0  0.102411  0  1.036107  0  0  0.105342  0  1.034477  0  0  0.10543  0.100301  0  1.037303  0
H  H8  1  0.73825272  0.14896123  0.59235807  1  0  0.101938  0  0.933407  0  0  0.112323  0  0.990795  0  0  0.115706  0  0.988726  0  0  0.107057  0.109845  0  0.992388  0
H  H9  1  0.26175015  0.85103699  0.40764032  1  0  0.102044  0  0.933366  0  0  0.112415  0  0.990756  0  0  0.115799  0  0.988686  0  0  0.107083  0.109943  0  0.992352  0
H  H10  1  0.13848825  0.30078407  0.61990843  1  0  0.099323  0  0.922733  0  0  0.112208  0  0.973775  0  0  0.115122  0  0.972906  0  0  0.108877  0.110048  0  0.974573  0
H  H11  1  0.86151295  0.69921422  0.38009098  1  0  0.099399  0  0.922713  0  0  0.112253  0  0.973786  0  0  0.115167  0  0.972919  0  0  0.108895  0.110098  0  0.974587  0
H  H12  1  0.35592338  0.39724141  0.51985587  1  0  0.112708  0  0.97311  0  0  0.115435  0  1.045489  0  0  0.119813  0  1.041681  0  0  0.106672  0.112269  0  1.04828  0
H  H13  1  0.64408106  0.60275553  0.48014363  1  0  0.112686  0  0.973268  0  0  0.115446  0  1.045576  0  0  0.119818  0  1.041782  0  0  0.106667  0.112284  0  1.048361  0
H  H14  1  0.01266885  0.24003866  0.90228117  1  0  0.434235  0  0.856322  0  0  0.404874  0  0.916204  0  0  0.415305  0  0.901144  0  0  0.290742  0.397423  0  0.926951  0
H  H15  1  0.98733460  0.75996382  0.09772000  1  0  0.434201  0  0.856367  0  0  0.404842  0  0.916247  0  0  0.415272  0  0.901189  0  0  0.290722  0.397391  0  0.926995  0
H  H16  1  0.69989620  0.08282454  0.83930498  1  0  0.429117  0  0.806797  0  0  0.414547  0  0.853422  0  0  0.421731  0  0.846166  0  0  0.330744  0.409384  0  0.858783  0
H  H17  1  0.30010187  0.91717535  0.16069812  1  0  0.429035  0  0.806812  0  0  0.414468  0  0.853433  0  0  0.42165  0  0.846179  0  0  0.330722  0.409308  0  0.85879  0
H  H18  1  0.14011651  0.44234688  0.91402025  1  0  0.423154  0  0.883162  0  0  0.389166  0  0.951949  0  0  0.400362  0  0.935961  0  0  0.28386  0.38119  0  0.963306  0
H  H19  1  0.85988841  0.55765409  0.08597878  1  0  0.423158  0  0.883152  0  0  0.389168  0  0.951944  0  0  0.400364  0  0.935956  0  0  0.283857  0.381194  0  0.9633  0
H  H20  1  0.73490563  0.96280405  0.90788833  1  0  0.428986  0  0.877144  0  0  0.390735  0  0.953015  0  0  0.402013  0  0.937083  0  0  0.290124  0.382781  0  0.964213  0
H  H21  1  0.26508903  0.03719583  0.09211467  1  0  0.429014  0  0.877109  0  0  0.390757  0  0.952991  0  0  0.402037  0  0.937056  0  0  0.290139  0.382805  0  0.964186  0
C  C22  1  0.23784391  0.36290035  0.24377195  1  0  -0.060731  0  3.674222  0  0  -0.096663  0  3.927662  0  0  -0.096599  0  3.944677  0  0  -0.066879  -0.096629  0  3.916274  0
C  C23  1  0.76215316  0.63710602  0.75622691  1  0  -0.060757  0  3.674192  0  0  -0.096609  0  3.927661  0  0  -0.09655  0  3.94467  0  0  -0.066865  -0.096571  0  3.91627  0
C  C24  1  0.14484090  0.32287968  0.17183834  1  0  -0.058804  0  3.712203  0  0  -0.044561  0  3.952094  0  0  -0.048246  0  3.969722  0  0  -0.002474  -0.042314  0  3.940505  0
C  C25  1  0.85515399  0.67712269  0.82816146  1  0  -0.058726  0  3.712119  0  0  -0.044608  0  3.952162  0  0  -0.048294  0  3.969791  0  0  -0.002485  -0.042363  0  3.940585  0
C  C26  1  0.92527610  0.22704353  0.15589457  1  0  -0.046662  0  3.702796  0  0  -0.03479  0  3.94015  0  0  -0.038113  0  3.957723  0  0  -0.00107  -0.032878  0  3.928694  0
C  C27  1  0.07472013  0.77295605  0.84410416  1  0  -0.046675  0  3.702808  0  0  -0.034775  0  3.940188  0  0  -0.0381  0  3.957765  0  0  -0.001055  -0.032864  0  3.928747  0
C  C28  1  0.80542511  0.16962119  0.21229720  1  0  -0.061458  0  3.679709  0  0  -0.093422  0  3.929937  0  0  -0.094038  0  3.948139  0  0  -0.069857  -0.092918  0  3.9178  0
C  C29  1  0.19457901  0.83037308  0.78770279  1  0  -0.06154  0  3.679828  0  0  -0.093462  0  3.930035  0  0  -0.094081  0  3.948242  0  0  -0.069817  -0.092957  0  3.917903  0
C  C30  1  0.89805919  0.20934972  0.28471790  1  0  -0.039805  0  3.738443  0  0  -0.030524  0  3.972042  0  0  -0.03508  0  3.995026  0  0  -0.007793  -0.027415  0  3.95642  0
C  C31  1  0.10194697  0.79064727  0.71528220  1  0  -0.039674  0  3.738377  0  0  -0.030382  0  3.97198  0  0  -0.034944  0  3.994959  0  0  -0.007801  -0.027272  0  3.956356  0
C  C32  1  0.76323242  0.14865258  0.34358611  1  0  0.384919  0  3.751287  0  0  0.367461  0  4.011736  0  0  0.389231  0  4.014451  0  0  0.159807  0.35261  0  4.009773  0
C  C33  1  0.23676826  0.85134160  0.65641269  1  0  0.384868  0  3.751288  0  0  0.367425  0  4.011715  0  0  0.389198  0  4.014424  0  0  0.159827  0.352575  0  4.009743  0
C  C34  1  0.86637516  0.19880610  0.41939144  1  0  -0.048587  0  3.748988  0  0  -0.038172  0  3.980849  0  0  -0.044235  0  4.006457  0  0  -0.010179  -0.033959  0  3.963436  0
C  C35  1  0.13362602  0.80119215  0.58060744  1  0  -0.048545  0  3.749086  0  0  -0.038161  0  3.980962  0  0  -0.044229  0  4.006575  0  0  -0.010214  -0.033951  0  3.963551  0
C  C36  1  0.74180551  0.15063417  0.47643252  1  0  -0.050833  0  3.697421  0  0  -0.076276  0  3.952238  0  0  -0.077359  0  3.97358  0  0  -0.070675  -0.075452  0  3.937657  0
C  C37  1  0.25819568  0.84936412  0.52356690  1  0  -0.050842  0  3.697306  0  0  -0.076273  0  3.952105  0  0  -0.077359  0  3.973451  0  0  -0.070662  -0.075449  0  3.937523  0
C  C38  1  0.83732215  0.18729941  0.54836648  1  0  -0.044433  0  3.707202  0  0  -0.061046  0  3.964564  0  0  -0.062902  0  3.985659  0  0  -0.072578  -0.059575  0  3.949976  0
C  C39  1  0.16268262  0.81270024  0.45163307  1  0  -0.044529  0  3.707159  0  0  -0.061133  0  3.964521  0  0  -0.062993  0  3.985619  0  0  -0.072557  -0.059665  0  3.949943  0
C  C40  1  0.06058359  0.27325845  0.56381527  1  0  -0.041378  0  3.70895  0  0  -0.05777  0  3.965907  0  0  -0.06007  0  3.987497  0  0  -0.072838  -0.056099  0  3.95101  0
C  C41  1  0.93941606  0.72674119  0.43618411  1  0  -0.041436  0  3.70892  0  0  -0.05781  0  3.965881  0  0  -0.060108  0  3.987467  0  0  -0.072889  -0.056142  0  3.950996  0
C  C42  1  0.18484420  0.32602303  0.50767102  1  0  -0.056059  0  3.684053  0  0  -0.081306  0  3.939335  0  0  -0.082568  0  3.960319  0  0  -0.072416  -0.08026  0  3.924925  0
C  C43  1  0.81515903  0.67397798  0.49232850  1  0  -0.056148  0  3.684232  0  0  -0.081412  0  3.939485  0  0  -0.082677  0  3.960469  0  0  -0.072418  -0.080369  0  3.925079  0
C  C44  1  0.08897043  0.29043346  0.43525980  1  0  -0.062181  0  3.763685  0  0  -0.051191  0  3.997892  0  0  -0.05779  0  4.024004  0  0  -0.012565  -0.046751  0  3.980191  0
C  C45  1  0.91103295  0.70956886  0.56473920  1  0  -0.062099  0  3.763699  0  0  -0.051094  0  3.997854  0  0  -0.057691  0  4.023966  0  0  -0.012546  -0.046657  0  3.980153  0
C  C46  1  0.22141124  0.35275791  0.37657947  1  0  0.382838  0  3.754666  0  0  0.361866  0  4.019241  0  0  0.383823  0  4.021741  0  0  0.159683  0.34691  0  4.017411  0
C  C47  1  0.77858914  0.64724726  0.62342163  1  0  0.382702  0  3.754659  0  0  0.361791  0  4.019168  0  0  0.383744  0  4.021659  0  0  0.159694  0.346844  0  4.017316  0
C  C48  1  0.11629736  0.30703570  0.30047765  1  0  -0.032297  0  3.735668  0  0  -0.023398  0  3.973181  0  0  -0.027467  0  3.995391  0  0  -0.005369  -0.020646  0  3.958107  0
C  C49  1  0.88370211  0.69296255  0.69952117  1  0  -0.032267  0  3.735734  0  0  -0.02343  0  3.973286  0  0  -0.027479  0  3.995466  0  0  -0.005332  -0.020678  0  3.958206  0
C  C50  1  0.80777220  0.20299862  0.07969136  1  0  0.675561  0  3.893755  0  0  0.621426  0  4.186981  0  0  0.656968  0  4.178681  0  0  0.21084  0.597207  0  4.191781  0
C  C51  1  0.19222746  0.79700101  0.92030802  1  0  0.675702  0  3.893671  0  0  0.621567  0  4.186888  0  0  0.65711  0  4.178585  0  0  0.210895  0.597339  0  4.191705  0
C  C52  1  0.28115713  0.37484574  0.11102845  1  0  0.68448  0  3.893205  0  0  0.625671  0  4.197374  0  0  0.661304  0  4.188595  0  0  0.216625  0.601374  0  4.202537  0
C  C53  1  0.71883843  0.62516205  0.88897145  1  0  0.684301  0  3.893582  0  0  0.625532  0  4.197724  0  0  0.661165  0  4.188946  0  0  0.216538  0.601221  0  4.202906  0
O  O54  1  0.57460015  0.05768679  0.32917134  1  0  -0.460087  0  1.884127  0  0  -0.4223  0  2.08132  0  0  -0.438178  0  2.077489  0  0  -0.266478  -0.411559  0  2.083971  0
O  O55  1  0.42540549  0.94230609  0.67082814  1  0  -0.460144  0  1.884164  0  0  -0.422355  0  2.081342  0  0  -0.438235  0  2.077509  0  0  -0.266517  -0.411614  0  2.083987  0
O  O56  1  0.70837687  0.05138005  0.05408001  1  0  -0.658372  0  2.068732  0  0  -0.591113  0  2.327082  0  0  -0.621621  0  2.315282  0  0  -0.322885  -0.569395  0  2.334394  0
O  O57  1  0.29161971  0.94862228  0.94591931  1  0  -0.658406  0  2.068673  0  0  -0.591166  0  2.327057  0  0  -0.621676  0  2.315258  0  0  -0.322901  -0.569438  0  2.334371  0
O  O58  1  0.80084385  0.34635482  0.04470934  1  0  -0.650752  0  2.020272  0  0  -0.580228  0  2.256545  0  0  -0.610836  0  2.245108  0  0  -0.308852  -0.558588  0  2.263725  0
O  O59  1  0.19915597  0.65364617  0.95529006  1  0  -0.650848  0  2.020269  0  0  -0.580316  0  2.256548  0  0  -0.610922  0  2.245103  0  0  -0.308884  -0.55867  0  2.263734  0
O  O60  1  0.41118128  0.44202173  0.38952533  1  0  -0.445535  0  1.934857  0  0  -0.402633  0  2.144366  0  0  -0.419843  0  2.141631  0  0  -0.246413  -0.390923  0  2.146167  0
O  O61  1  0.58881358  0.55798056  0.61047339  1  0  -0.445495  0  1.934777  0  0  -0.402612  0  2.144264  0  0  -0.419821  0  2.141528  0  0  -0.246454  -0.390908  0  2.146064  0
O  O62  1  0.29729711  0.24480568  0.06364676  1  0  -0.673137  0  2.092153  0  0  -0.59689  0  2.335781  0  0  -0.628458  0  2.325274  0  0  -0.31126  -0.574689  0  2.342362  0
O  O63  1  0.70270119  0.75519670  0.93635315  1  0  -0.673063  0  2.092433  0  0  -0.596813  0  2.33603  0  0  -0.62838  0  2.325525  0  0  -0.311214  -0.574599  0  2.342608  0
O  O64  1  0.36875396  0.53587013  0.11272833  1  0  -0.626381  0  2.022184  0  0  -0.563886  0  2.277147  0  0  -0.593154  0  2.26471  0  0  -0.314762  -0.543056  0  2.284865  0
O  O65  1  0.63123783  0.46413486  0.88727033  1  0  -0.626306  0  2.022221  0  0  -0.563809  0  2.277142  0  0  -0.59308  0  2.264708  0  0  -0.314714  -0.542964  0  2.284857  0
O  O66  1  0.15314075  0.31592783  0.89431913  1  0  -0.847735  0  1.859397  0  0  -0.786551  0  2.047344  0  0  -0.811224  0  2.013438  0  0  -0.596067  -0.768832  0  2.070831  0
O  O67  1  0.84685922  0.68407448  0.10567976  1  0  -0.847724  0  1.859435  0  0  -0.786528  0  2.047359  0  0  -0.811213  0  2.013479  0  0  -0.596049  -0.768813  0  2.070847  0
O  O68  1  0.74021740  0.09078478  0.89175099  1  0  -0.819314  0  1.91453  0  0  -0.756764  0  2.10968  0  0  -0.77939  0  2.081148  0  0  -0.551299  -0.740724  0  2.129444  0
O  O69  1  0.25977894  0.90921507  0.10825152  1  0  -0.819249  0  1.914511  0  0  -0.7567  0  2.109672  0  0  -0.779318  0  2.081124  0  0  -0.551291  -0.740666  0  2.129431  0
