# generated using pymatgen
data_H26Pd4Pt(C11O8)2
_symmetry_space_group_name_H-M   'P 1'
_cell_length_a   9.30991916
_cell_length_b   9.62126762
_cell_length_c   10.62488175
_cell_angle_alpha   94.08331666
_cell_angle_beta   114.08334592
_cell_angle_gamma   113.85586141
_symmetry_Int_Tables_number   1
_chemical_formula_structural   H26Pd4Pt(C11O8)2
_chemical_formula_sum   'H26 Pd4 Pt1 C22 O16'
_cell_volume   762.16025227
_cell_formula_units_Z   1
loop_
 _symmetry_equiv_pos_site_id
 _symmetry_equiv_pos_as_xyz
  1  'x, y, z'
loop_
 _atom_site_type_symbol
 _atom_site_label
 _atom_site_symmetry_multiplicity
 _atom_site_fract_x
 _atom_site_fract_y
 _atom_site_fract_z
 _atom_site_occupancy
 _atom_site_pbe_bader_spin_density
 _atom_site_pbe_cm5_charge
 _atom_site_pbe_ddec_charge
 _atom_site_pbe_ddec_spin_density
 _atom_site_pbe_ddec_sum_bond_order
 _atom_site_pbe_magmom
H  H0  1  0.10643849  0.42974161  0.83065745  1  0  0.105086  0.164277  0  0.9876  0
H  H1  1  0.89356065  0.57025831  0.16933877  1  0  0.105094  0.164276  0  0.987604  0
H  H2  1  0.11232136  0.34614857  0.67770720  1  0  0.099041  0.149883  0  0.99096  0
H  H3  1  0.88767789  0.65385371  0.32228922  1  0  0.099036  0.149845  0  0.990964  0
H  H4  1  0.29454529  0.40713669  0.85364984  1  0  0.104157  0.165613  0  0.99378  0
H  H5  1  0.70545332  0.59286442  0.14634627  1  0  0.104167  0.165621  0  0.993784  0
H  H6  1  0.96857862  0.07303069  0.59427258  1  0  0.10177  0.149266  0  1.027272  0
H  H7  1  0.03142097  0.92696567  0.40572545  1  0  0.101795  0.149303  0  1.027248  0
H  H8  1  0.66686370  0.67034292  0.55638152  1  0  0.102187  0.151754  0  0.991081  0
H  H9  1  0.33313600  0.32965581  0.44361670  1  0  0.102188  0.151731  0  0.991127  0
H  H10  1  0.87246243  0.71980264  0.55682237  1  0  0.102537  0.155835  0  0.989068  0
H  H11  1  0.12753792  0.28019728  0.44317710  1  0  0.102524  0.155823  0  0.98901  0
H  H12  1  0.74128999  0.80841100  0.46318666  1  0  0.097615  0.157587  0  1.013088  0
H  H13  1  0.25871153  0.19158891  0.53681322  1  0  0.097611  0.157593  0  1.013086  0
H  H14  1  0.55522507  0.21538294  0.53777359  1  0  0.098403  0.155175  0  1.005584  0
H  H15  1  0.44477605  0.78462055  0.46222826  1  0  0.098414  0.155215  0  1.005569  0
H  H16  1  0.76991867  0.33132847  0.55163718  1  0  0.106783  0.163847  0  0.972502  0
H  H17  1  0.23008180  0.66867382  0.44836343  1  0  0.106795  0.163886  0  0.972495  0
H  H18  1  0.72757517  0.15953804  0.61271203  1  0  0.097709  0.161665  0  1.018894  0
H  H19  1  0.27242480  0.84046546  0.38729130  1  0  0.097745  0.161732  0  1.018909  0
H  H20  1  0.61931315  0.47971285  0.70041019  1  0  0.096604  0.147848  0  1.006163  0
H  H21  1  0.38068883  0.52028351  0.29959150  1  0  0.096624  0.14788  0  1.006129  0
H  H22  1  0.84375154  0.50752112  0.79826456  1  0  0.096879  0.156904  0  1.013794  0
H  H23  1  0.15624860  0.49247405  0.20173452  1  0  0.09689  0.156924  0  1.013791  0
H  H24  1  0.74789176  0.57217622  0.88713368  1  0  0.104709  0.178741  0  1.013236  0
H  H25  1  0.25211276  0.42782487  0.11286733  1  0  0.104705  0.178734  0  1.013195  0
Pd  Pd26  1  0.31954868  0.95442382  0.06542743  1  0  0.632298  0.261437  0  3.671298  0
Pd  Pd27  1  0.68044925  0.04557374  0.93457385  1  0  0.632325  0.26145  0  3.671428  0
Pd  Pd28  1  0.34264097  0.04261982  0.83753123  1  0  0.647599  0.333041  0  3.516296  0
Pd  Pd29  1  0.65735704  0.95738011  0.16246836  1  0  0.647602  0.333048  0  3.516304  0
Pt  Pt30  1  0.99999967  0.00000119  0.99999922  1  0  0.640074  0.531844  0  3.730867  0
C  C31  1  0.14817078  0.35279899  0.79051544  1  0  -0.23972  -0.478252  0  3.884192  0
C  C32  1  0.85182900  0.64720211  0.20948109  1  0  -0.239725  -0.478212  0  3.884236  0
C  C33  1  0.06492133  0.19239346  0.81050908  1  0  0.111453  0.457788  0  4.003053  0
C  C34  1  0.93507664  0.80760645  0.18948673  1  0  0.111414  0.457779  0  4.00315  0
C  C35  1  0.97774020  0.05498281  0.69666064  1  0  -0.162952  -0.46819  0  3.981157  0
C  C36  1  0.02225949  0.94501591  0.30333663  1  0  -0.16303  -0.468276  0  3.981146  0
C  C37  1  0.88163670  0.89777819  0.69522224  1  0  0.11369  0.464467  0  3.994231  0
C  C38  1  0.11836482  0.10222172  0.30477669  1  0  0.113745  0.464541  0  3.99417  0
C  C39  1  0.78329085  0.76703293  0.55866320  1  0  -0.238642  -0.473882  0  3.874006  0
C  C40  1  0.21671183  0.23296697  0.44133520  1  0  -0.23864  -0.473876  0  3.873998  0
C  C41  1  0.60512959  0.11468522  0.38304451  1  0  0.207039  0.666493  0  4.079394  0
C  C42  1  0.39487027  0.88531589  0.61695769  1  0  0.207066  0.666561  0  4.079283  0
C  C43  1  0.66704427  0.21047044  0.53072149  1  0  -0.242969  -0.515106  0  3.864662  0
C  C44  1  0.33295620  0.78953186  0.46927911  1  0  -0.24303  -0.515269  0  3.864715  0
C  C45  1  0.64543608  0.32166346  0.83034381  1  0  0.206055  0.661342  0  4.087626  0
C  C46  1  0.35456485  0.67833528  0.16965955  1  0  0.20601  0.661269  0  4.087717  0
C  C47  1  0.71897751  0.47883928  0.80086133  1  0  -0.247703  -0.530123  0  3.886048  0
C  C48  1  0.28102455  0.52115945  0.19913866  1  0  -0.247714  -0.530135  0  3.886028  0
C  C49  1  0.20969974  0.83574109  0.86265478  1  0  -0.083999  0.069858  0  4.047868  0
C  C50  1  0.79029531  0.16425767  0.13734557  1  0  -0.083993  0.069869  0  4.047879  0
C  C51  1  0.40916891  0.16436024  0.02879733  1  0  -0.085216  0.051271  0  4.072262  0
C  C52  1  0.59083224  0.83564325  0.97120641  1  0  -0.085225  0.051287  0  4.072276  0
O  O53  1  0.08339058  0.19597767  0.93836199  1  0  -0.282957  -0.359978  0  2.540061  0
O  O54  1  0.91660803  0.80402343  0.06163412  1  0  -0.282893  -0.359952  0  2.540155  0
O  O55  1  0.87196701  0.85056270  0.80359750  1  0  -0.279995  -0.352706  0  2.511872  0
O  O56  1  0.12803152  0.14943603  0.19640030  1  0  -0.280018  -0.352737  0  2.511826  0
O  O57  1  0.44586599  0.07403398  0.28799933  1  0  -0.335178  -0.455616  0  2.35628  0
O  O58  1  0.55413438  0.92596594  0.71200203  1  0  -0.335185  -0.455612  0  2.356258  0
O  O59  1  0.71836637  0.08372791  0.36588454  1  0  -0.340968  -0.474481  0  2.322783  0
O  O60  1  0.28163531  0.91627440  0.63411932  1  0  -0.340979  -0.47451  0  2.322784  0
O  O61  1  0.48069268  0.25814285  0.80019351  1  0  -0.34162  -0.472932  0  2.338504  0
O  O62  1  0.51930835  0.74185827  0.19981005  1  0  -0.34162  -0.472922  0  2.338472  0
O  O63  1  0.75286808  0.26577253  0.88416170  1  0  -0.334107  -0.442102  0  2.316307  0
O  O64  1  0.24713285  0.73422622  0.11584166  1  0  -0.334077  -0.442063  0  2.316372  0
O  O65  1  0.11981152  0.70272259  0.79195898  1  0  -0.170803  -0.146112  0  2.395931  0
O  O66  1  0.88018467  0.29727615  0.20803895  1  0  -0.170803  -0.14612  0  2.395952  0
O  O67  1  0.48363548  0.29790168  0.09523880  1  0  -0.164817  -0.120532  0  2.383633  0
O  O68  1  0.51636233  0.70209351  0.90476040  1  0  -0.16486  -0.12061  0  2.383513  0
