# generated using pymatgen
data_ZnH16C18(NO)8
_symmetry_space_group_name_H-M   'P 1'
_cell_length_a   7.43907131
_cell_length_b   11.47978406
_cell_length_c   13.61100000
_cell_angle_alpha   114.77197773
_cell_angle_beta   91.15196667
_cell_angle_gamma   89.99193449
_symmetry_Int_Tables_number   1
_chemical_formula_structural   ZnH16C18(NO)8
_chemical_formula_sum   'Zn2 H32 C36 N16 O16'
_cell_volume   1055.14974189
_cell_formula_units_Z   2
loop_
 _symmetry_equiv_pos_site_id
 _symmetry_equiv_pos_as_xyz
  1  'x, y, z'
loop_
 _atom_site_type_symbol
 _atom_site_label
 _atom_site_symmetry_multiplicity
 _atom_site_fract_x
 _atom_site_fract_y
 _atom_site_fract_z
 _atom_site_occupancy
 _atom_site_hle17_bader_spin_density
 _atom_site_hle17_ddec_charge
 _atom_site_hle17_ddec_spin_density
 _atom_site_hle17_ddec_sum_bond_order
 _atom_site_hle17_magmom
 _atom_site_hse06_10hf_bader_spin_density
 _atom_site_hse06_10hf_ddec_charge
 _atom_site_hse06_10hf_ddec_spin_density
 _atom_site_hse06_10hf_ddec_sum_bond_order
 _atom_site_hse06_10hf_magmom
 _atom_site_hse06_bader_spin_density
 _atom_site_hse06_ddec_charge
 _atom_site_hse06_ddec_spin_density
 _atom_site_hse06_ddec_sum_bond_order
 _atom_site_hse06_magmom
 _atom_site_pbe_bader_charge
 _atom_site_pbe_bader_spin_density
 _atom_site_pbe_cm5_charge
 _atom_site_pbe_ddec_charge
 _atom_site_pbe_ddec_spin_density
 _atom_site_pbe_ddec_sum_bond_order
 _atom_site_pbe_magmom
Zn  Zn0  1  0.50000082  0.00000000  0.50000063  1  0  1.063653  0  1.753145  0  0  0.883033  0  2.192738  0  0  0.929891  0  2.139684  0  1.332057  0  0.687282  0.85032  0  2.229055  0
Zn  Zn1  1  0.00000047  0.49999955  0.49999992  1  0  1.063825  0  1.755103  0  0  0.883635  0  2.194895  0  0  0.930361  0  2.141904  0  1.326679  0  0.68914  0.850821  0  2.231368  0
H  H2  1  0.45231390  0.06745365  0.73310389  1  0  0.079938  0  0.955588  0  0  0.088045  0  1.020706  0  0  0.090257  0  1.018739  0  0.116123  0  0.115939  0.08636  0  1.022262  0
H  H3  1  0.04701442  0.33449553  0.26765452  1  0  0.080057  0  0.956441  0  0  0.088267  0  1.021178  0  0  0.090499  0  1.019238  0  0.088401  0  0.116349  0.086511  0  1.022805  0
H  H4  1  0.54768465  0.93254546  0.26689571  1  0  0.079958  0  0.955575  0  0  0.088055  0  1.020694  0  0  0.09027  0  1.018734  0  0.116125  0  0.115944  0.086369  0  1.022252  0
H  H5  1  0.95298551  0.66550550  0.73234577  1  0  0.080041  0  0.956472  0  0  0.088239  0  1.021223  0  0  0.090476  0  1.019269  0  0.088379  0  0.116359  0.086483  0  1.02285  0
H  H6  1  0.34831022  0.25551066  0.89908821  1  0  0.122014  0  0.949668  0  0  0.123148  0  1.023748  0  0  0.127992  0  1.019936  0  0.126428  0  0.111079  0.119698  0  1.02654  0
H  H7  1  0.15124292  0.35675014  0.10138793  1  0  0.122359  0  0.949865  0  0  0.123741  0  1.023691  0  0  0.12849  0  1.019964  0  0.136465  0  0.111522  0.120348  0  1.026399  0
H  H8  1  0.65168968  0.74448845  0.10091140  1  0  0.122113  0  0.94956  0  0  0.123226  0  1.023656  0  0  0.128071  0  1.019842  0  0.126527  0  0.111115  0.119774  0  1.026451  0
H  H9  1  0.84875567  0.64325185  0.89861342  1  0  0.122327  0  0.949873  0  0  0.123713  0  1.023694  0  0  0.128462  0  1.019966  0  0.13646  0  0.111515  0.120317  0  1.026407  0
H  H10  1  0.51115496  0.29093133  0.56394255  1  0  0.089656  0  0.953507  0  0  0.094743  0  1.021777  0  0  0.097141  0  1.01954  0  0.121278  0  0.119371  0.092935  0  1.02348  0
H  H11  1  0.98895586  0.72640442  0.43581949  1  0  0.090021  0  0.953336  0  0  0.095366  0  1.021203  0  0  0.097761  0  1.018955  0  0.132877  0  0.119617  0.093579  0  1.022871  0
H  H12  1  0.48884763  0.70906777  0.43605783  1  0  0.089725  0  0.953429  0  0  0.094752  0  1.021753  0  0  0.09715  0  1.019516  0  0.121264  0  0.119366  0.092943  0  1.023457  0
H  H13  1  0.01104138  0.27359661  0.56418076  1  0  0.090061  0  0.95331  0  0  0.095385  0  1.02118  0  0  0.09778  0  1.018934  0  0.132923  0  0.119624  0.093598  0  1.02285  0
H  H14  1  0.42361808  0.48921860  0.72297672  1  0  0.126578  0  0.955399  0  0  0.129378  0  1.024791  0  0  0.134147  0  1.020932  0  0.145233  0  0.111746  0.125893  0  1.027735  0
H  H15  1  0.07666737  0.76575486  0.27645951  1  0  0.126195  0  0.954705  0  0  0.129329  0  1.023736  0  0  0.134026  0  1.019949  0  0.135983  0  0.11199  0.125948  0  1.026528  0
H  H16  1  0.57638587  0.51078147  0.27702327  1  0  0.126602  0  0.955377  0  0  0.129423  0  1.024741  0  0  0.1342  0  1.020873  0  0.145428  0  0.111763  0.125937  0  1.027688  0
H  H17  1  0.92332852  0.23424617  0.72354073  1  0  0.126212  0  0.95469  0  0  0.129354  0  1.02371  0  0  0.13405  0  1.019924  0  0.135987  0  0.11201  0.125973  0  1.026501  0
H  H18  1  0.17704225  0.94381668  0.16807665  1  0  0.11808  0  0.948468  0  0  0.123636  0  1.014903  0  0  0.128036  0  1.011516  0  0.113393  0  0.109702  0.120446  0  1.017455  0
H  H19  1  0.32325132  0.77663559  0.83152204  1  0  0.116722  0  0.948709  0  0  0.122629  0  1.014978  0  0  0.127018  0  1.011589  0  0.105043  0  0.109384  0.119423  0  1.017565  0
H  H20  1  0.82296441  0.05618531  0.83192332  1  0  0.118048  0  0.948437  0  0  0.123606  0  1.014877  0  0  0.128006  0  1.011492  0  0.113394  0  0.109688  0.120416  0  1.017429  0
H  H21  1  0.67674591  0.22336447  0.16847715  1  0  0.116715  0  0.948707  0  0  0.122603  0  1.015003  0  0  0.126994  0  1.011613  0  0.105041  0  0.109372  0.119402  0  1.017577  0
H  H22  1  0.18633531  0.15762722  0.16200896  1  0  0.066084  0  0.940069  0  0  0.077594  0  0.997949  0  0  0.079586  0  0.996918  0  0.068454  0  0.107896  0.0761  0  0.998817  0
H  H23  1  0.31359918  0.99650971  0.83760005  1  0  0.065878  0  0.941264  0  0  0.077567  0  0.998986  0  0  0.079579  0  0.99791  0  0.06647  0  0.108058  0.076012  0  0.999923  0
H  H24  1  0.81366594  0.84237188  0.83799067  1  0  0.066083  0  0.940046  0  0  0.077597  0  0.997927  0  0  0.079588  0  0.996896  0  0.068455  0  0.107895  0.076103  0  0.998796  0
H  H25  1  0.68639668  0.00348940  0.16239878  1  0  0.065894  0  0.941218  0  0  0.07755  0  0.998982  0  0  0.079586  0  0.997879  0  0.066501  0  0.108063  0.075997  0  0.99992  0
H  H26  1  0.38790183  0.15126246  0.39740903  1  0  0.413513  0  0.894173  0  0  0.377762  0  0.966782  0  0  0.389467  0  0.949541  0  0.651588  0  0.2881  0.369479  0  0.978958  0
H  H27  1  0.11234574  0.75377175  0.60240807  1  0  0.413494  0  0.894121  0  0  0.377535  0  0.967029  0  0  0.389194  0  0.949847  0  0.646027  0  0.287961  0.36934  0  0.979079  0
H  H28  1  0.61209809  0.84873761  0.60259092  1  0  0.413519  0  0.894164  0  0  0.377769  0  0.966771  0  0  0.389474  0  0.94953  0  0.651592  0  0.288106  0.369486  0  0.978948  0
H  H29  1  0.88765417  0.24622831  0.39759115  1  0  0.413498  0  0.894116  0  0  0.377538  0  0.967026  0  0  0.389195  0  0.949848  0  0.646028  0  0.287962  0.369343  0  0.979076  0
H  H30  1  0.21276606  0.07446314  0.40098798  1  0  0.424901  0  0.872715  0  0  0.389634  0  0.943836  0  0  0.400951  0  0.927068  0  0.649988  0  0.291746  0.381662  0  0.955632  0
H  H31  1  0.28751512  0.67348496  0.59894017  1  0  0.424992  0  0.872621  0  0  0.389935  0  0.943495  0  0  0.401262  0  0.926703  0  0.64777  0  0.291777  0.381905  0  0.955386  0
H  H32  1  0.78723386  0.92553693  0.59901270  1  0  0.424893  0  0.87273  0  0  0.389625  0  0.943845  0  0  0.40094  0  0.927081  0  0.649989  0  0.291754  0.381653  0  0.955641  0
H  H33  1  0.71248480  0.32651607  0.40106011  1  0  0.424991  0  0.872621  0  0  0.389938  0  0.943488  0  0  0.401266  0  0.926696  0  0.647729  0  0.291777  0.381909  0  0.955379  0
C  C34  1  0.43936922  0.16274666  0.73488444  1  0  0.133002  0  3.698792  0  0  0.100193  0  3.952299  0  0  0.105819  0  3.971966  0  0.493237  0  0.045347  0.096551  0  3.938915  0
C  C35  1  0.06013800  0.42783805  0.26559234  1  0  0.134273  0  3.69947  0  0  0.101106  0  3.953083  0  0  0.106746  0  3.972648  0  0.537408  0  0.045665  0.097462  0  3.939814  0
C  C36  1  0.56063067  0.83725148  0.26511557  1  0  0.132986  0  3.698814  0  0  0.100198  0  3.952301  0  0  0.105815  0  3.971977  0  0.49327  0  0.045334  0.096556  0  3.938915  0
C  C37  1  0.93986059  0.57216393  0.73440828  1  0  0.134389  0  3.699497  0  0  0.101202  0  3.953064  0  0  0.106844  0  3.972632  0  0.537337  0  0.045712  0.097557  0  3.939796  0
C  C38  1  0.38519204  0.26719251  0.82660030  1  0  -0.122141  0  3.6647  0  0  -0.144495  0  3.91691  0  0  -0.150492  0  3.937133  0  -0.029146  0  -0.075468  -0.14052  0  3.903249  0
C  C39  1  0.11445816  0.44066448  0.17373506  1  0  -0.122158  0  3.667263  0  0  -0.143967  0  3.919437  0  0  -0.14987  0  3.939664  0  -0.065087  0  -0.07542  -0.14  0  3.905694  0
C  C40  1  0.61480653  0.73280756  0.17339963  1  0  -0.122179  0  3.664624  0  0  -0.144505  0  3.916839  0  0  -0.150502  0  3.937063  0  -0.02925  0  -0.075453  -0.140529  0  3.903178  0
C  C41  1  0.88553771  0.55933462  0.82626450  1  0  -0.122101  0  3.667156  0  0  -0.143905  0  3.919343  0  0  -0.149806  0  3.93957  0  -0.065103  0  -0.075387  -0.139944  0  3.90561  0
C  C42  1  0.47460735  0.28719537  0.63956400  1  0  0.144451  0  3.659507  0  0  0.113698  0  3.912161  0  0  0.120128  0  3.930709  0  0.5146  0  0.053984  0.109488  0  3.899629  0
C  C43  1  0.02537649  0.64726317  0.36035707  1  0  0.144073  0  3.661967  0  0  0.113416  0  3.9139  0  0  0.119867  0  3.932449  0  0.471532  0  0.054188  0.10919  0  3.901377  0
C  C44  1  0.52539391  0.71280470  0.36043670  1  0  0.144357  0  3.659506  0  0  0.113661  0  3.912152  0  0  0.120093  0  3.930696  0  0.51459  0  0.053961  0.109451  0  3.899623  0
C  C45  1  0.97462211  0.35273882  0.63964281  1  0  0.144021  0  3.662108  0  0  0.113367  0  3.91401  0  0  0.119817  0  3.932563  0  0.47152  0  0.054169  0.10914  0  3.901487  0
C  C46  1  0.42550104  0.39747638  0.72838488  1  0  -0.115467  0  3.662018  0  0  -0.139104  0  3.913008  0  0  -0.145168  0  3.933098  0  -0.030371  0  -0.072963  -0.135071  0  3.899535  0
C  C47  1  0.07461650  0.66877519  0.27136064  1  0  -0.113623  0  3.662887  0  0  -0.137042  0  3.914164  0  0  -0.143041  0  3.934303  0  0.03669  0  -0.072024  -0.133047  0  3.900611  0
C  C48  1  0.57449887  0.60252369  0.27161581  1  0  -0.115515  0  3.662038  0  0  -0.139156  0  3.913015  0  0  -0.145227  0  3.933097  0  -0.030562  0  -0.07299  -0.135124  0  3.899545  0
C  C49  1  0.92538340  0.33122392  0.72863897  1  0  -0.113614  0  3.662852  0  0  -0.137032  0  3.914142  0  0  -0.143032  0  3.934282  0  0.036695  0  -0.07202  -0.133036  0  3.900589  0
C  C50  1  0.37638380  0.38745816  0.82308734  1  0  0.030592  0  3.734926  0  0  0.043962  0  3.965155  0  0  0.04434  0  3.986793  0  -0.026453  0  0.011024  0.043878  0  3.950291  0
C  C51  1  0.12354855  0.56421325  0.17692764  1  0  0.030803  0  3.735312  0  0  0.042436  0  3.968196  0  0  0.042805  0  3.989789  0  -0.040609  0  0.01077  0.042351  0  3.953371  0
C  C52  1  0.62361477  0.61254191  0.17691332  1  0  0.030548  0  3.734907  0  0  0.043883  0  3.965178  0  0  0.044262  0  3.986817  0  -0.026462  0  0.010998  0.0438  0  3.950314  0
C  C53  1  0.87645001  0.43578585  0.82307269  1  0  0.030758  0  3.735255  0  0  0.04237  0  3.968216  0  0  0.04274  0  3.989809  0  -0.040514  0  0.010734  0.042286  0  3.95339  0
C  C54  1  0.31227731  0.50094746  0.91700842  1  0  0.40458  0  3.765467  0  0  0.383796  0  4.029704  0  0  0.400869  0  4.040563  0  1.102818  0  0.261082  0.372574  0  4.022051  0
C  C55  1  0.18782254  0.58368748  0.08282699  1  0  0.404134  0  3.766674  0  0  0.383431  0  4.031494  0  0  0.400487  0  4.042371  0  1.130802  0  0.259983  0.372222  0  4.023832  0
C  C56  1  0.68772260  0.49905261  0.08299226  1  0  0.404615  0  3.765445  0  0  0.383837  0  4.029667  0  0  0.40091  0  4.040526  0  1.10282  0  0.261092  0.372615  0  4.022015  0
C  C57  1  0.81217872  0.41631259  0.91717371  1  0  0.404225  0  3.766539  0  0  0.383461  0  4.031436  0  0  0.400517  0  4.042311  0  1.130795  0  0.259989  0.372252  0  4.023775  0
C  C58  1  0.25019219  0.71363075  0.99974498  1  0  0.409666  0  3.741429  0  0  0.391188  0  4.001628  0  0  0.408631  0  4.012337  0  1.079482  0  0.265884  0.379711  0  3.99411  0
C  C59  1  0.74980772  0.28636931  0.00025423  1  0  0.409661  0  3.74146  0  0  0.391136  0  4.0017  0  0  0.408579  0  4.012408  0  1.079258  0  0.265868  0.379657  0  3.994183  0
C  C60  1  0.25031443  0.84252923  0.99979756  1  0  0.021453  0  3.742161  0  0  0.034859  0  3.972526  0  0  0.033419  0  3.995585  0  -0.030931  0  0.007348  0.035917  0  3.956742  0
C  C61  1  0.74968683  0.15747084  0.00020166  1  0  0.021395  0  3.742168  0  0  0.034838  0  3.972511  0  0  0.033401  0  3.995565  0  -0.030719  0  0.007339  0.035896  0  3.956727  0
C  C62  1  0.20974184  0.95175968  0.09348972  1  0  -0.125861  0  3.68898  0  0  -0.148153  0  3.935315  0  0  -0.15319  0  3.956565  0  -0.044153  0  -0.075316  -0.14471  0  3.920887  0
C  C63  1  0.29066901  0.85872033  0.90611279  1  0  -0.124313  0  3.689114  0  0  -0.146909  0  3.93526  0  0  -0.151919  0  3.956464  0  -0.011287  0  -0.07497  -0.14349  0  3.920883  0
C  C64  1  0.79026211  0.04824039  0.90651175  1  0  -0.12577  0  3.689049  0  0  -0.148078  0  3.935394  0  0  -0.153111  0  3.95663  0  -0.044151  0  -0.075306  -0.144635  0  3.920964  0
C  C65  1  0.70932686  0.14127878  0.09388604  1  0  -0.124206  0  3.689077  0  0  -0.146793  0  3.935209  0  0  -0.151806  0  3.956419  0  -0.011454  0  -0.074883  -0.143374  0  3.920822  0
C  C66  1  0.21360219  0.07098046  0.08928516  1  0  0.1113  0  3.75013  0  0  0.089598  0  4.009644  0  0  0.092892  0  4.029624  0  0.538912  0  0.040763  0.087498  0  3.995892  0
C  C67  1  0.28658126  0.98212999  0.91035011  1  0  0.112266  0  3.751448  0  0  0.090415  0  4.010747  0  0  0.093703  0  4.030749  0  0.502909  0  0.040833  0.088375  0  3.996947  0
C  C68  1  0.78640177  0.92902057  0.91071517  1  0  0.111281  0  3.750102  0  0  0.089573  0  4.009628  0  0  0.092866  0  4.029612  0  0.538894  0  0.040752  0.087474  0  3.995875  0
C  C69  1  0.71341731  0.01787008  0.08964909  1  0  0.112214  0  3.751454  0  0  0.090387  0  4.010752  0  0  0.093655  0  4.030751  0  0.502852  0  0.040788  0.088342  0  3.996958  0
N  N70  1  0.47908154  0.17140060  0.64203349  1  0  -0.322263  0  3.290763  0  0  -0.23877  0  3.549068  0  0  -0.258188  0  3.567235  0  -1.219959  0  -0.319688  -0.225509  0  3.536494  0
N  N71  1  0.02065158  0.52916675  0.35819302  1  0  -0.323048  0  3.295685  0  0  -0.239549  0  3.55496  0  0  -0.259038  0  3.573071  0  -1.238873  0  -0.321097  -0.226277  0  3.542491  0
N  N72  1  0.52091836  0.82859851  0.35796686  1  0  -0.32225  0  3.290738  0  0  -0.238767  0  3.549018  0  0  -0.258184  0  3.567187  0  -1.219964  0  -0.319688  -0.225506  0  3.536444  0
N  N73  1  0.97934700  0.47083427  0.64180799  1  0  -0.323207  0  3.29594  0  0  -0.239613  0  3.555107  0  0  -0.259104  0  3.573222  0  -1.238879  0  -0.321179  -0.226339  0  3.542637  0
N  N74  1  0.31782542  0.61591713  0.91333330  1  0  -0.431759  0  2.945253  0  0  -0.398701  0  3.203356  0  0  -0.415471  0  3.213821  0  -1.187941  0  -0.295465  -0.387763  0  3.196314  0
N  N75  1  0.18242386  0.70215326  0.08624242  1  0  -0.431978  0  2.948665  0  0  -0.398675  0  3.206631  0  0  -0.415461  0  3.21715  0  -1.178885  0  -0.294834  -0.387732  0  3.19956  0
N  N76  1  0.68217584  0.38408293  0.08666593  1  0  -0.431764  0  2.945281  0  0  -0.398691  0  3.203391  0  0  -0.415462  0  3.213858  0  -1.187926  0  -0.295461  -0.387754  0  3.196354  0
N  N77  1  0.81757876  0.29784776  0.91375789  1  0  -0.432036  0  2.948708  0  0  -0.398696  0  3.206706  0  0  -0.415483  0  3.217225  0  -1.178694  0  -0.294846  -0.387752  0  3.199636  0
N  N78  1  0.25001200  0.47989212  0.00002062  1  0  -0.438486  0  2.975758  0  0  -0.405453  0  3.239051  0  0  -0.422442  0  3.250085  0  -1.209916  0  -0.300473  -0.394311  0  3.231546  0
N  N79  1  0.74998793  0.52010891  0.99997967  1  0  -0.438504  0  2.975633  0  0  -0.405433  0  3.238929  0  0  -0.422422  0  3.249962  0  -1.209912  0  -0.300444  -0.39429  0  3.231424  0
N  N80  1  0.25003662  0.08794581  0.99981888  1  0  -0.309192  0  3.05104  0  0  -0.277882  0  3.321961  0  0  -0.287138  0  3.338077  0  -1.190844  0  -0.322137  -0.271342  0  3.310659  0
N  N81  1  0.74996330  0.91205426  0.00018107  1  0  -0.309225  0  3.050972  0  0  -0.277911  0  3.321885  0  0  -0.28717  0  3.338011  0  -1.19083  0  -0.322144  -0.271371  0  3.310584  0
N  N82  1  0.86867440  0.03685020  0.41123138  1  0  0.695031  0  4.140764  0  0  0.716528  0  4.447433  0  0  0.745253  0  4.452971  0  0.853444  0  0.103694  0.698849  0  4.442966  0
N  N83  1  0.63137571  0.62571181  0.58871624  1  0  0.698603  0  4.136583  0  0  0.716596  0  4.44731  0  0  0.745497  0  4.452524  0  0.838832  0  0.103421  0.69719  0  4.443271  0
N  N84  1  0.13132552  0.96314986  0.58876783  1  0  0.695001  0  4.140734  0  0  0.716516  0  4.447379  0  0  0.745242  0  4.452907  0  0.853348  0  0.103669  0.698834  0  4.442912  0
N  N85  1  0.36862284  0.37428730  0.41128409  1  0  0.698678  0  4.136532  0  0  0.716662  0  4.447281  0  0  0.745562  0  4.452494  0  0.838855  0  0.103448  0.697255  0  4.44324  0
O  O86  1  0.34571972  0.07122319  0.40138102  1  0  -0.837087  0  1.943403  0  0  -0.781346  0  2.159217  0  0  -0.801634  0  2.122291  0  -1.280117  0  -0.581707  -0.766787  0  2.184709  0
O  O87  1  0.15456216  0.66973460  0.59827941  1  0  -0.838251  0  1.942765  0  0  -0.782728  0  2.158489  0  0  -0.802979  0  2.121746  0  -1.272199  0  -0.582243  -0.768209  0  2.183888  0
O  O88  1  0.65428020  0.92877687  0.59861893  1  0  -0.837083  0  1.943425  0  0  -0.781332  0  2.159255  0  0  -0.801619  0  2.122329  0  -1.280121  0  -0.581705  -0.766774  0  2.184748  0
O  O89  1  0.84543775  0.33026546  0.40172128  1  0  -0.838258  0  1.942779  0  0  -0.782735  0  2.158492  0  0  -0.802984  0  2.121752  0  -1.272158  0  -0.582247  -0.768216  0  2.183894  0
O  O90  1  0.72159781  0.09276496  0.45136807  1  0  -0.482669  0  1.845717  0  0  -0.45236  0  2.090612  0  0  -0.471707  0  2.082327  0  -0.576658  0  -0.184793  -0.439633  0  2.096091  0
O  O91  1  0.77837437  0.64171966  0.54854685  1  0  -0.484539  0  1.844728  0  0  -0.453097  0  2.090204  0  0  -0.472414  0  2.081794  0  -0.576409  0  -0.184588  -0.439706  0  2.095725  0
O  O92  1  0.27840346  0.90723607  0.54863297  1  0  -0.482672  0  1.845728  0  0  -0.452367  0  2.090613  0  0  -0.471722  0  2.082346  0  -0.576621  0  -0.18477  -0.439638  0  2.096093  0
O  O93  1  0.22162419  0.35827945  0.45145421  1  0  -0.484616  0  1.844721  0  0  -0.453157  0  2.09017  0  0  -0.472464  0  2.081751  0  -0.576458  0  -0.184637  -0.439778  0  2.095721  0
O  O94  1  0.90243297  0.92670645  0.40128472  1  0  -0.411122  0  1.817704  0  0  -0.406361  0  2.039567  0  0  -0.419268  0  2.035953  0  -0.503942  0  -0.153887  -0.398033  0  2.041913  0
O  O95  1  0.59753266  0.52540392  0.59855427  1  0  -0.412569  0  1.818765  0  0  -0.406005  0  2.041686  0  0  -0.419061  0  2.038149  0  -0.486702  0  -0.153392  -0.396849  0  2.043939  0
O  O96  1  0.09756830  0.07329457  0.59871559  1  0  -0.411118  0  1.817685  0  0  -0.406378  0  2.039556  0  0  -0.419285  0  2.035941  0  -0.503848  0  -0.153898  -0.398048  0  2.041902  0
O  O97  1  0.40246456  0.47459614  0.40144565  1  0  -0.412566  0  1.818769  0  0  -0.405993  0  2.041682  0  0  -0.419053  0  2.038152  0  -0.486654  0  -0.153375  -0.396838  0  2.043937  0
O  O98  1  0.98080300  0.09976965  0.38106092  1  0  -0.485429  0  1.810011  0  0  -0.455993  0  2.017357  0  0  -0.473557  0  2.007925  0  -0.58922  0  -0.181881  -0.44447  0  2.023739  0
O  O99  1  0.51928564  0.71868592  0.61905148  1  0  -0.486486  0  1.808652  0  0  -0.456276  0  2.017504  0  0  -0.473951  0  2.008033  0  -0.591896  0  -0.182083  -0.443994  0  2.023901  0
O  O100  1  0.01919693  0.90023137  0.61893937  1  0  -0.485385  0  1.809967  0  0  -0.455962  0  2.017313  0  0  -0.473531  0  2.007884  0  -0.58921  0  -0.181873  -0.444442  0  2.023701  0
O  O101  1  0.48071290  0.28131223  0.38094777  1  0  -0.486487  0  1.808634  0  0  -0.456292  0  2.017506  0  0  -0.473971  0  2.008037  0  -0.591895  0  -0.182075  -0.444009  0  2.023905  0
