# generated using pymatgen
data_CuH12C16N4(ClO)6
_symmetry_space_group_name_H-M   'P 1'
_cell_length_a   9.50679430
_cell_length_b   9.50677935
_cell_length_c   13.00445408
_cell_angle_alpha   87.19797775
_cell_angle_beta   87.19795581
_cell_angle_gamma   87.61714103
_symmetry_Int_Tables_number   1
_chemical_formula_structural   CuH12C16N4(ClO)6
_chemical_formula_sum   'Cu2 H24 C32 N8 Cl12 O12'
_cell_volume   1171.61579780
_cell_formula_units_Z   2
loop_
 _symmetry_equiv_pos_site_id
 _symmetry_equiv_pos_as_xyz
  1  'x, y, z'
loop_
 _atom_site_type_symbol
 _atom_site_label
 _atom_site_symmetry_multiplicity
 _atom_site_fract_x
 _atom_site_fract_y
 _atom_site_fract_z
 _atom_site_occupancy
 _atom_site_hle17_ddec_charge
 _atom_site_hle17_ddec_spin_density
 _atom_site_hle17_ddec_sum_bond_order
 _atom_site_hle17_magmom
 _atom_site_hse06_10hf_ddec_charge
 _atom_site_hse06_10hf_ddec_spin_density
 _atom_site_hse06_10hf_ddec_sum_bond_order
 _atom_site_hse06_10hf_magmom
 _atom_site_hse06_ddec_charge
 _atom_site_hse06_ddec_spin_density
 _atom_site_hse06_ddec_sum_bond_order
 _atom_site_hse06_magmom
 _atom_site_pbe_cm5_charge
 _atom_site_pbe_ddec_charge
 _atom_site_pbe_ddec_spin_density
 _atom_site_pbe_ddec_sum_bond_order
 _atom_site_pbe_magmom
Cu  Cu0  1  0.00000409  0.49999993  0.49999785  1  0.911168  -0.718698  1.760073  -0.537  0.888616  -0.797952  2.139415  -0.653  0.973414  -0.8631  2.080739  -0.739  0.760811  0.831604  -0.747909  2.186005  -0.591
Cu  Cu1  1  0.50000122  0.99999623  0.00000015  1  0.911202  -0.718697  1.76  -0.537  0.888661  -0.797951  2.139377  -0.653  0.973429  -0.863105  2.080656  -0.739  0.760864  0.831647  -0.747884  2.18599  -0.591
H  H2  1  0.53442112  0.64754201  0.00512382  1  0.345915  7.9e-05  0.898312  0.0  0.328648  7.6e-05  0.957973  0.0  0.336912  6.7e-05  0.951567  0.0  0.302637  0.322743  8.3e-05  0.962572  0.0
H  H3  1  0.35245808  0.46557465  0.49487586  1  0.345854  7.7e-05  0.898398  0.0  0.328603  7.6e-05  0.958017  0.0  0.336864  6.7e-05  0.951615  0.0  0.302645  0.322699  8.3e-05  0.962623  0.0
H  H4  1  0.46557776  0.35245600  0.99487453  1  0.345925  7.2e-05  0.898297  0.0  0.328652  7.6e-05  0.957965  0.0  0.336914  6.8e-05  0.95156  0.0  0.302641  0.322747  8.3e-05  0.962565  0.0
H  H5  1  0.64754402  0.53442232  0.50512471  1  0.345915  7.6e-05  0.898318  0.0  0.328655  7.6e-05  0.95797  0.0  0.336918  6.8e-05  0.951562  0.0  0.302649  0.322747  8.3e-05  0.962568  0.0
H  H6  1  0.64927300  0.51226731  0.05194915  1  0.344538  -3.3e-05  0.921302  0.0  0.32327  -2.1e-05  0.990712  0.0  0.332381  -1.2e-05  0.982419  0.0  0.296021  0.316861  -2.2e-05  0.996584  0.0
H  H7  1  0.48773257  0.35072683  0.44805035  1  0.344502  -3.5e-05  0.921326  0.0  0.323238  -2.1e-05  0.990741  0.0  0.332348  -1.2e-05  0.982448  0.0  0.295999  0.31683  -2.2e-05  0.996613  0.0
H  H8  1  0.35072707  0.48772755  0.94805004  1  0.344552  -3.5e-05  0.921291  0.0  0.323279  -2.1e-05  0.990714  0.0  0.332389  -1.2e-05  0.982423  0.0  0.296033  0.316871  -2.2e-05  0.996586  0.0
H  H9  1  0.51227046  0.64927331  0.55195084  1  0.344552  -3.3e-05  0.921278  0.0  0.323282  -2.1e-05  0.990694  0.0  0.332393  -1.2e-05  0.982402  0.0  0.296026  0.316874  -2.2e-05  0.996566  0.0
H  H10  1  0.87049507  0.76572141  0.42743518  1  0.090924  -0.00128  0.961058  -0.002  0.092721  -0.000884  1.034265  -0.002  0.095214  -0.000591  1.031367  -0.001  0.110389  0.090602  -0.001113  1.03679  -0.002
H  H11  1  0.23428108  0.12950453  0.07256347  1  0.09093  -0.00128  0.961063  -0.002  0.09268  -0.000884  1.034292  -0.002  0.095169  -0.000591  1.031401  -0.001  0.110385  0.090566  -0.001113  1.036822  -0.002
H  H12  1  0.12950675  0.23428187  0.57256287  1  0.090899  -0.001276  0.961087  -0.002  0.092643  -0.000884  1.034342  -0.002  0.095135  -0.000591  1.031446  -0.001  0.110374  0.090522  -0.001113  1.03687  -0.002
H  H13  1  0.76572207  0.87049244  0.92743784  1  0.090928  -0.001284  0.961042  -0.002  0.092758  -0.000884  1.034225  -0.002  0.095253  -0.000591  1.03132  -0.001  0.110399  0.090644  -0.001113  1.036754  -0.002
H  H14  1  0.72618472  0.85214554  0.27798850  1  0.109607  -0.000439  0.958775  0.0  0.116525  -0.000432  1.024175  0.0  0.120155  -0.000308  1.021974  0.0  0.101547  0.1139  -0.000519  1.025822  -0.001
H  H15  1  0.14785850  0.27380895  0.22201265  1  0.109624  -0.000438  0.958897  0.0  0.116573  -0.000432  1.024262  0.0  0.120176  -0.000308  1.022089  0.0  0.101537  0.113943  -0.000519  1.025907  -0.001
H  H16  1  0.27381290  0.14785775  0.72201200  1  0.109579  -0.000441  0.958928  0.0  0.116547  -0.000432  1.024279  0.0  0.120159  -0.000307  1.022095  0.0  0.101539  0.113919  -0.000519  1.025927  -0.001
H  H17  1  0.85214892  0.72618698  0.77799007  1  0.10962  -0.000439  0.958775  0.0  0.116564  -0.000432  1.024157  0.0  0.120175  -0.000308  1.021975  0.0  0.101535  0.113936  -0.000519  1.025803  -0.001
H  H18  1  0.77096012  0.43203937  0.16538262  1  0.108676  -0.000493  0.984735  0.0  0.115101  -0.000427  1.051487  0.0  0.11821  -0.000297  1.050869  0.0  0.101834  0.112684  -0.000521  1.052427  -0.001
H  H19  1  0.56796328  0.22903482  0.33461922  1  0.108705  -0.000501  0.984759  -0.001  0.115138  -0.000427  1.051487  0.0  0.118243  -0.000296  1.050875  0.0  0.101843  0.11272  -0.000521  1.052425  -0.001
H  H20  1  0.22903439  0.56796286  0.83461881  1  0.108714  -0.000485  0.98473  0.0  0.115144  -0.000427  1.051452  0.0  0.118251  -0.000296  1.050839  0.0  0.101841  0.112731  -0.000521  1.052395  -0.001
H  H21  1  0.43204308  0.77096110  0.66538123  1  0.10873  -0.000505  0.984703  -0.001  0.115148  -0.000428  1.051453  0.0  0.118257  -0.000296  1.050833  0.0  0.101853  0.112728  -0.000521  1.052392  -0.001
H  H22  1  0.91461980  0.36527071  0.31664245  1  0.090633  -0.001055  0.924528  -0.002  0.100207  -0.0008  0.983108  -0.001  0.102418  -0.000567  0.980441  -0.001  0.121339  0.098548  -0.000956  0.984842  -0.001
H  H23  1  0.63473122  0.08537863  0.18335771  1  0.09067  -0.001051  0.92448  -0.002  0.100202  -0.0008  0.983108  -0.001  0.102412  -0.000568  0.980442  -0.001  0.121333  0.098549  -0.000957  0.984844  -0.001
H  H24  1  0.08537795  0.63472941  0.68335663  1  0.090677  -0.001056  0.924477  -0.002  0.100212  -0.0008  0.983097  -0.001  0.102423  -0.000567  0.980428  -0.001  0.121332  0.098556  -0.000957  0.984833  -0.001
H  H25  1  0.36527298  0.91461835  0.81664201  1  0.090638  -0.001051  0.924534  -0.002  0.100215  -0.0008  0.983098  -0.001  0.102426  -0.000568  0.980431  -0.001  0.121338  0.09856  -0.000957  0.984834  -0.001
C  C26  1  0.21675686  0.72631563  0.49000758  1  0.614728  0.005983  3.916049  0.006  0.563149  2.7e-05  4.231885  0.001  0.5986  0.000534  4.225824  0.001  0.204815  0.538853  -0.000656  4.235087  0.001
C  C27  1  0.27368382  0.78324027  0.00999138  1  0.614762  0.005998  3.916044  0.006  0.563184  2.2e-05  4.231886  0.001  0.598632  0.000534  4.225828  0.001  0.204839  0.538894  -0.000658  4.235092  0.001
C  C28  1  0.78324804  0.27368978  0.50999027  1  0.614572  0.005982  3.916211  0.006  0.563038  2.6e-05  4.231968  0.001  0.598489  0.000535  4.225906  0.001  0.204771  0.538738  -0.000656  4.235169  0.001
C  C29  1  0.72631314  0.21675353  0.99000874  1  0.614668  0.005975  3.915966  0.006  0.563075  2.6e-05  4.231825  0.001  0.598522  0.000534  4.225766  0.001  0.204737  0.538787  -0.000658  4.23503  0.001
C  C30  1  0.25211268  0.87417050  0.43552376  1  0.156294  -0.00921  3.538591  -0.011  0.162873  -0.005217  3.825575  -0.007  0.168711  -0.003454  3.830076  -0.005  0.080672  0.158389  -0.006886  3.822969  -0.008
C  C31  1  0.12582958  0.74788859  0.06447504  1  0.156187  -0.009197  3.538564  -0.011  0.162788  -0.005217  3.825524  -0.007  0.168626  -0.003451  3.830028  -0.005  0.080638  0.158303  -0.006885  3.822905  -0.008
C  C32  1  0.74789223  0.12583491  0.56447562  1  0.156194  -0.009218  3.538781  -0.011  0.162771  -0.005217  3.82575  -0.007  0.168606  -0.003454  3.830256  -0.005  0.080676  0.158305  -0.006886  3.823102  -0.008
C  C33  1  0.87416843  0.25210520  0.93552504  1  0.156369  -0.009226  3.538568  -0.011  0.162943  -0.005222  3.825575  -0.007  0.168781  -0.003454  3.830077  -0.005  0.080726  0.158454  -0.006886  3.822968  -0.008
C  C34  1  0.84479381  0.69633127  0.36756133  1  0.129229  0.012798  3.687289  0.009  0.097315  0.002534  3.952236  0.002  0.106875  0.004264  3.969055  0.003  0.043513  0.09117  0.001147  3.941036  0.0
C  C35  1  0.30367195  0.15520379  0.13243966  1  0.129162  0.012822  3.687319  0.009  0.097388  0.002535  3.952259  0.002  0.106946  0.004266  3.969071  0.003  0.04346  0.091218  0.001146  3.941044  0.0
C  C36  1  0.15520597  0.30367097  0.63244067  1  0.12918  0.012774  3.687393  0.009  0.097373  0.002534  3.952356  0.002  0.106931  0.004262  3.969172  0.003  0.043436  0.091208  0.001147  3.941116  0.0
C  C37  1  0.69633221  0.84479424  0.86756157  1  0.129212  0.012835  3.68714  0.009  0.097302  0.002534  3.952076  0.002  0.10686  0.00427  3.968891  0.003  0.043523  0.091151  0.001146  3.940888  0.0
C  C38  1  0.76584864  0.74334218  0.28493237  1  -0.122939  -0.011696  3.724867  -0.013  -0.14739  -0.00387  3.976571  -0.005  -0.153404  -0.003509  3.996139  -0.004  -0.083299  -0.14381  -0.004255  3.96398  -0.005
C  C39  1  0.25665807  0.23414596  0.21507040  1  -0.123019  -0.011713  3.725055  -0.013  -0.147538  -0.00387  3.976705  -0.005  -0.153529  -0.003511  3.996283  -0.004  -0.083296  -0.143959  -0.004255  3.964122  -0.005
C  C40  1  0.23414807  0.25665794  0.71506905  1  -0.122914  -0.011685  3.725149  -0.013  -0.147434  -0.00387  3.976791  -0.005  -0.153436  -0.003509  3.996366  -0.004  -0.083262  -0.143858  -0.004254  3.96421  -0.005
C  C41  1  0.74334724  0.76584997  0.78493163  1  -0.122977  -0.011697  3.724739  -0.013  -0.147463  -0.003872  3.976468  -0.005  -0.153458  -0.003512  3.996042  -0.004  -0.08332  -0.143878  -0.004256  3.963875  -0.005
C  C42  1  0.73557421  0.64951201  0.21035378  1  0.003435  0.013708  3.715129  0.009  0.022868  0.004255  3.940457  0.002  0.022173  0.004933  3.960256  0.003  0.005224  0.022873  0.003713  3.928042  0.002
C  C43  1  0.35049000  0.26442117  0.28964581  1  0.003484  0.013711  3.715079  0.009  0.022991  0.004252  3.940335  0.002  0.022295  0.004936  3.960125  0.003  0.005235  0.023007  0.003713  3.927906  0.002
C  C44  1  0.26441933  0.35048810  0.78964546  1  0.003452  0.013736  3.715132  0.009  0.022951  0.004257  3.940412  0.002  0.022259  0.004936  3.960201  0.003  0.005247  0.022952  0.003713  3.927998  0.002
C  C45  1  0.64951746  0.73557371  0.71035464  1  0.003401  0.013694  3.715038  0.009  0.022793  0.004261  3.940413  0.002  0.0221  0.004938  3.960205  0.003  0.00523  0.022813  0.003712  3.927987  0.002
C  C46  1  0.78932792  0.51063729  0.22087438  1  -0.133524  -0.011102  3.695404  -0.012  -0.15436  -0.003677  3.943031  -0.005  -0.1607  -0.003409  3.96305  -0.004  -0.083855  -0.150623  -0.003899  3.930397  -0.005
C  C47  1  0.48936503  0.21066541  0.27912678  1  -0.133626  -0.011097  3.695618  -0.012  -0.154454  -0.003675  3.943195  -0.005  -0.160794  -0.003411  3.963219  -0.004  -0.08387  -0.150717  -0.0039  3.930562  -0.005
C  C48  1  0.21066769  0.48936388  0.77912705  1  -0.13368  -0.011145  3.695664  -0.012  -0.154485  -0.003676  3.943212  -0.005  -0.160826  -0.003411  3.963232  -0.004  -0.083897  -0.150756  -0.003899  3.930593  -0.005
C  C49  1  0.51064137  0.78932947  0.72087448  1  -0.133605  -0.011088  3.695403  -0.012  -0.154401  -0.003677  3.942986  -0.005  -0.160742  -0.00341  3.963005  -0.004  -0.083887  -0.150658  -0.0039  3.930348  -0.005
C  C50  1  0.86909548  0.47142194  0.30509641  1  0.147069  0.013052  3.679233  0.009  0.114228  0.002558  3.942403  0.002  0.124661  0.004265  3.957546  0.003  0.047962  0.107523  0.001196  3.932027  0.001
C  C51  1  0.52858055  0.13090030  0.19490464  1  0.147077  0.013053  3.679212  0.009  0.114288  0.002557  3.942448  0.002  0.124719  0.004265  3.957587  0.003  0.048021  0.107556  0.001194  3.932071  0.001
C  C52  1  0.13090329  0.52857924  0.69490414  1  0.147105  0.013088  3.679283  0.009  0.114316  0.002555  3.942486  0.002  0.12475  0.004262  3.95762  0.003  0.048032  0.107582  0.001195  3.932102  0.001
C  C53  1  0.47142475  0.86909563  0.80509586  1  0.147046  0.013068  3.679214  0.009  0.114241  0.002555  3.942335  0.002  0.124671  0.004266  3.957478  0.003  0.04802  0.107536  0.001194  3.931965  0.001
C  C54  1  0.64307329  0.70373256  0.12542271  1  0.608724  -0.000344  3.845316  -0.001  0.569587  4.8e-05  4.122911  0.0  0.599662  5.4e-05  4.120319  0.0  0.239377  0.549164  5.7e-05  4.124204  0.0
C  C55  1  0.29626802  0.35692327  0.37457691  1  0.608763  -0.00034  3.84523  -0.001  0.569563  4.6e-05  4.122891  0.0  0.599641  5.3e-05  4.120297  0.0  0.239367  0.549125  5.8e-05  4.124184  0.0
C  C56  1  0.35692673  0.29626334  0.87457490  1  0.608755  -0.00035  3.845235  -0.001  0.569529  4.6e-05  4.122952  0.0  0.599605  5.4e-05  4.12036  0.0  0.23935  0.549105  5.8e-05  4.124244  0.0
C  C57  1  0.70373934  0.64307371  0.62542269  1  0.608739  -0.000332  3.845299  -0.001  0.569619  4.9e-05  4.122901  0.0  0.599697  5.4e-05  4.120303  0.0  0.239382  0.54918  5.8e-05  4.124198  0.0
N  N58  1  0.89477529  0.56209550  0.37746416  1  -0.288091  -0.08013  3.341814  -0.103  -0.239506  -0.049817  3.635242  -0.068  -0.269005  -0.039824  3.654875  -0.058  -0.35037  -0.221042  -0.055582  3.622993  -0.072
N  N59  1  0.43791018  0.10522040  0.12253601  1  -0.288004  -0.08014  3.34166  -0.103  -0.239591  -0.049815  3.63522  -0.068  -0.269074  -0.039822  3.654822  -0.058  -0.350391  -0.221047  -0.055582  3.622918  -0.072
N  N60  1  0.10522325  0.43791094  0.62253466  1  -0.288025  -0.080132  3.341733  -0.103  -0.239594  -0.049815  3.635293  -0.068  -0.269083  -0.039822  3.654907  -0.058  -0.350395  -0.221045  -0.055581  3.62296  -0.072
N  N61  1  0.56209512  0.89477553  0.87746525  1  -0.287975  -0.080155  3.341715  -0.103  -0.239469  -0.049814  3.635221  -0.068  -0.268956  -0.039823  3.654831  -0.058  -0.35038  -0.220992  -0.05558  3.622986  -0.072
N  N62  1  0.61182270  0.61466716  0.05402519  1  -0.673576  0.001301  3.088757  0.001  -0.632775  0.000615  3.312591  0.0  -0.656223  0.000639  3.307332  0.0  -0.565173  -0.616604  0.000529  3.316399  0.0
N  N63  1  0.38533291  0.38817482  0.44597441  1  -0.673529  0.001313  3.088836  0.001  -0.63272  0.000616  3.312698  0.0  -0.656167  0.000642  3.307439  0.0  -0.565201  -0.616569  0.000529  3.316512  0.0
N  N64  1  0.38817623  0.38532980  0.94597319  1  -0.673588  0.001331  3.088698  0.001  -0.632748  0.000616  3.312562  0.0  -0.656197  0.00064  3.307304  0.0  -0.565165  -0.616583  0.000529  3.316372  0.0
N  N65  1  0.61467011  0.61182531  0.55402524  1  -0.673572  0.001311  3.088719  0.001  -0.632761  0.000615  3.31253  0.0  -0.656204  0.000639  3.307265  0.0  -0.565184  -0.616594  0.000529  3.316339  0.0
Cl  Cl66  1  0.38561210  0.84367097  0.33676046  1  -0.058868  -0.002713  1.295291  -0.003  -0.05657  -0.001929  1.526105  -0.002  -0.059485  -0.001101  1.520042  -0.002  -0.007369  -0.053909  -0.002856  1.530279  -0.004
Cl  Cl67  1  0.15632818  0.61438639  0.16323768  1  -0.05886  -0.002715  1.295269  -0.003  -0.056572  -0.001929  1.52609  -0.002  -0.059475  -0.001102  1.520001  -0.002  -0.007383  -0.05391  -0.002857  1.530253  -0.004
Cl  Cl68  1  0.61438959  0.15633547  0.66323593  1  -0.058831  -0.002715  1.295365  -0.003  -0.056544  -0.001929  1.52619  -0.002  -0.059458  -0.001101  1.520127  -0.002  -0.007377  -0.053882  -0.002857  1.530344  -0.004
Cl  Cl69  1  0.84366875  0.38560846  0.83676317  1  -0.058906  -0.002713  1.29521  -0.003  -0.056617  -0.001929  1.526047  -0.002  -0.05953  -0.001102  1.519986  -0.002  -0.007407  -0.053954  -0.002857  1.530214  -0.004
Cl  Cl70  1  0.31741367  0.98268034  0.53002639  1  -0.097239  -0.001413  1.328805  -0.002  -0.090534  -0.000777  1.571003  -0.001  -0.093937  -0.000333  1.563606  0.0  -0.010321  -0.087402  -0.001398  1.576423  -0.002
Cl  Cl71  1  0.01731847  0.68258856  0.96997219  1  -0.097201  -0.001418  1.328781  -0.002  -0.090496  -0.000777  1.570974  -0.001  -0.0939  -0.000334  1.563577  0.0  -0.010293  -0.087362  -0.001399  1.576392  -0.002
Cl  Cl72  1  0.68259343  0.01732296  0.46997299  1  -0.097244  -0.001409  1.328874  -0.002  -0.090552  -0.000776  1.571081  -0.001  -0.093953  -0.000333  1.563686  0.0  -0.010342  -0.087423  -0.001398  1.576493  -0.002
Cl  Cl73  1  0.98267745  0.31740524  0.03002874  1  -0.097255  -0.001409  1.328842  -0.002  -0.090557  -0.000776  1.571048  -0.001  -0.093959  -0.000334  1.56365  0.0  -0.010328  -0.087424  -0.001399  1.576467  -0.002
Cl  Cl74  1  0.10524879  0.96337862  0.38056740  1  -0.071476  0.000403  1.36603  0.001  -0.067162  0.000232  1.605256  0.0  -0.06903  0.000251  1.59781  0.0  -0.01226  -0.066076  0.000145  1.610557  0.0
Cl  Cl75  1  0.03661932  0.89475153  0.11943232  1  -0.071445  0.000403  1.366004  0.001  -0.067133  0.000234  1.605221  0.0  -0.069001  0.000251  1.597774  0.0  -0.012235  -0.066043  0.000143  1.610519  0.0
Cl  Cl76  1  0.89475302  0.03662574  0.61943598  1  -0.071434  0.000401  1.366001  0.0  -0.06712  0.000233  1.605225  0.0  -0.068985  0.00025  1.59778  0.0  -0.012269  -0.066037  0.000144  1.610519  0.0
Cl  Cl77  1  0.96337540  0.10524542  0.88056622  1  -0.07146  0.000408  1.366058  0.001  -0.067148  0.000233  1.6053  0.0  -0.069018  0.000251  1.597855  0.0  -0.012248  -0.066058  0.000143  1.610601  0.0
O  O78  1  0.09012082  0.69289872  0.48504285  1  -0.564737  -0.066264  2.153722  -0.092  -0.543295  -0.042104  2.440464  -0.064  -0.582406  -0.030396  2.434753  -0.05  -0.305532  -0.515691  -0.050891  2.443637  -0.073
O  O79  1  0.30710066  0.90987891  0.01495526  1  -0.564749  -0.066277  2.153704  -0.092  -0.543316  -0.042101  2.440458  -0.064  -0.582419  -0.030396  2.434732  -0.05  -0.305535  -0.515712  -0.050891  2.443661  -0.073
O  O80  1  0.90988647  0.30709929  0.51494980  1  -0.564624  -0.066261  2.153761  -0.092  -0.54316  -0.042101  2.440427  -0.064  -0.58227  -0.030394  2.434714  -0.05  -0.305518  -0.515566  -0.050891  2.443622  -0.073
O  O81  1  0.69290057  0.09011385  0.98504781  1  -0.56468  -0.066268  2.153611  -0.092  -0.543203  -0.042103  2.440305  -0.064  -0.582309  -0.030397  2.434581  -0.05  -0.30549  -0.515596  -0.050896  2.443496  -0.073
O  O82  1  0.31713747  0.65987465  0.53138423  1  -0.600312  -0.000751  2.044489  -0.002  -0.556757  -0.000455  2.273062  -0.001  -0.581424  0.000291  2.266363  0.0  -0.308322  -0.539159  -0.001154  2.277034  -0.002
O  O83  1  0.34012519  0.68286057  0.96861441  1  -0.600317  -0.000759  2.044483  -0.002  -0.556779  -0.000455  2.27309  -0.001  -0.581445  0.000291  2.266394  0.0  -0.308332  -0.53917  -0.001154  2.277059  -0.002
O  O84  1  0.68286814  0.34013920  0.46861789  1  -0.600226  -0.000742  2.044675  -0.002  -0.556689  -0.000456  2.273206  -0.001  -0.581353  0.000291  2.266508  0.0  -0.308241  -0.53909  -0.001155  2.277177  -0.002
O  O85  1  0.65986764  0.31713110  0.03138441  1  -0.600352  -0.00074  2.04462  -0.002  -0.556751  -0.000454  2.273136  -0.001  -0.581415  0.000292  2.266435  0.0  -0.308269  -0.539147  -0.001155  2.277106  -0.002
O  O86  1  0.59658708  0.82901622  0.12563554  1  -0.594612  -0.001068  1.976217  -0.003  -0.562446  -0.000962  2.225732  -0.003  -0.587066  5e-05  2.216208  -0.002  -0.309239  -0.544811  -0.002206  2.231839  -0.004
O  O87  1  0.17098478  0.40340798  0.37436492  1  -0.594578  -0.001065  1.976162  -0.003  -0.562413  -0.00096  2.225742  -0.003  -0.587026  5e-05  2.216198  -0.002  -0.309203  -0.544782  -0.002206  2.23184  -0.004
O  O88  1  0.40341075  0.17098179  0.87436208  1  -0.594601  -0.001072  1.976183  -0.003  -0.562438  -0.000961  2.225785  -0.003  -0.587047  4.9e-05  2.216243  -0.002  -0.309239  -0.544804  -0.002206  2.231888  -0.004
O  O89  1  0.82902061  0.59658584  0.62563564  1  -0.594633  -0.001078  1.976125  -0.003  -0.562508  -0.000963  2.225709  -0.003  -0.587142  4.9e-05  2.21621  -0.002  -0.3093  -0.544877  -0.002207  2.231812  -0.004
