# generated using pymatgen
data_CdH14C15(SN2)2
_symmetry_space_group_name_H-M   'P 1'
_cell_length_a   9.63431326
_cell_length_b   11.75224423
_cell_length_c   17.75285732
_cell_angle_alpha   105.20143153
_cell_angle_beta   90.02379826
_cell_angle_gamma   114.17674342
_symmetry_Int_Tables_number   1
_chemical_formula_structural   CdH14C15(SN2)2
_chemical_formula_sum   'Cd4 H56 C60 S8 N16'
_cell_volume   1756.27282534
_cell_formula_units_Z   4
loop_
 _symmetry_equiv_pos_site_id
 _symmetry_equiv_pos_as_xyz
  1  'x, y, z'
loop_
 _atom_site_type_symbol
 _atom_site_label
 _atom_site_symmetry_multiplicity
 _atom_site_fract_x
 _atom_site_fract_y
 _atom_site_fract_z
 _atom_site_occupancy
 _atom_site_hle17_bader_spin_density
 _atom_site_hle17_ddec_charge
 _atom_site_hle17_ddec_spin_density
 _atom_site_hle17_ddec_sum_bond_order
 _atom_site_hle17_magmom
 _atom_site_hse06_10hf_bader_spin_density
 _atom_site_hse06_10hf_ddec_charge
 _atom_site_hse06_10hf_ddec_spin_density
 _atom_site_hse06_10hf_ddec_sum_bond_order
 _atom_site_hse06_10hf_magmom
 _atom_site_hse06_bader_spin_density
 _atom_site_hse06_ddec_charge
 _atom_site_hse06_ddec_spin_density
 _atom_site_hse06_ddec_sum_bond_order
 _atom_site_hse06_magmom
 _atom_site_pbe_bader_spin_density
 _atom_site_pbe_cm5_charge
 _atom_site_pbe_ddec_charge
 _atom_site_pbe_ddec_spin_density
 _atom_site_pbe_ddec_sum_bond_order
 _atom_site_pbe_magmom
Cd  Cd0  1  0.01428341  0.24796810  0.47996242  1  0  0.942475  0  1.988806  0  0  0.757329  0  2.456844  0  0  0.801909  0  2.42139  0  0  0.719787  0.72486  0  2.48174  0
Cd  Cd1  1  0.23359965  0.24796872  0.97998389  1  0  0.942496  0  1.988011  0  0  0.757379  0  2.455784  0  0  0.801943  0  2.420397  0  0  0.719892  0.724927  0  2.480615  0
Cd  Cd2  1  0.98571794  0.75203132  0.52003568  1  0  0.94252  0  1.98882  0  0  0.757391  0  2.456838  0  0  0.801966  0  2.421388  0  0  0.719803  0.72492  0  2.481726  0
Cd  Cd3  1  0.76639700  0.75203166  0.02002001  1  0  0.942532  0  1.987949  0  0  0.757417  0  2.455749  0  0  0.80198  0  2.420363  0  0  0.719912  0.724962  0  2.480567  0
H  H4  1  0.66570738  0.18925767  0.47797474  1  0  0.080781  0  0.945877  0  0  0.090851  0  1.00706  0  0  0.093173  0  1.004851  0  0  0.113123  0.089013  0  1.009008  0
H  H5  1  0.52322684  0.18908120  0.97782395  1  0  0.081077  0  0.944746  0  0  0.090417  0  1.006784  0  0  0.092824  0  1.004468  0  0  0.113284  0.088539  0  1.008775  0
H  H6  1  0.33429598  0.81074369  0.52202201  1  0  0.080772  0  0.945828  0  0  0.090839  0  1.00703  0  0  0.093163  0  1.004819  0  0  0.113116  0.089005  0  1.00896  0
H  H7  1  0.47677243  0.81091821  0.02217978  1  0  0.081161  0  0.944786  0  0  0.090467  0  1.006853  0  0  0.092873  0  1.004536  0  0  0.113282  0.088589  0  1.008837  0
H  H8  1  0.40393671  0.01145119  0.42563621  1  0  0.106901  0  0.964192  0  0  0.115484  0  1.028133  0  0  0.11791  0  1.02865  0  0  0.102761  0.113633  0  1.028338  0
H  H9  1  0.60725303  0.01128825  0.92549285  1  0  0.106637  0  0.964475  0  0  0.115344  0  1.028292  0  0  0.117693  0  1.028893  0  0  0.102773  0.113568  0  1.028384  0
H  H10  1  0.59606561  0.98855017  0.57436166  1  0  0.106887  0  0.964153  0  0  0.11546  0  1.028107  0  0  0.117884  0  1.028622  0  0  0.102739  0.11361  0  1.028315  0
H  H11  1  0.39274417  0.98871117  0.07451031  1  0  0.106604  0  0.964471  0  0  0.115311  0  1.028297  0  0  0.117649  0  1.028925  0  0  0.102716  0.113533  0  1.028392  0
H  H12  1  0.61894996  0.80144363  0.26955657  1  0  0.103273  0  0.966549  0  0  0.110588  0  1.03357  0  0  0.113831  0  1.032839  0  0  0.097881  0.108091  0  1.034284  0
H  H13  1  0.18211001  0.80123166  0.76946961  1  0  0.103093  0  0.966846  0  0  0.110774  0  1.033465  0  0  0.11396  0  1.032806  0  0  0.098051  0.108334  0  1.034112  0
H  H14  1  0.38104834  0.19855383  0.73044175  1  0  0.103279  0  0.966522  0  0  0.110598  0  1.033545  0  0  0.113841  0  1.032814  0  0  0.097873  0.108101  0  1.03426  0
H  H15  1  0.81788914  0.19877165  0.23053029  1  0  0.103089  0  0.966823  0  0  0.110773  0  1.033445  0  0  0.113959  0  1.032786  0  0  0.098058  0.108329  0  1.034094  0
H  H16  1  0.87160063  0.98826951  0.32872259  1  0  0.064101  0  0.971452  0  0  0.07133  0  1.040258  0  0  0.073225  0  1.038772  0  0  0.102953  0.070212  0  1.040945  0
H  H17  1  0.11612713  0.98800654  0.82868728  1  0  0.064802  0  0.970912  0  0  0.07173  0  1.039894  0  0  0.073715  0  1.038332  0  0  0.103096  0.070562  0  1.04063  0
H  H18  1  0.12840133  0.01172698  0.67127557  1  0  0.064069  0  0.971538  0  0  0.071347  0  1.040291  0  0  0.073245  0  1.038802  0  0  0.102962  0.07023  0  1.04098  0
H  H19  1  0.88387409  0.01199677  0.17131544  1  0  0.064736  0  0.970903  0  0  0.071676  0  1.039882  0  0  0.073658  0  1.038322  0  0  0.103068  0.070508  0  1.040621  0
H  H20  1  0.20986615  0.51880357  0.98817997  1  0  0.066993  0  0.971798  0  0  0.075334  0  1.038077  0  0  0.07674  0  1.037581  0  0  0.105305  0.074217  0  1.038652  0
H  H21  1  0.30921435  0.51865816  0.48819340  1  0  0.067174  0  0.971938  0  0  0.075415  0  1.038284  0  0  0.076805  0  1.037799  0  0  0.105389  0.074297  0  1.038861  0
H  H22  1  0.79013063  0.48119292  0.01182269  1  0  0.066959  0  0.971832  0  0  0.075354  0  1.038052  0  0  0.076759  0  1.037562  0  0  0.10531  0.074235  0  1.038629  0
H  H23  1  0.69078541  0.48134222  0.51180487  1  0  0.06716  0  0.971885  0  0  0.075372  0  1.038269  0  0  0.076764  0  1.037783  0  0  0.105358  0.074255  0  1.038848  0
H  H24  1  0.16568498  0.69493459  0.08332519  1  0  0.104816  0  0.967315  0  0  0.114233  0  1.030703  0  0  0.117371  0  1.030099  0  0  0.097745  0.111395  0  1.032342  0
H  H25  1  0.52972051  0.69450138  0.58333941  1  0  0.104821  0  0.967558  0  0  0.114309  0  1.030883  0  0  0.117461  0  1.030272  0  0  0.097766  0.111469  0  1.032516  0
H  H26  1  0.83430710  0.30506287  0.91667483  1  0  0.104797  0  0.967373  0  0  0.114224  0  1.030739  0  0  0.117362  0  1.030129  0  0  0.097777  0.111387  0  1.032377  0
H  H27  1  0.47028084  0.30549804  0.41665644  1  0  0.104828  0  0.967499  0  0  0.114319  0  1.030816  0  0  0.11747  0  1.030207  0  0  0.097775  0.111481  0  1.032455  0
H  H28  1  0.02927212  0.44858678  0.23769398  1  0  0.098553  0  0.993476  0  0  0.105195  0  1.062474  0  0  0.108234  0  1.061922  0  0  0.092044  0.103106  0  1.06288  0
H  H29  1  0.41886523  0.44841918  0.73788845  1  0  0.099078  0  0.99253  0  0  0.10553  0  1.06186  0  0  0.108592  0  1.061262  0  0  0.092121  0.103364  0  1.062357  0
H  H30  1  0.97072190  0.55141458  0.76230896  1  0  0.098607  0  0.993455  0  0  0.105255  0  1.062434  0  0  0.108292  0  1.061887  0  0  0.092078  0.103167  0  1.062846  0
H  H31  1  0.58114008  0.55158608  0.26211010  1  0  0.099099  0  0.992543  0  0  0.105569  0  1.061834  0  0  0.10862  0  1.061245  0  0  0.092138  0.10339  0  1.062341  0
H  H32  1  0.08212790  0.28352149  0.13630575  1  0  0.077551  0  0.95807  0  0  0.08509  0  1.024497  0  0  0.087155  0  1.022754  0  0  0.110709  0.083448  0  1.025945  0
H  H33  1  0.20067841  0.28372162  0.63654318  1  0  0.078429  0  0.957701  0  0  0.0852  0  1.02492  0  0  0.087332  0  1.023151  0  0  0.110806  0.083523  0  1.026398  0
H  H34  1  0.91786771  0.71647889  0.86369872  1  0  0.07757  0  0.958095  0  0  0.085115  0  1.024527  0  0  0.087187  0  1.022767  0  0  0.110724  0.083466  0  1.02599  0
H  H35  1  0.79932696  0.71628168  0.36345728  1  0  0.078425  0  0.957644  0  0  0.085188  0  1.024878  0  0  0.087322  0  1.023108  0  0  0.110793  0.08351  0  1.026354  0
H  H36  1  0.35037665  0.69176049  0.27843030  1  0  0.07804  0  0.928647  0  0  0.095868  0  0.98575  0  0  0.097139  0  0.98583  0  0  0.091624  0.095019  0  0.985623  0
H  H37  1  0.34119807  0.69163661  0.77817014  1  0  0.078427  0  0.92963  0  0  0.096398  0  0.986243  0  0  0.097677  0  0.986313  0  0  0.091904  0.095539  0  0.98613  0
H  H38  1  0.64962574  0.30823892  0.72156892  1  0  0.077998  0  0.928686  0  0  0.095833  0  0.985782  0  0  0.097101  0  0.985865  0  0  0.091636  0.094987  0  0.985656  0
H  H39  1  0.65880217  0.30836475  0.22182717  1  0  0.078483  0  0.929604  0  0  0.096466  0  0.986194  0  0  0.09775  0  0.986262  0  0  0.091945  0.095613  0  0.986082  0
H  H40  1  0.27403864  0.75050074  0.36280865  1  0  0.089594  0  0.941425  0  0  0.106536  0  1.003316  0  0  0.106982  0  1.004086  0  0  0.094712  0.106273  0  1.002826  0
H  H41  1  0.47601480  0.75015681  0.86265737  1  0  0.090456  0  0.941564  0  0  0.106967  0  1.003537  0  0  0.10739  0  1.004319  0  0  0.094995  0.106731  0  1.00303  0
H  H42  1  0.72596430  0.24949770  0.63719097  1  0  0.089568  0  0.941414  0  0  0.106502  0  1.003315  0  0  0.106947  0  1.004082  0  0  0.094714  0.106238  0  1.002831  0
H  H43  1  0.52398600  0.24984358  0.13734033  1  0  0.090423  0  0.94155  0  0  0.106963  0  1.00351  0  0  0.107387  0  1.004293  0  0  0.094988  0.106733  0  1.003007  0
H  H44  1  0.29625536  0.84145544  0.21433208  1  0  0.060787  0  0.944731  0  0  0.07744  0  1.01004  0  0  0.078192  0  1.011233  0  0  0.083718  0.076888  0  1.009206  0
H  H45  1  0.54525129  0.84125955  0.71426925  1  0  0.061605  0  0.943449  0  0  0.078144  0  1.00927  0  0  0.078869  0  1.01049  0  0  0.083823  0.077613  0  1.008407  0
H  H46  1  0.70374716  0.15854008  0.78566590  1  0  0.06077  0  0.94481  0  0  0.077429  0  1.01011  0  0  0.078181  0  1.011304  0  0  0.08374  0.076879  0  1.009271  0
H  H47  1  0.45475256  0.15874279  0.28572879  1  0  0.061603  0  0.943434  0  0  0.078107  0  1.009253  0  0  0.078833  0  1.010468  0  0  0.083822  0.077576  0  1.00839  0
H  H48  1  0.21862619  0.89522393  0.29880056  1  0  0.066886  0  0.968373  0  0  0.082478  0  1.035968  0  0  0.08265  0  1.037488  0  0  0.083208  0.082137  0  1.035269  0
H  H49  1  0.67638535  0.89500307  0.79887628  1  0  0.067054  0  0.96799  0  0  0.082701  0  1.035868  0  0  0.082886  0  1.037368  0  0  0.083212  0.082345  0  1.035197  0
H  H50  1  0.78138133  0.10477743  0.70119788  1  0  0.066857  0  0.968331  0  0  0.082451  0  1.035927  0  0  0.082624  0  1.037447  0  0  0.083211  0.082111  0  1.035234  0
H  H51  1  0.32361594  0.10499829  0.20112272  1  0  0.067044  0  0.967994  0  0  0.082676  0  1.03586  0  0  0.082862  0  1.037359  0  0  0.083211  0.082323  0  1.03519  0
H  H52  1  0.02402162  0.66051933  0.27972789  1  0  0.086983  0  0.924623  0  0  0.104416  0  0.983937  0  0  0.105176  0  0.984494  0  0  0.094945  0.103781  0  0.98382  0
H  H53  1  0.63642693  0.66036885  0.77994081  1  0  0.086083  0  0.925492  0  0  0.104006  0  0.984033  0  0  0.104767  0  0.984543  0  0  0.094612  0.10339  0  0.98393  0
H  H54  1  0.97598113  0.33948495  0.72027499  1  0  0.087007  0  0.924627  0  0  0.104431  0  0.98395  0  0  0.105189  0  0.984508  0  0  0.094971  0.103793  0  0.983843  0
H  H55  1  0.36357795  0.33963349  0.22005611  1  0  0.086075  0  0.925426  0  0  0.104013  0  0.983965  0  0  0.104759  0  0.984492  0  0  0.094607  0.103397  0  0.983862  0
H  H56  1  0.00505435  0.72957391  0.20515956  1  0  0.081754  0  0.962052  0  0  0.098768  0  1.026642  0  0  0.09957  0  1.026576  0  0  0.082502  0.098467  0  1.026051  0
H  H57  1  0.72448134  0.72928645  0.70535452  1  0  0.081947  0  0.961887  0  0  0.098972  0  1.026233  0  0  0.099764  0  1.026149  0  0  0.082679  0.098671  0  1.025697  0
H  H58  1  0.99494681  0.27043135  0.79484462  1  0  0.081786  0  0.961978  0  0  0.09878  0  1.026589  0  0  0.099581  0  1.026521  0  0  0.082506  0.098482  0  1.026001  0
H  H59  1  0.27552348  0.27071784  0.29464330  1  0  0.081923  0  0.961858  0  0  0.0989  0  1.026273  0  0  0.099693  0  1.026184  0  0  0.082671  0.0986  0  1.025737  0
C  C60  1  0.08084063  0.51503882  0.41347733  1  0  0.30639  0  3.995901  0  0  0.28594  0  4.302146  0  0  0.307714  0  4.314773  0  0  0.147914  0.271083  0  4.293457  0
C  C61  1  0.43425159  0.51473646  0.91333114  1  0  0.306351  0  3.996918  0  0  0.285977  0  4.302993  0  0  0.307747  0  4.315626  0  0  0.147683  0.271113  0  4.294322  0
C  C62  1  0.91915767  0.48495864  0.58652212  1  0  0.306459  0  3.995884  0  0  0.286016  0  4.302109  0  0  0.30779  0  4.314739  0  0  0.147976  0.27116  0  4.29343  0
C  C63  1  0.56574506  0.48526392  0.08667164  1  0  0.306296  0  3.996851  0  0  0.285913  0  4.302943  0  0  0.307688  0  4.315571  0  0  0.147616  0.271048  0  4.294282  0
C  C64  1  0.09519849  0.97911423  0.41878392  1  0  0.298844  0  4.005176  0  0  0.278778  0  4.309414  0  0  0.300347  0  4.322581  0  0  0.1477  0.263974  0  4.299846  0
C  C65  1  0.88378376  0.97903926  0.91880218  1  0  0.298541  0  4.007089  0  0  0.278382  0  4.311475  0  0  0.299957  0  4.324652  0  0  0.147285  0.263556  0  4.30194  0
C  C66  1  0.90480361  0.02087837  0.58121356  1  0  0.298784  0  4.005243  0  0  0.278708  0  4.3095  0  0  0.300275  0  4.32267  0  0  0.147632  0.263901  0  4.299941  0
C  C67  1  0.11621759  0.02096015  0.08120155  1  0  0.298538  0  4.007176  0  0  0.27838  0  4.311554  0  0  0.29996  0  4.324721  0  0  0.14721  0.263558  0  4.302024  0
C  C68  1  0.64924624  0.10110473  0.43169386  1  0  0.126145  0  3.728618  0  0  0.095393  0  3.979905  0  0  0.102922  0  3.998184  0  0  0.041572  0.090657  0  3.967269  0
C  C69  1  0.45148146  0.10090007  0.93157759  1  0  0.124937  0  3.727703  0  0  0.094876  0  3.979181  0  0  0.102351  0  3.997384  0  0  0.040765  0.090167  0  3.966597  0
C  C70  1  0.35075560  0.89889565  0.56830328  1  0  0.126232  0  3.728502  0  0  0.095472  0  3.9798  0  0  0.102996  0  3.998083  0  0  0.041599  0.090741  0  3.967137  0
C  C71  1  0.54851677  0.89909935  0.06842557  1  0  0.124816  0  3.727889  0  0  0.094781  0  3.979354  0  0  0.102259  0  3.997552  0  0  0.040772  0.090077  0  3.966765  0
C  C72  1  0.50444047  0.00157001  0.40241900  1  0  -0.176381  0  3.713503  0  0  -0.192961  0  3.960312  0  0  -0.201161  0  3.982115  0  0  -0.08645  -0.187295  0  3.945378  0
C  C73  1  0.49680774  0.00137191  0.90228525  1  0  -0.175802  0  3.711961  0  0  -0.191987  0  3.959041  0  0  -0.200115  0  3.980857  0  0  -0.085985  -0.186369  0  3.944109  0
C  C74  1  0.49556137  0.99843038  0.59757871  1  0  -0.17632  0  3.713387  0  0  -0.192903  0  3.960191  0  0  -0.2011  0  3.981995  0  0  -0.086409  -0.187242  0  3.945262  0
C  C75  1  0.50319001  0.99862653  0.09771719  1  0  -0.175755  0  3.71188  0  0  -0.191937  0  3.958954  0  0  -0.200066  0  3.980761  0  0  -0.085961  -0.186324  0  3.944026  0
C  C76  1  0.48933375  0.88862872  0.34437171  1  0  0.166843  0  3.712834  0  0  0.185143  0  3.943404  0  0  0.190778  0  3.964977  0  0  0.016933  0.181321  0  3.928587  0
C  C77  1  0.39897474  0.88842630  0.84423917  1  0  0.168436  0  3.711122  0  0  0.18496  0  3.94379  0  0  0.190609  0  3.9653  0  0  0.016809  0.181126  0  3.929013  0
C  C78  1  0.51066808  0.11137166  0.65562712  1  0  0.166745  0  3.712762  0  0  0.185111  0  3.943272  0  0  0.190744  0  3.964842  0  0  0.016941  0.181289  0  3.928453  0
C  C79  1  0.60102606  0.11157409  0.15576135  1  0  0.168419  0  3.710919  0  0  0.184942  0  3.943614  0  0  0.190592  0  3.965123  0  0  0.016833  0.181115  0  3.928841  0
C  C80  1  0.62375775  0.88515980  0.31629645  1  0  -0.175244  0  3.708473  0  0  -0.189526  0  3.94918  0  0  -0.198196  0  3.971176  0  0  -0.087216  -0.183798  0  3.934702  0
C  C81  1  0.26099785  0.88493960  0.81621526  1  0  -0.176067  0  3.708397  0  0  -0.190225  0  3.949588  0  0  -0.198858  0  3.971673  0  0  -0.088037  -0.184533  0  3.935057  0
C  C82  1  0.37624208  0.11483864  0.68370204  1  0  -0.175248  0  3.70844  0  0  -0.189564  0  3.949164  0  0  -0.198234  0  3.97116  0  0  -0.087247  -0.183831  0  3.934688  0
C  C83  1  0.73900338  0.11506371  0.18378633  1  0  -0.175958  0  3.708271  0  0  -0.190124  0  3.94947  0  0  -0.198756  0  3.971553  0  0  -0.088004  -0.184429  0  3.934937  0
C  C84  1  0.76462514  0.98884089  0.34855421  1  0  0.130079  0  3.741657  0  0  0.099818  0  3.99084  0  0  0.106834  0  4.011089  0  0  0.039359  0.095015  0  3.977014  0
C  C85  1  0.22372121  0.98858633  0.84850562  1  0  0.129681  0  3.741184  0  0  0.099798  0  3.990302  0  0  0.106737  0  4.010567  0  0  0.039719  0.095025  0  3.97651  0
C  C86  1  0.23537420  0.01115657  0.65144355  1  0  0.13015  0  3.741544  0  0  0.099852  0  3.990733  0  0  0.106867  0  4.010978  0  0  0.039383  0.09504  0  3.976919  0
C  C87  1  0.77627849  0.01141600  0.15149637  1  0  0.129692  0  3.741183  0  0  0.099796  0  3.990302  0  0  0.106738  0  4.010567  0  0  0.039697  0.095022  0  3.97651  0
C  C88  1  0.17078051  0.50772706  0.04452929  1  0  0.129256  0  3.738696  0  0  0.098907  0  3.988314  0  0  0.106093  0  4.008568  0  0  0.039995  0.094307  0  3.974189  0
C  C89  1  0.33706045  0.50756189  0.54457740  1  0  0.128391  0  3.739218  0  0  0.098235  0  3.98914  0  0  0.105451  0  4.009365  0  0  0.039774  0.093622  0  3.975036  0
C  C90  1  0.82921267  0.49226846  0.95547208  1  0  0.12914  0  3.738677  0  0  0.098788  0  3.988318  0  0  0.10597  0  4.008573  0  0  0.039944  0.094185  0  3.974195  0
C  C91  1  0.66294138  0.49243850  0.45542030  1  0  0.128464  0  3.739165  0  0  0.098331  0  3.989087  0  0  0.105547  0  4.009313  0  0  0.039823  0.093716  0  3.974988  0
C  C92  1  0.14551347  0.60517809  0.09780574  1  0  -0.172169  0  3.697468  0  0  -0.187068  0  3.940232  0  0  -0.195765  0  3.96185  0  0  -0.087871  -0.181492  0  3.926918  0
C  C93  1  0.45990833  0.60485622  0.59784949  1  0  -0.171611  0  3.698614  0  0  -0.186652  0  3.940864  0  0  -0.19537  0  3.962503  0  0  -0.087834  -0.181073  0  3.927543  0
C  C94  1  0.85447971  0.39481743  0.90219506  1  0  -0.172079  0  3.697529  0  0  -0.186994  0  3.940315  0  0  -0.195688  0  3.961931  0  0  -0.087919  -0.181422  0  3.927001  0
C  C95  1  0.54009503  0.39514514  0.40214838  1  0  -0.171637  0  3.698488  0  0  -0.186677  0  3.940718  0  0  -0.195397  0  3.962363  0  0  -0.087827  -0.181104  0  3.927408  0
C  C96  1  0.09507394  0.58773396  0.16979929  1  0  0.164362  0  3.7126  0  0  0.18126  0  3.947084  0  0  0.186869  0  3.969149  0  0  0.015242  0.177625  0  3.932663  0
C  C97  1  0.49267709  0.58746701  0.66991545  1  0  0.163761  0  3.713296  0  0  0.180842  0  3.947028  0  0  0.186398  0  3.969192  0  0  0.015408  0.17724  0  3.932601  0
C  C98  1  0.90491758  0.41226448  0.83020201  1  0  0.164304  0  3.712709  0  0  0.181217  0  3.947176  0  0  0.186824  0  3.969241  0  0  0.015232  0.177591  0  3.932744  0
C  C99  1  0.50732883  0.41253533  0.33008203  1  0  0.163762  0  3.713263  0  0  0.180881  0  3.946971  0  0  0.186438  0  3.969126  0  0  0.01538  0.177283  0  3.932535  0
C  C100  1  0.06856329  0.46863089  0.18297783  1  0  -0.183096  0  3.720752  0  0  -0.198059  0  3.962517  0  0  -0.206958  0  3.984325  0  0  -0.091364  -0.192407  0  3.947752  0
C  C101  1  0.39977479  0.46849100  0.68314689  1  0  -0.182628  0  3.7218  0  0  -0.197564  0  3.963329  0  0  -0.20646  0  3.985133  0  0  -0.09099  -0.19186  0  3.948626  0
C  C102  1  0.93142927  0.53136755  0.81702404  1  0  -0.183175  0  3.720823  0  0  -0.198117  0  3.962577  0  0  -0.207018  0  3.984389  0  0  -0.091373  -0.192472  0  3.947819  0
C  C103  1  0.60023010  0.53151134  0.31685115  1  0  -0.182707  0  3.721865  0  0  -0.197667  0  3.963366  0  0  -0.206552  0  3.985175  0  0  -0.090991  -0.191955  0  3.948665  0
C  C104  1  0.09782434  0.37603940  0.12703529  1  0  0.130769  0  3.723905  0  0  0.100452  0  3.972774  0  0  0.108369  0  3.991362  0  0  0.040571  0.095553  0  3.959809  0
C  C105  1  0.27779075  0.37606925  0.62721739  1  0  0.129716  0  3.725836  0  0  0.100051  0  3.974728  0  0  0.107865  0  3.993302  0  0  0.040254  0.095202  0  3.961778  0
C  C106  1  0.90216822  0.62395904  0.87296658  1  0  0.130881  0  3.723973  0  0  0.100551  0  3.972912  0  0  0.10847  0  3.991503  0  0  0.040638  0.09565  0  3.959941  0
C  C107  1  0.72221310  0.62393308  0.37278178  1  0  0.12972  0  3.725821  0  0  0.100058  0  3.974722  0  0  0.107872  0  3.993294  0  0  0.040208  0.09521  0  3.961762  0
C  C108  1  0.33536914  0.77748013  0.31330882  1  0  -0.163835  0  3.692935  0  0  -0.204573  0  3.938236  0  0  -0.206281  0  3.950418  0  0  -0.160762  -0.203393  0  3.92939  0
C  C109  1  0.44183382  0.77728832  0.81316421  1  0  -0.166277  0  3.695713  0  0  -0.205618  0  3.940625  0  0  -0.207314  0  3.95278  0  0  -0.161273  -0.204442  0  3.931777  0
C  C110  1  0.66463429  0.22251928  0.68669097  1  0  -0.163719  0  3.692915  0  0  -0.204484  0  3.938226  0  0  -0.206186  0  3.950399  0  0  -0.160796  -0.203301  0  3.929385  0
C  C111  1  0.55816692  0.22271402  0.18683440  1  0  -0.166223  0  3.695712  0  0  -0.20562  0  3.940615  0  0  -0.207324  0  3.95278  0  0  -0.161262  -0.204468  0  3.931794  0
C  C112  1  0.23608775  0.81136616  0.26335564  1  0  -0.090146  0  3.663362  0  0  -0.126973  0  3.918376  0  0  -0.128545  0  3.932976  0  0  -0.161762  -0.125706  0  3.908242  0
C  C113  1  0.57516312  0.81115226  0.76335276  1  0  -0.091019  0  3.664145  0  0  -0.128829  0  3.919847  0  0  -0.130423  0  3.934446  0  0  -0.162413  -0.127541  0  3.909741  0
C  C114  1  0.76391464  0.18863325  0.73664414  1  0  -0.0901  0  3.663321  0  0  -0.126921  0  3.918318  0  0  -0.128497  0  3.932918  0  0  -0.161758  -0.125659  0  3.908188  0
C  C115  1  0.42484018  0.18885105  0.23664545  1  0  -0.091114  0  3.664331  0  0  -0.128865  0  3.919994  0  0  -0.130455  0  3.93459  0  0  -0.162441  -0.127576  0  3.909897  0
C  C116  1  0.07939875  0.69593463  0.23109131  1  0  -0.16589  0  3.694075  0  0  -0.208754  0  3.943121  0  0  -0.210492  0  3.955619  0  0  -0.161628  -0.207642  0  3.934439  0
C  C117  1  0.61650347  0.69569709  0.73123332  1  0  -0.165229  0  3.694454  0  0  -0.207859  0  3.942632  0  0  -0.209518  0  3.955044  0  0  -0.161307  -0.206779  0  3.933939  0
C  C118  1  0.92059942  0.30406673  0.76890995  1  0  -0.165905  0  3.694048  0  0  -0.208772  0  3.943128  0  0  -0.210503  0  3.955616  0  0  -0.161633  -0.207658  0  3.934453  0
C  C119  1  0.38349934  0.30430525  0.26876416  1  0  -0.165134  0  3.694314  0  0  -0.207782  0  3.942473  0  0  -0.209434  0  3.954893  0  0  -0.16128  -0.206689  0  3.933756  0
S  S120  1  0.06333068  0.37101868  0.36314843  1  0  -0.351021  0  2.151765  0  0  -0.31782  0  2.469119  0  0  -0.333448  0  2.460288  0  0  -0.14072  -0.306571  0  2.475281  0
S  S121  1  0.30758410  0.37075618  0.86308026  1  0  -0.35058  0  2.152575  0  0  -0.317361  0  2.469846  0  0  -0.333004  0  2.461068  0  0  -0.140388  -0.306084  0  2.475957  0
S  S122  1  0.93666915  0.62897976  0.63685006  1  0  -0.351036  0  2.151813  0  0  -0.317845  0  2.469162  0  0  -0.333474  0  2.460338  0  0  -0.140729  -0.306592  0  2.475327  0
S  S123  1  0.69241157  0.62924226  0.13692048  1  0  -0.350576  0  2.152663  0  0  -0.317363  0  2.469955  0  0  -0.333004  0  2.461171  0  0  -0.140383  -0.306083  0  2.476065  0
S  S124  1  0.17212287  0.11452517  0.39453034  1  0  -0.358978  0  2.182024  0  0  -0.330085  0  2.512583  0  0  -0.345255  0  2.503495  0  0  -0.138848  -0.318264  0  2.518718  0
S  S125  1  0.94208722  0.11448757  0.89461102  1  0  -0.359017  0  2.1834  0  0  -0.330072  0  2.51392  0  0  -0.345246  0  2.504871  0  0  -0.138818  -0.318249  0  2.520064  0
S  S126  1  0.82788019  0.88546938  0.60546747  1  0  -0.358922  0  2.182196  0  0  -0.330041  0  2.512777  0  0  -0.34521  0  2.503692  0  0  -0.138796  -0.318212  0  2.518915  0
S  S127  1  0.05791364  0.88551087  0.10539141  1  0  -0.358913  0  2.183476  0  0  -0.329962  0  2.513993  0  0  -0.345134  0  2.504942  0  0  -0.138743  -0.318144  0  2.520138  0
N  N128  1  0.09852631  0.62122343  0.44953235  1  0  -0.529652  0  2.854093  0  0  -0.479534  0  3.132187  0  0  -0.49907  0  3.138158  0  0  -0.387947  -0.466517  0  3.128549  0
N  N129  1  0.52287694  0.62092005  0.94934664  1  0  -0.530126  0  2.853732  0  0  -0.479944  0  3.131542  0  0  -0.499453  0  3.13745  0  0  -0.387859  -0.466964  0  3.127998  0
N  N130  1  0.90147101  0.37877209  0.55046789  1  0  -0.529724  0  2.854051  0  0  -0.479614  0  3.132153  0  0  -0.499148  0  3.13812  0  0  -0.388011  -0.466598  0  3.12853  0
N  N131  1  0.47711569  0.37907644  0.05065602  1  0  -0.530026  0  2.853574  0  0  -0.479848  0  3.131388  0  0  -0.499359  0  3.137296  0  0  -0.387796  -0.466869  0  3.127855  0
N  N132  1  0.04002968  0.87838490  0.43353667  1  0  -0.515968  0  2.85478  0  0  -0.461939  0  3.129669  0  0  -0.481978  0  3.13688  0  0  -0.385867  -0.448043  0  3.124759  0
N  N133  1  0.83834127  0.87826977  0.93350624  1  0  -0.5158  0  2.854903  0  0  -0.461795  0  3.129758  0  0  -0.481875  0  3.137053  0  0  -0.385693  -0.44786  0  3.124794  0
N  N134  1  0.95997449  0.12160770  0.56645912  1  0  -0.515934  0  2.854619  0  0  -0.461919  0  3.129541  0  0  -0.481958  0  3.136755  0  0  -0.385837  -0.448019  0  3.12463  0
N  N135  1  0.16166154  0.12173256  0.06649743  1  0  -0.515904  0  2.854911  0  0  -0.461886  0  3.129744  0  0  -0.481964  0  3.137031  0  0  -0.385692  -0.447954  0  3.124788  0
N  N136  1  0.77807675  0.09445650  0.40621692  1  0  -0.340845  0  3.298999  0  0  -0.260905  0  3.557553  0  0  -0.282079  0  3.580015  0  0  -0.336193  -0.245789  0  3.541732  0
N  N137  1  0.31593040  0.09423209  0.90615086  1  0  -0.339814  0  3.298526  0  0  -0.260048  0  3.556742  0  0  -0.281229  0  3.579288  0  0  -0.335547  -0.244931  0  3.540887  0
N  N138  1  0.22192508  0.90554388  0.59378135  1  0  -0.340975  0  3.298843  0  0  -0.261029  0  3.557414  0  0  -0.282202  0  3.579876  0  0  -0.336226  -0.245912  0  3.541591  0
N  N139  1  0.68406936  0.90576830  0.09385191  1  0  -0.339824  0  3.298733  0  0  -0.260045  0  3.556928  0  0  -0.281227  0  3.579472  0  0  -0.335526  -0.244929  0  3.541069  0
N  N140  1  0.14962205  0.39529662  0.05904179  1  0  -0.339237  0  3.300844  0  0  -0.258549  0  3.558913  0  0  -0.280056  0  3.581226  0  0  -0.335828  -0.243304  0  3.542589  0
N  N141  1  0.24543590  0.39532817  0.55917022  1  0  -0.338789  0  3.299866  0  0  -0.258353  0  3.558002  0  0  -0.279848  0  3.580333  0  0  -0.335833  -0.243113  0  3.541671  0
N  N142  1  0.85037362  0.60470182  0.94096178  1  0  -0.339254  0  3.300798  0  0  -0.258642  0  3.558977  0  0  -0.280149  0  3.581287  0  0  -0.335887  -0.243387  0  3.542643  0
N  N143  1  0.75456642  0.60467319  0.44082822  1  0  -0.338811  0  3.299872  0  0  -0.258385  0  3.558017  0  0  -0.279879  0  3.580351  0  0  -0.335835  -0.243144  0  3.541683  0
