# generated using pymatgen
data_CdH18C18N4O5
_symmetry_space_group_name_H-M   'P 1'
_cell_length_a   9.50561177
_cell_length_b   9.49312970
_cell_length_c   11.54737011
_cell_angle_alpha   74.12287808
_cell_angle_beta   81.44383755
_cell_angle_gamma   66.19017750
_symmetry_Int_Tables_number   1
_chemical_formula_structural   CdH18C18N4O5
_chemical_formula_sum   'Cd2 H36 C36 N8 O10'
_cell_volume   916.08718641
_cell_formula_units_Z   2
loop_
 _symmetry_equiv_pos_site_id
 _symmetry_equiv_pos_as_xyz
  1  'x, y, z'
loop_
 _atom_site_type_symbol
 _atom_site_label
 _atom_site_symmetry_multiplicity
 _atom_site_fract_x
 _atom_site_fract_y
 _atom_site_fract_z
 _atom_site_occupancy
 _atom_site_hle17_bader_spin_density
 _atom_site_hle17_ddec_charge
 _atom_site_hle17_ddec_spin_density
 _atom_site_hle17_ddec_sum_bond_order
 _atom_site_hle17_magmom
 _atom_site_hse06_10hf_bader_spin_density
 _atom_site_hse06_10hf_ddec_charge
 _atom_site_hse06_10hf_ddec_spin_density
 _atom_site_hse06_10hf_ddec_sum_bond_order
 _atom_site_hse06_10hf_magmom
 _atom_site_hse06_bader_spin_density
 _atom_site_hse06_ddec_charge
 _atom_site_hse06_ddec_spin_density
 _atom_site_hse06_ddec_sum_bond_order
 _atom_site_hse06_magmom
 _atom_site_pbe_bader_spin_density
 _atom_site_pbe_cm5_charge
 _atom_site_pbe_ddec_charge
 _atom_site_pbe_ddec_spin_density
 _atom_site_pbe_ddec_sum_bond_order
 _atom_site_pbe_magmom
Cd  Cd0  1  0.30196653  0.69694791  0.89460534  1  0  1.147941  0  1.713087  0  0  0.957866  0  2.169447  0  0  1.012598  0  2.11706  0  0  0.790246  0.916123  0  2.207654  0
Cd  Cd1  1  0.69803260  0.30305289  0.10539427  1  0  1.147916  0  1.713114  0  0  0.957836  0  2.169483  0  0  1.01257  0  2.117095  0  0  0.79024  0.916094  0  2.20769  0
H  H2  1  0.78464006  0.25830236  0.38908325  1  0  0.402644  0  0.885265  0  0  0.374848  0  0.962624  0  0  0.385617  0  0.948729  0  0  0.304288  0.367307  0  0.971513  0
H  H3  1  0.21536058  0.74169726  0.61091643  1  0  0.402651  0  0.885249  0  0  0.374862  0  0.962594  0  0  0.385629  0  0.948707  0  0  0.304314  0.367322  0  0.971483  0
H  H4  1  0.51955777  0.43785006  0.61081072  1  0  0.128883  0  0.962609  0  0  0.13477  0  1.03148  0  0  0.139378  0  1.027785  0  0  0.107412  0.131332  0  1.034361  0
H  H5  1  0.48044242  0.56215075  0.38918875  1  0  0.128872  0  0.96259  0  0  0.134758  0  1.031466  0  0  0.139372  0  1.027756  0  0  0.107404  0.13132  0  1.034347  0
H  H6  1  0.95936789  0.08487741  0.53736814  1  0  0.10531  0  0.992258  0  0  0.112247  0  1.063668  0  0  0.11634  0  1.060238  0  0  0.099196  0.109297  0  1.066035  0
H  H7  1  0.04062958  0.91512219  0.46263283  1  0  0.105335  0  0.992196  0  0  0.112237  0  1.063629  0  0  0.116329  0  1.060201  0  0  0.099181  0.109284  0  1.066007  0
H  H8  1  0.80360451  0.11133734  0.90382092  1  0  0.110663  0  0.958292  0  0  0.118097  0  1.026758  0  0  0.122432  0  1.022983  0  0  0.104632  0.115009  0  1.029583  0
H  H9  1  0.19639524  0.88866466  0.09618007  1  0  0.110671  0  0.95831  0  0  0.118101  0  1.026774  0  0  0.122439  0  1.022995  0  0  0.104637  0.115014  0  1.029597  0
H  H10  1  0.03512471  0.32899676  0.22094997  1  0  0.118682  0  0.979148  0  0  0.126426  0  1.045137  0  0  0.129357  0  1.043474  0  0  0.116159  0.124093  0  1.04672  0
H  H11  1  0.96487592  0.67100286  0.77904972  1  0  0.11868  0  0.979147  0  0  0.126432  0  1.045127  0  0  0.129363  0  1.043466  0  0  0.116161  0.124097  0  1.046712  0
H  H12  1  0.28079616  0.34798413  0.05707346  1  0  0.107547  0  0.969028  0  0  0.114226  0  1.034615  0  0  0.11693  0  1.03325  0  0  0.112341  0.112203  0  1.03576  0
H  H13  1  0.71920402  0.65201667  0.94292515  1  0  0.107535  0  0.969055  0  0  0.114176  0  1.034677  0  0  0.116878  0  1.033315  0  0  0.112328  0.112154  0  1.035821  0
H  H14  1  0.97164028  0.81051830  0.07393013  1  0  0.108091  0  0.95  0  0  0.115519  0  1.016618  0  0  0.118488  0  1.013058  0  0  0.133601  0.113098  0  1.019525  0
H  H15  1  0.02836035  0.18948132  0.92606956  1  0  0.108094  0  0.950005  0  0  0.115524  0  1.016624  0  0  0.118493  0  1.013064  0  0  0.1336  0.113103  0  1.019531  0
H  H16  1  0.73267956  0.72234634  0.19757342  1  0  0.074582  0  0.910848  0  0  0.094079  0  0.966568  0  0  0.094028  0  0.967068  0  0  0.111121  0.093763  0  0.966656  0
H  H17  1  0.26732107  0.27765328  0.80242626  1  0  0.074574  0  0.910857  0  0  0.094092  0  0.96656  0  0  0.09404  0  0.96706  0  0  0.111119  0.093773  0  0.96665  0
H  H18  1  0.79626543  0.52673961  0.28636203  1  0  0.094906  0  0.932875  0  0  0.109806  0  0.994399  0  0  0.111232  0  0.993454  0  0  0.11474  0.10842  0  0.995689  0
H  H19  1  0.20373582  0.47326121  0.71363730  1  0  0.094918  0  0.932835  0  0  0.109813  0  0.994373  0  0  0.111238  0  0.993424  0  0  0.114734  0.108426  0  0.995664  0
H  H20  1  0.87749411  0.79978779  0.30934090  1  0  0.070551  0  0.957745  0  0  0.087472  0  1.02163  0  0  0.087194  0  1.023827  0  0  0.091467  0.08734  0  1.020359  0
H  H21  1  0.12250608  0.20021303  0.69065943  1  0  0.07051  0  0.957784  0  0  0.087463  0  1.021629  0  0  0.087185  0  1.023829  0  0  0.091461  0.087331  0  1.02036  0
H  H22  1  0.97113146  0.60321436  0.39019738  1  0  0.067632  0  0.927772  0  0  0.088166  0  0.983973  0  0  0.088598  0  0.985299  0  0  0.091509  0.087786  0  0.982939  0
H  H23  1  0.02886979  0.39678646  0.60980196  1  0  0.067663  0  0.927707  0  0  0.08817  0  0.983948  0  0  0.088603  0  0.985274  0  0  0.091498  0.08779  0  0.982916  0
H  H24  1  0.73605153  0.93109801  0.46678369  1  0  0.078368  0  0.907666  0  0  0.096777  0  0.965631  0  0  0.096783  0  0.966505  0  0  0.111424  0.096871  0  0.964607  0
H  H25  1  0.26394912  0.06890162  0.53321686  1  0  0.078348  0  0.90768  0  0  0.09676  0  0.965645  0  0  0.096766  0  0.96652  0  0  0.111422  0.096854  0  0.964622  0
H  H26  1  0.86311599  0.75899307  0.56145032  1  0  0.069503  0  0.915075  0  0  0.088065  0  0.975852  0  0  0.08819  0  0.975924  0  0  0.108399  0.087656  0  0.976253  0
H  H27  1  0.13688404  0.24100536  0.43855058  1  0  0.069503  0  0.915067  0  0  0.08807  0  0.975844  0  0  0.088196  0  0.975915  0  0  0.108415  0.08766  0  0.976245  0
H  H28  1  0.61932655  0.77199246  0.40688321  1  0  0.070875  0  0.948404  0  0  0.087223  0  1.013861  0  0  0.08714  0  1.016244  0  0  0.091304  0.087043  0  1.012324  0
H  H29  1  0.38067409  0.22800716  0.59311647  1  0  0.070894  0  0.948423  0  0  0.087229  0  1.013864  0  0  0.087147  0  1.01625  0  0  0.0913  0.087049  0  1.012326  0
H  H30  1  0.73694853  0.59703224  0.50460335  1  0  0.072678  0  0.940799  0  0  0.09188  0  1.00019  0  0  0.092041  0  1.00142  0  0  0.093475  0.09188  0  0.998732  0
H  H31  1  0.26305255  0.40296619  0.49539569  1  0  0.072713  0  0.940795  0  0  0.091884  0  1.000193  0  0  0.092062  0  1.001402  0  0  0.093475  0.091883  0  0.998735  0
H  H32  1  0.68514360  0.00739912  0.68359639  1  0  0.101747  0  1.027287  0  0  0.108578  0  1.09644  0  0  0.108756  0  1.099886  0  0  0.111562  0.108599  0  1.093589  0
H  H33  1  0.31485402  0.99260284  0.31640141  1  0  0.101735  0  1.027287  0  0  0.108565  0  1.096442  0  0  0.108745  0  1.099886  0  0  0.111564  0.108587  0  1.09359  0
H  H34  1  0.46004472  0.97203293  0.86078872  1  0  0.104462  0  0.936636  0  0  0.118324  0  0.988413  0  0  0.120757  0  0.987033  0  0  0.119657  0.116346  0  0.989934  0
H  H35  1  0.53995486  0.02796669  0.13921111  1  0  0.104452  0  0.936657  0  0  0.118312  0  0.988433  0  0  0.120747  0  0.987054  0  0  0.119655  0.116331  0  0.98996  0
H  H36  1  0.52133479  0.67749977  0.62815979  1  0  0.099944  0  0.976142  0  0  0.104752  0  1.05018  0  0  0.107251  0  1.046864  0  0  0.133198  0.103195  0  1.051835  0
H  H37  1  0.47866826  0.32249631  0.37184128  1  0  0.099922  0  0.976221  0  0  0.104743  0  1.050251  0  0  0.107232  0  1.046946  0  0  0.133192  0.103187  0  1.051901  0
C  C38  1  0.62596166  0.33916794  0.64197533  1  0  -0.19886  0  3.688224  0  0  -0.234512  0  3.945396  0  0  -0.236306  0  3.961333  0  0  -0.102301  -0.232157  0  3.932736  0
C  C39  1  0.37403730  0.66083047  0.35802398  1  0  -0.198711  0  3.688118  0  0  -0.234387  0  3.945272  0  0  -0.236178  0  3.961211  0  0  -0.102239  -0.232032  0  3.93261  0
C  C40  1  0.87219831  0.13982333  0.60131848  1  0  -0.228872  0  3.740021  0  0  -0.262388  0  3.994635  0  0  -0.264816  0  4.010682  0  0  -0.110632  -0.260164  0  3.983127  0
C  C41  1  0.12780127  0.86017629  0.39868221  1  0  -0.228857  0  3.740062  0  0  -0.26235  0  3.994676  0  0  -0.264779  0  4.010723  0  0  -0.11062  -0.260127  0  3.983164  0
C  C42  1  0.73714123  0.26757367  0.55922595  1  0  0.321787  0  3.867646  0  0  0.316828  0  4.132794  0  0  0.327339  0  4.147368  0  0  0.073933  0.309148  0  4.121431  0
C  C43  1  0.26285835  0.73242595  0.44077474  1  0  0.321629  0  3.867763  0  0  0.316729  0  4.132838  0  0  0.327242  0  4.147409  0  0  0.073914  0.309051  0  4.121471  0
C  C44  1  0.89581975  0.08406163  0.72513925  1  0  -0.039716  0  3.802485  0  0  -0.014299  0  4.03872  0  0  -0.018978  0  4.058697  0  0  -0.02266  -0.011134  0  4.025281  0
C  C45  1  0.10417771  0.91593796  0.27486171  1  0  -0.03976  0  3.802536  0  0  -0.014346  0  4.038778  0  0  -0.019025  0  4.058755  0  0  -0.02267  -0.01118  0  4.025337  0
C  C46  1  0.78496123  0.15551137  0.80766094  1  0  -0.115459  0  3.730566  0  0  -0.15594  0  3.983107  0  0  -0.155745  0  4.001835  0  0  -0.095029  -0.156196  0  3.970925  0
C  C47  1  0.21503790  0.84448943  0.19233954  1  0  -0.115453  0  3.73061  0  0  -0.155937  0  3.983167  0  0  -0.15574  0  4.001894  0  0  -0.095019  -0.156191  0  3.970981  0
C  C48  1  0.64985388  0.28310337  0.76566153  1  0  -0.043754  0  3.781042  0  0  -0.016709  0  4.014534  0  0  -0.022554  0  4.036503  0  0  -0.020938  -0.012236  0  3.99897  0
C  C49  1  0.35014526  0.71689743  0.23433894  1  0  -0.043777  0  3.781075  0  0  -0.016726  0  4.014583  0  0  -0.022574  0  4.036556  0  0  -0.020952  -0.012254  0  3.999017  0
C  C50  1  0.53057086  0.36475083  0.85260376  1  0  0.657348  0  3.918744  0  0  0.605264  0  4.211037  0  0  0.640514  0  4.202153  0  0  0.204753  0.580771  0  4.216738  0
C  C51  1  0.46942873  0.63524878  0.14739693  1  0  0.657405  0  3.918709  0  0  0.605322  0  4.211009  0  0  0.640571  0  4.202123  0  0  0.204764  0.580829  0  4.216706  0
C  C52  1  0.03961127  0.94577179  0.76993199  1  0  0.641231  0  3.929469  0  0  0.591258  0  4.222265  0  0  0.624996  0  4.214716  0  0  0.198486  0.568369  0  4.226174  0
C  C53  1  0.96038725  0.05422782  0.23006970  1  0  0.641262  0  3.929456  0  0  0.591286  0  4.222256  0  0  0.625024  0  4.214709  0  0  0.198492  0.568396  0  4.226165  0
C  C54  1  0.06208486  0.42901587  0.16736063  1  0  -0.070882  0  3.667705  0  0  -0.112112  0  3.929322  0  0  -0.11108  0  3.94854  0  0  -0.006452  -0.112705  0  3.916776  0
C  C55  1  0.93791577  0.57098374  0.83263819  1  0  -0.070841  0  3.66771  0  0  -0.112074  0  3.92931  0  0  -0.111043  0  3.94853  0  0  -0.006447  -0.112665  0  3.916764  0
C  C56  1  0.17946862  0.44010377  0.08480525  1  0  0.006886  0  3.75301  0  0  -0.029718  0  4.024973  0  0  -0.027332  0  4.045687  0  0  -0.009105  -0.03123  0  4.010878  0
C  C57  1  0.82053157  0.55989703  0.91519336  1  0  0.006854  0  3.75304  0  0  -0.029724  0  4.025028  0  0  -0.027337  0  4.04574  0  0  -0.009102  -0.031236  0  4.010931  0
C  C58  1  0.02280929  0.68216434  0.08911586  1  0  0.15707  0  3.659348  0  0  0.09771  0  3.92153  0  0  0.110625  0  3.936865  0  0  0.137937  0.089286  0  3.91098  0
C  C59  1  0.97719029  0.31783527  0.91088397  1  0  0.157054  0  3.659304  0  0  0.097686  0  3.921483  0  0  0.110601  0  3.936818  0  0  0.13792  0.089262  0  3.910935  0
C  C60  1  0.82898575  0.62923972  0.25023183  1  0  0.004642  0  3.610818  0  0  -0.058104  0  3.868628  0  0  -0.053302  0  3.878822  0  0  -0.05124  -0.061133  0  3.862126  0
C  C61  1  0.17101490  0.37075991  0.74976872  1  0  0.004634  0  3.610782  0  0  -0.058128  0  3.868605  0  0  -0.053318  0  3.878796  0  0  -0.051248  -0.061154  0  3.862102  0
C  C62  1  0.86121239  0.68805799  0.35014812  1  0  -0.122446  0  3.68158  0  0  -0.162515  0  3.944177  0  0  -0.164142  0  3.958746  0  0  -0.161855  -0.161198  0  3.934275  0
C  C63  1  0.13878780  0.31194281  0.64985136  1  0  -0.122407  0  3.681563  0  0  -0.162494  0  3.944131  0  0  -0.164126  0  3.958709  0  0  -0.161833  -0.161178  0  3.93423  0
C  C64  1  0.74800241  0.81348158  0.52394575  1  0  0.01717  0  3.618266  0  0  -0.046993  0  3.882947  0  0  -0.041923  0  3.893826  0  0  -0.049089  -0.050548  0  3.875947  0
C  C65  1  0.25199718  0.18651804  0.47605494  1  0  0.017304  0  3.618227  0  0  -0.046887  0  3.882904  0  0  -0.041821  0  3.893791  0  0  -0.049046  -0.050445  0  3.875904  0
C  C66  1  0.73215707  0.71276102  0.44810527  1  0  -0.127996  0  3.685808  0  0  -0.169141  0  3.947507  0  0  -0.170393  0  3.961383  0  0  -0.162482  -0.168397  0  3.938492  0
C  C67  1  0.26784295  0.28723740  0.55189477  1  0  -0.128126  0  3.685982  0  0  -0.169197  0  3.947598  0  0  -0.170458  0  3.961472  0  0  -0.162503  -0.168448  0  3.938575  0
C  C68  1  0.61643597  0.93629577  0.69854775  1  0  -0.078233  0  3.697567  0  0  -0.117031  0  3.954838  0  0  -0.115932  0  3.976316  0  0  -0.006937  -0.1179  0  3.940464  0
C  C69  1  0.38356316  0.06370502  0.30145186  1  0  -0.078196  0  3.697594  0  0  -0.116999  0  3.954865  0  0  -0.115898  0  3.976341  0  0  -0.006931  -0.11787  0  3.940488  0
C  C70  1  0.50485053  0.91812349  0.78469016  1  0  0.00829  0  3.764113  0  0  -0.023289  0  4.02737  0  0  -0.020979  0  4.047406  0  0  -0.002074  -0.025292  0  4.014566  0
C  C71  1  0.49514950  0.08187494  0.21530988  1  0  0.008305  0  3.764155  0  0  -0.023271  0  4.02741  0  0  -0.020961  0  4.047448  0  0  -0.002082  -0.02527  0  4.014606  0
C  C72  1  0.53474356  0.76239953  0.66741331  1  0  0.158408  0  3.662183  0  0  0.095512  0  3.929049  0  0  0.109573  0  3.942714  0  0  0.136773  0.086398  0  3.91882  0
C  C73  1  0.46525843  0.23759655  0.33258876  1  0  0.158376  0  3.662405  0  0  0.095468  0  3.929266  0  0  0.109536  0  3.942938  0  0  0.136768  0.086353  0  3.919038  0
N  N74  1  0.96403877  0.58301399  0.16877619  1  0  -0.061321  0  3.572812  0  0  0.034539  0  3.790377  0  0  0.019957  0  3.816787  0  0  -0.241995  0.044111  0  3.772517  0
N  N75  1  0.03596142  0.41698682  0.83122328  1  0  -0.06139  0  3.572821  0  0  0.034468  0  3.790406  0  0  0.019886  0  3.816816  0  0  -0.242008  0.04404  0  3.772548  0
N  N76  1  0.15329631  0.59828238  0.03681655  1  0  -0.407386  0  3.299225  0  0  -0.325943  0  3.583788  0  0  -0.349521  0  3.603925  0  0  -0.364175  -0.30958  0  3.569901  0
N  N77  1  0.84670282  0.40171842  0.96318393  1  0  -0.407293  0  3.299161  0  0  -0.325838  0  3.583696  0  0  -0.349414  0  3.603827  0  0  -0.36413  -0.309473  0  3.569803  0
N  N78  1  0.45463549  0.81006205  0.76401067  1  0  -0.385727  0  3.264337  0  0  -0.310951  0  3.547331  0  0  -0.332726  0  3.565579  0  0  -0.361339  -0.295982  0  3.534565  0
N  N79  1  0.54536605  0.18993521  0.23599032  1  0  -0.38572  0  3.264372  0  0  -0.31095  0  3.547376  0  0  -0.332727  0  3.565625  0  0  -0.361337  -0.29598  0  3.534608  0
N  N80  1  0.63393955  0.83716930  0.62456490  1  0  -0.073023  0  3.564131  0  0  0.022779  0  3.783139  0  0  0.007926  0  3.808994  0  0  -0.245251  0.032752  0  3.765806  0
N  N81  1  0.36606048  0.16282913  0.37543601  1  0  -0.073053  0  3.564129  0  0  0.022759  0  3.783135  0  0  0.007905  0  3.808988  0  0  -0.245253  0.032732  0  3.765801  0
O  O82  1  0.42016219  0.49040689  0.80549606  1  0  -0.640783  0  2.047089  0  0  -0.573509  0  2.30993  0  0  -0.601625  0  2.297915  0  0  -0.326574  -0.553447  0  2.318794  0
O  O83  1  0.57983739  0.50959272  0.19450463  1  0  -0.640784  0  2.047125  0  0  -0.57353  0  2.309961  0  0  -0.601649  0  2.297941  0  0  -0.32658  -0.55347  0  2.318825  0
O  O84  1  0.54490359  0.30551077  0.96508211  1  0  -0.674266  0  2.037794  0  0  -0.612726  0  2.301265  0  0  -0.638712  0  2.286187  0  0  -0.344159  -0.59332  0  2.310726  0
O  O85  1  0.45509705  0.69448885  0.03491757  1  0  -0.674306  0  2.037745  0  0  -0.612744  0  2.301204  0  0  -0.638731  0  2.286125  0  0  -0.344148  -0.593341  0  2.310662  0
O  O86  1  0.09947126  0.83634430  0.71237774  1  0  -0.676343  0  1.981968  0  0  -0.620132  0  2.221937  0  0  -0.644859  0  2.209689  0  0  -0.334584  -0.602071  0  2.230342  0
O  O87  1  0.90052893  0.16365650  0.28762173  1  0  -0.676343  0  1.982053  0  0  -0.620121  0  2.222007  0  0  -0.64485  0  2.209755  0  0  -0.334572  -0.602066  0  2.230422  0
O  O88  1  0.09315072  0.94376983  0.86544196  1  0  -0.630315  0  1.96333  0  0  -0.56723  0  2.20565  0  0  -0.59492  0  2.195212  0  0  -0.324537  -0.547034  0  2.21185  0
O  O89  1  0.90684902  0.05623216  0.13455730  1  0  -0.630341  0  1.96332  0  0  -0.567227  0  2.205583  0  0  -0.594915  0  2.195146  0  0  -0.32454  -0.547029  0  2.211784  0
O  O90  1  0.70794148  0.32641196  0.44024603  1  0  -0.532462  0  2.145798  0  0  -0.47979  0  2.363779  0  0  -0.498221  0  2.352535  0  0  -0.354229  -0.466491  0  2.369847  0
O  O91  1  0.29205855  0.67358647  0.55975488  1  0  -0.532446  0  2.145865  0  0  -0.479795  0  2.36383  0  0  -0.498228  0  2.352596  0  0  -0.354274  -0.466497  0  2.369898  0
