# generated using pymatgen
data_Li2H27C15SN9
_symmetry_space_group_name_H-M   'P 1'
_cell_length_a   10.06737353
_cell_length_b   10.29970539
_cell_length_c   12.41080000
_cell_angle_alpha   78.43255689
_cell_angle_beta   67.33267555
_cell_angle_gamma   83.01573759
_symmetry_Int_Tables_number   1
_chemical_formula_structural   Li2H27C15SN9
_chemical_formula_sum   'Li4 H54 C30 S2 N18'
_cell_volume   1161.96871480
_cell_formula_units_Z   2
loop_
 _symmetry_equiv_pos_site_id
 _symmetry_equiv_pos_as_xyz
  1  'x, y, z'
loop_
 _atom_site_type_symbol
 _atom_site_label
 _atom_site_symmetry_multiplicity
 _atom_site_fract_x
 _atom_site_fract_y
 _atom_site_fract_z
 _atom_site_occupancy
 _atom_site_hle17_bader_spin_density
 _atom_site_hle17_ddec_charge
 _atom_site_hle17_ddec_spin_density
 _atom_site_hle17_ddec_sum_bond_order
 _atom_site_hle17_magmom
 _atom_site_hse06_10hf_bader_spin_density
 _atom_site_hse06_10hf_ddec_charge
 _atom_site_hse06_10hf_ddec_spin_density
 _atom_site_hse06_10hf_ddec_sum_bond_order
 _atom_site_hse06_10hf_magmom
 _atom_site_hse06_bader_spin_density
 _atom_site_hse06_ddec_charge
 _atom_site_hse06_ddec_spin_density
 _atom_site_hse06_ddec_sum_bond_order
 _atom_site_hse06_magmom
 _atom_site_pbe_bader_charge
 _atom_site_pbe_bader_spin_density
 _atom_site_pbe_cm5_charge
 _atom_site_pbe_ddec_charge
 _atom_site_pbe_ddec_spin_density
 _atom_site_pbe_ddec_sum_bond_order
 _atom_site_pbe_magmom
Li  Li0  1  0.30214469  0.48068548  0.61726929  1  0  0.777272  0  0.524236  0  0  0.713059  0  0.662045  0  0  0.722466  0  0.648594  0  0.843089  0  0.5627  0.706505  0  0.671395  0
Li  Li1  1  0.69785512  0.51931372  0.38272905  1  0  0.777291  0  0.524211  0  0  0.713068  0  0.662037  0  0  0.722476  0  0.648585  0  0.843075  0  0.562695  0.706531  0  0.671355  0
Li  Li2  1  0.46400120  0.67556108  0.51653820  1  0  0.779184  0  0.508288  0  0  0.716675  0  0.641063  0  0  0.725224  0  0.629158  0  0.845141  0  0.542865  0.710525  0  0.64968  0
Li  Li3  1  0.53599861  0.32443812  0.48346095  1  0  0.779183  0  0.508262  0  0  0.716642  0  0.641099  0  0  0.725192  0  0.629194  0  0.845126  0  0.542859  0.710507  0  0.649684  0
H  H4  1  0.24654055  0.25973723  0.83457337  1  0  0.28275  0  0.948272  0  0  0.264735  0  1.020329  0  0  0.271803  0  1.015447  0  0.484737  0  0.287055  0.259755  0  1.023657  0
H  H5  1  0.75346439  0.74026693  0.16541932  1  0  0.282685  0  0.948304  0  0  0.264645  0  1.020406  0  0  0.271715  0  1.015523  0  0.484808  0  0.287012  0.259664  0  1.023731  0
H  H6  1  0.43261355  0.87391343  0.62830275  1  0  0.278057  0  0.918664  0  0  0.272314  0  0.976664  0  0  0.277318  0  0.972679  0  0.40263  0  0.28478  0.269058  0  0.978841  0
H  H7  1  0.56738642  0.12608279  0.37169845  1  0  0.278029  0  0.918691  0  0  0.272291  0  0.976684  0  0  0.277295  0  0.972699  0  0.402617  0  0.284769  0.269036  0  0.97886  0
H  H8  1  0.39807878  0.91478608  0.50738485  1  0  0.275488  0  0.931833  0  0  0.265901  0  0.995676  0  0  0.271068  0  0.991692  0  0.399552  0  0.281903  0.262117  0  0.998765  0
H  H9  1  0.60192114  0.08521113  0.49261460  1  0  0.275481  0  0.931837  0  0  0.265892  0  0.995684  0  0  0.27106  0  0.991698  0  0.399609  0  0.281963  0.262109  0  0.998772  0
H  H10  1  0.30479019  0.54875596  0.82804937  1  0  0.042862  0  0.9747  0  0  0.055603  0  1.051358  0  0  0.055926  0  1.051776  0  0.002389  0  0.096641  0.055103  0  1.051453  0
H  H11  1  0.69520419  0.45124423  0.17194970  1  0  0.042878  0  0.974677  0  0  0.055591  0  1.051355  0  0  0.055915  0  1.051771  0  0.002445  0  0.096634  0.055091  0  1.051451  0
H  H12  1  0.45078190  0.65490994  0.78216078  1  0  0.034801  0  0.916354  0  0  0.053416  0  0.978346  0  0  0.05409  0  0.977694  0  -0.009558  0  0.089863  0.053023  0  0.978388  0
H  H13  1  0.54921027  0.34509124  0.21784042  1  0  0.034798  0  0.916397  0  0  0.05341  0  0.978379  0  0  0.054084  0  0.977728  0  -0.009482  0  0.089865  0.053018  0  0.978422  0
H  H14  1  0.53048924  0.47788840  0.90766911  1  0  0.045821  0  0.957854  0  0  0.061923  0  1.024366  0  0  0.062989  0  1.023184  0  0.007833  0  0.090589  0.060895  0  1.025472  0
H  H15  1  0.46950611  0.52211377  0.09233093  1  0  0.045801  0  0.957923  0  0  0.061943  0  1.024392  0  0  0.063008  0  1.023209  0  0.008232  0  0.090609  0.060904  0  1.025508  0
H  H16  1  0.44878109  0.35370671  0.87377137  1  0  0.051097  0  0.932496  0  0  0.065124  0  1.000477  0  0  0.066762  0  0.999103  0  0.047438  0  0.091028  0.06384  0  1.001282  0
H  H17  1  0.55121760  0.64629347  0.12622635  1  0  0.051107  0  0.932477  0  0  0.065138  0  1.000467  0  0  0.066776  0  0.999094  0  0.047399  0  0.091023  0.063853  0  1.00127  0
H  H18  1  0.66694800  0.22191567  0.75706523  1  0  0.05797  0  0.935546  0  0  0.074077  0  0.99919  0  0  0.075336  0  0.998134  0  0.032899  0  0.087969  0.072968  0  1.000197  0
H  H19  1  0.33304821  0.77809048  0.24293469  1  0  0.057989  0  0.935657  0  0  0.074128  0  0.999255  0  0  0.075394  0  0.998198  0  0.03278  0  0.087979  0.073019  0  1.000262  0
H  H20  1  0.81541925  0.30891776  0.75042105  1  0  0.055036  0  0.964376  0  0  0.063859  0  1.040985  0  0  0.065608  0  1.039472  0  0.036364  0  0.090426  0.062522  0  1.042026  0
H  H21  1  0.18457906  0.69108937  0.24957724  1  0  0.055073  0  0.964379  0  0  0.063915  0  1.040955  0  0  0.065662  0  1.039447  0  0.036315  0  0.090427  0.062576  0  1.041998  0
H  H22  1  0.88671052  0.38278580  0.53847955  1  0  0.027811  0  0.937903  0  0  0.042624  0  1.011857  0  0  0.043054  0  1.011409  0  -0.022828  0  0.087704  0.042161  0  1.01255  0
H  H23  1  0.11328575  0.61721935  0.46151810  1  0  0.027763  0  0.937924  0  0  0.042639  0  1.011842  0  0  0.043069  0  1.011395  0  -0.022847  0  0.087714  0.042176  0  1.012535  0
H  H24  1  0.81216838  0.23084865  0.54908186  1  0  0.039006  0  0.948304  0  0  0.058339  0  1.00989  0  0  0.058536  0  1.009978  0  0.001184  0  0.095589  0.057928  0  1.010191  0
H  H25  1  0.18782676  0.76915749  0.45091678  1  0  0.038996  0  0.948291  0  0  0.058339  0  1.009899  0  0  0.058539  0  1.009982  0  0.001097  0  0.095597  0.057932  0  1.010198  0
H  H26  1  0.94269871  0.54224598  0.68076163  1  0  0.053722  0  0.925577  0  0  0.067967  0  0.994401  0  0  0.068732  0  0.993951  0  0.030684  0  0.099026  0.067248  0  0.994822  0
H  H27  1  0.05730014  0.45775123  0.31923976  1  0  0.053768  0  0.925537  0  0  0.067989  0  0.994398  0  0  0.068754  0  0.993948  0  0.030694  0  0.09903  0.067273  0  0.994816  0
H  H28  1  0.97774569  0.67200793  0.73958196  1  0  0.050964  0  0.93336  0  0  0.071135  0  0.990832  0  0  0.071244  0  0.991215  0  0.032651  0  0.09957  0.070706  0  0.991046  0
H  H29  1  0.02225181  0.32799424  0.26041500  1  0  0.050976  0  0.933395  0  0  0.071168  0  0.990836  0  0  0.071279  0  0.991218  0  0.032723  0  0.099567  0.07074  0  0.991055  0
H  H30  1  0.84552663  0.56823032  0.94371558  1  0  0.058275  0  0.937782  0  0  0.072451  0  1.004219  0  0  0.073485  0  1.004029  0  0.035175  0  0.09432  0.071575  0  1.004558  0
H  H31  1  0.15447431  0.43176789  0.05628902  1  0  0.058259  0  0.937806  0  0  0.072484  0  1.004233  0  0  0.073512  0  1.00405  0  0.035201  0  0.094333  0.071613  0  1.004567  0
H  H32  1  0.75056746  0.50418430  0.87060377  1  0  0.074322  0  0.955031  0  0  0.088673  0  1.018504  0  0  0.089752  0  1.017967  0  0.053694  0  0.103538  0.087859  0  1.01895  0
H  H33  1  0.24943101  0.49581986  0.12939819  1  0  0.0743  0  0.955015  0  0  0.088672  0  1.018511  0  0  0.089751  0  1.017973  0  0.053674  0  0.103548  0.08786  0  1.018954  0
H  H34  1  0.80643089  0.23357727  0.04099492  1  0  0.075646  0  0.915691  0  0  0.095839  0  0.969368  0  0  0.096778  0  0.968891  0  0.052829  0  0.108693  0.095003  0  0.96987  0
H  H35  1  0.19357667  0.76641796  0.95900246  1  0  0.075614  0  0.915687  0  0  0.095827  0  0.969319  0  0  0.096771  0  0.968834  0  0.052852  0  0.108681  0.09499  0  0.969824  0
H  H36  1  0.89569671  0.34745174  0.07915150  1  0  0.060107  0  0.943754  0  0  0.074132  0  1.013761  0  0  0.074964  0  1.01377  0  0.045146  0  0.100136  0.073463  0  1.013871  0
H  H37  1  0.10431053  0.65254944  0.92084257  1  0  0.060176  0  0.943745  0  0  0.074201  0  1.013728  0  0  0.075037  0  1.013735  0  0.04505  0  0.100158  0.073524  0  1.013848  0
H  H38  1  0.07824954  0.16551969  0.04988243  1  0  0.061015  0  0.928757  0  0  0.08082  0  0.985439  0  0  0.081637  0  0.984775  0  0.052339  0  0.103737  0.080041  0  0.986269  0
H  H39  1  0.92176077  0.83448447  0.95011100  1  0  0.061057  0  0.928806  0  0  0.080825  0  0.985524  0  0  0.081642  0  0.984865  0  0.052408  0  0.103755  0.080051  0  0.98635  0
H  H40  1  0.03246275  0.11881971  0.93790914  1  0  0.053605  0  0.926204  0  0  0.07038  0  0.990173  0  0  0.070852  0  0.990308  0  0.040685  0  0.098488  0.069892  0  0.99023  0
H  H41  1  0.96754353  0.88117948  0.06208477  1  0  0.053572  0  0.926241  0  0  0.070365  0  0.990196  0  0  0.070836  0  0.990331  0  0.040257  0  0.098516  0.069869  0  0.990259  0
H  H42  1  0.26867229  0.29554061  0.43028026  1  0  0.056212  0  0.915928  0  0  0.075734  0  0.973699  0  0  0.076142  0  0.973628  0  0.015526  0  0.104256  0.075457  0  0.973668  0
H  H43  1  0.73132414  0.70446156  0.56972993  1  0  0.056264  0  0.915879  0  0  0.075765  0  0.973722  0  0  0.076174  0  0.973646  0  0.015332  0  0.104248  0.075491  0  0.973681  0
H  H44  1  0.14130299  0.38312811  0.53765024  1  0  0.048891  0  0.946483  0  0  0.065197  0  1.016063  0  0  0.065417  0  1.016175  0  0.033156  0  0.104965  0.06484  0  1.016401  0
H  H45  1  0.85869580  0.61687009  0.46236067  1  0  0.048836  0  0.946523  0  0  0.065147  0  1.016128  0  0  0.065368  0  1.016238  0  0.03311  0  0.10496  0.064792  0  1.016467  0
H  H46  1  0.01661634  0.18724441  0.64950404  1  0  0.050452  0  0.939542  0  0  0.068377  0  1.003199  0  0  0.068732  0  1.003328  0  0.040546  0  0.095534  0.068071  0  1.003259  0
H  H47  1  0.98338461  0.81275379  0.35050539  1  0  0.050463  0  0.939587  0  0  0.068387  0  1.003246  0  0  0.068738  0  1.003383  0  0.040593  0  0.095541  0.068086  0  1.00331  0
H  H48  1  0.11599362  0.11208649  0.52211533  1  0  0.051316  0  0.920881  0  0  0.069523  0  0.979521  0  0  0.070636  0  0.978623  0  -0.00632  0  0.096895  0.069031  0  0.979796  0
H  H49  1  0.88400050  0.88791866  0.47788944  1  0  0.051293  0  0.920797  0  0  0.069486  0  0.979483  0  0  0.070601  0  0.978581  0  -0.006332  0  0.096899  0.068994  0  0.97976  0
H  H50  1  0.05496484  0.96603540  0.77239557  1  0  0.046788  0  0.931903  0  0  0.063418  0  0.997653  0  0  0.06472  0  0.99602  0  0.01743  0  0.095023  0.06223  0  0.999311  0
H  H51  1  0.94503524  0.03395884  0.22760352  1  0  0.046814  0  0.931909  0  0  0.063405  0  0.997714  0  0  0.064702  0  0.996083  0  0.017396  0  0.095027  0.062219  0  0.999371  0
H  H52  1  0.22521595  0.95267313  0.78955266  1  0  0.059216  0  0.983062  0  0  0.070831  0  1.057839  0  0  0.072201  0  1.057044  0  0.083314  0  0.092677  0.069774  0  1.05831  0
H  H53  1  0.77478213  0.04731813  0.21044835  1  0  0.059194  0  0.983048  0  0  0.070831  0  1.057819  0  0  0.072191  0  1.057026  0  0.083238  0  0.092709  0.069773  0  1.058294  0
H  H54  1  0.19718042  0.75459662  0.71794330  1  0  0.053488  0  0.93908  0  0  0.073599  0  1.002327  0  0  0.073613  0  1.003164  0  0.039618  0  0.110075  0.073535  0  1.001811  0
H  H55  1  0.80282073  0.24539762  0.28205302  1  0  0.053481  0  0.9391  0  0  0.07362  0  1.002297  0  0  0.073633  0  1.003138  0  0.039641  0  0.110099  0.073556  0  1.001782  0
H  H56  1  0.16367396  0.85267093  0.59643085  1  0  0.042495  0  0.938152  0  0  0.062879  0  0.998859  0  0  0.063148  0  0.998598  0  0.008548  0  0.103007  0.062589  0  0.999145  0
H  H57  1  0.83632494  0.14732529  0.40356827  1  0  0.042511  0  0.938185  0  0  0.062856  0  0.99893  0  0  0.063158  0  0.99863  0  0.008585  0  0.103004  0.06257  0  0.999206  0
C  C58  1  0.58779555  0.45819674  0.63763692  1  0  0.556406  0  3.948403  0  0  0.510103  0  4.228051  0  0  0.537067  0  4.231803  0  1.484506  0  0.321923  0.491971  0  4.224909  0
C  C59  1  0.41220195  0.54180543  0.36236487  1  0  0.556469  0  3.948523  0  0  0.510153  0  4.228183  0  0  0.537124  0  4.231911  0  1.484409  0  0.321964  0.492022  0  4.225041  0
C  C60  1  0.42167139  0.55494743  0.78089377  1  0  0.062412  0  3.697819  0  0  0.007458  0  3.973664  0  0  0.01118  0  3.986009  0  0.330326  0  -0.063245  0.004895  0  3.965537  0
C  C61  1  0.57832401  0.44505375  0.21910481  1  0  0.062406  0  3.697905  0  0  0.0075  0  3.973705  0  0  0.011223  0  3.986052  0  0.330218  0  -0.063208  0.004936  0  3.965579  0
C  C62  1  0.50683547  0.44699553  0.83735892  1  0  -0.014023  0  3.66267  0  0  -0.073646  0  3.928682  0  0  -0.070529  0  3.94016  0  0.295541  0  -0.062015  -0.075555  0  3.920941  0
C  C63  1  0.49316095  0.55300664  0.16263998  1  0  -0.014036  0  3.6628  0  0  -0.073701  0  3.928825  0  0  -0.070587  0  3.940301  0  0.295193  0  -0.062049  -0.075598  0  3.921086  0
C  C64  1  0.72989838  0.31174262  0.71540611  1  0  -0.02696  0  3.657247  0  0  -0.086687  0  3.92363  0  0  -0.083574  0  3.934599  0  0.257139  0  -0.067126  -0.088673  0  3.916168  0
C  C65  1  0.27009896  0.68826253  0.28459201  1  0  -0.027121  0  3.657406  0  0  -0.086872  0  3.923854  0  0  -0.083769  0  3.934821  0  0.257214  0  -0.067155  -0.088857  0  3.916396  0
C  C66  1  0.78638885  0.32764697  0.57881805  1  0  0.069847  0  3.699233  0  0  0.01531  0  3.974964  0  0  0.01906  0  3.987989  0  0.357217  0  -0.060001  0.012847  0  3.966249  0
C  C67  1  0.21360850  0.67235818  0.42118168  1  0  0.069918  0  3.699092  0  0  0.015262  0  3.974988  0  0  0.019012  0  3.988014  0  0.357547  0  -0.060068  0.012797  0  3.966275  0
C  C68  1  0.07074051  0.39220001  0.83581469  1  0  0.526993  0  3.879135  0  0  0.475672  0  4.163107  0  0  0.502182  0  4.16801  0  1.540245  0  0.333424  0.45789  0  4.159293  0
C  C69  1  0.92926012  0.60780415  0.16418337  1  0  0.527019  0  3.879111  0  0  0.475709  0  4.163026  0  0  0.502218  0  4.167931  0  1.540012  0  0.333414  0.457927  0  4.159213  0
C  C70  1  0.97056461  0.56400246  0.75292241  1  0  0.046075  0  3.662097  0  0  -0.006345  0  3.936921  0  0  -0.002422  0  3.948169  0  0.28235  0  -0.058745  -0.008648  0  3.92904  0
C  C71  1  0.02943833  0.43599873  0.24707623  1  0  0.045981  0  3.661936  0  0  -0.006416  0  3.936788  0  0  -0.002492  0  3.948032  0  0.282338  0  -0.05878  -0.008729  0  3.928921  0
C  C72  1  0.85640310  0.50950758  0.87491039  1  0  -0.018895  0  3.61553  0  0  -0.075413  0  3.873103  0  0  -0.072284  0  3.884561  0  0.282891  0  -0.058614  -0.077419  0  3.865176  0
C  C73  1  0.14359978  0.49049460  0.12508730  1  0  -0.018767  0  3.615447  0  0  -0.07544  0  3.873224  0  0  -0.072308  0  3.884683  0  0.282857  0  -0.058642  -0.077447  0  3.865295  0
C  C74  1  0.90311893  0.29093074  0.00983905  1  0  -0.013774  0  3.638461  0  0  -0.076552  0  3.908124  0  0  -0.073014  0  3.91925  0  0.318174  0  -0.053491  -0.078743  0  3.90036  0
C  C75  1  0.09688837  0.70906945  0.99015598  1  0  -0.013887  0  3.638629  0  0  -0.07662  0  3.908176  0  0  -0.073085  0  3.919311  0  0.318116  0  -0.053529  -0.078807  0  3.900414  0
C  C76  1  0.04398200  0.20373913  0.97509555  1  0  0.039055  0  3.644562  0  0  -0.025041  0  3.92215  0  0  -0.020932  0  3.932917  0  0.293491  0  -0.053248  -0.027678  0  3.914653  0
C  C77  1  0.95602745  0.79626106  0.02489639  1  0  0.039067  0  3.64487  0  0  -0.025076  0  3.922474  0  0  -0.020971  0  3.93324  0  0.293761  0  -0.053338  -0.02771  0  3.914975  0
C  C78  1  0.21201568  0.29254013  0.52649574  1  0  0.044684  0  3.669618  0  0  -0.007673  0  3.935852  0  0  -0.0037  0  3.94779  0  0.297406  0  -0.062161  -0.010192  0  3.927758  0
C  C79  1  0.78798311  0.70745808  0.47351436  1  0  0.044731  0  3.669614  0  0  -0.00767  0  3.935969  0  0  -0.003693  0  3.947899  0  0.29773  0  -0.062166  -0.010192  0  3.927884  0
C  C80  1  0.12626389  0.16630553  0.58635733  1  0  -0.003519  0  3.636165  0  0  -0.061185  0  3.891319  0  0  -0.057773  0  3.904257  0  0.31461  0  -0.05542  -0.063617  0  3.882344  0
C  C81  1  0.87373593  0.83369367  0.41364826  1  0  -0.003462  0  3.636033  0  0  -0.061129  0  3.891294  0  0  -0.057716  0  3.904226  0  0.314567  0  -0.055402  -0.063573  0  3.882331  0
C  C82  1  0.31511665  0.16981304  0.65007860  1  0  0.398173  0  3.919755  0  0  0.362954  0  4.20927  0  0  0.38781  0  4.216426  0  0.848585  0  0.216373  0.346112  0  4.203889  0
C  C83  1  0.68488569  0.83017921  0.34992413  1  0  0.398134  0  3.919778  0  0  0.362895  0  4.209323  0  0  0.387752  0  4.216481  0  0.848027  0  0.216366  0.346055  0  4.203937  0
C  C84  1  0.17317905  0.96468002  0.72437256  1  0  -0.033445  0  3.724264  0  0  -0.098575  0  3.991932  0  0  -0.094903  0  4.004669  0  0.303768  0  -0.068869  -0.100917  0  3.983236  0
C  C85  1  0.82682092  0.03531620  0.27562783  1  0  -0.033412  0  3.724142  0  0  -0.098557  0  3.991877  0  0  -0.094864  0  4.004609  0  0.303663  0  -0.0689  -0.100898  0  3.983177  0
C  C86  1  0.22299538  0.84862563  0.65529746  1  0  0.077186  0  3.674477  0  0  0.020753  0  3.948237  0  0  0.024083  0  3.960339  0  0.311142  0  -0.065015  0.018658  0  3.939781  0
C  C87  1  0.77700341  0.15137257  0.34470297  1  0  0.077159  0  3.674518  0  0  0.020767  0  3.948239  0  0  0.024074  0  3.960339  0  0.311162  0  -0.065013  0.018671  0  3.939788  0
S  S88  1  0.42471432  0.11496096  0.72887639  1  0  -0.594974  0  1.792867  0  0  -0.582731  0  2.075544  0  0  -0.596136  0  2.065054  0  -0.374469  0  -0.263207  -0.57253  0  2.081792  0
S  S89  1  0.57528828  0.88502633  0.27112306  1  0  -0.595008  0  1.792857  0  0  -0.582743  0  2.075539  0  0  -0.596148  0  2.065049  0  -0.374346  0  -0.263212  -0.572541  0  2.081786  0
N  N90  1  0.46458401  0.53109934  0.65823955  1  0  -0.777476  0  3.040876  0  0  -0.716902  0  3.330411  0  0  -0.73544  0  3.333563  0  -1.299639  0  -0.565686  -0.704672  0  3.328549  0
N  N91  1  0.53540934  0.46889985  0.34176242  1  0  -0.777439  0  3.040855  0  0  -0.716886  0  3.330422  0  0  -0.735429  0  3.33358  0  -1.299549  0  -0.565683  -0.704663  0  3.328562  0
N  N92  1  0.67060862  0.40272254  0.54411405  1  0  -0.763348  0  3.014716  0  0  -0.70222  0  3.30019  0  0  -0.721086  0  3.304063  0  -1.271503  0  -0.556224  -0.68912  0  3.297303  0
N  N93  1  0.32938888  0.59727964  0.45588613  1  0  -0.763304  0  3.014646  0  0  -0.702178  0  3.300201  0  0  -0.721044  0  3.304079  0  -1.271794  0  -0.556194  -0.689071  0  3.297312  0
N  N94  1  0.63557589  0.43125590  0.73289869  1  0  -0.280758  0  3.252462  0  0  -0.19605  0  3.503657  0  0  -0.214427  0  3.521536  0  -1.106312  0  -0.313534  -0.183307  0  3.49083  0
N  N95  1  0.36442258  0.56874826  0.26710005  1  0  -0.280746  0  3.252597  0  0  -0.196029  0  3.503821  0  0  -0.214396  0  3.521695  0  -1.106172  0  -0.313548  -0.183287  0  3.490991  0
N  N96  1  0.10909017  0.49432656  0.75125684  1  0  -0.61935  0  2.927462  0  0  -0.575719  0  3.22058  0  0  -0.593227  0  3.226516  0  -1.212783  0  -0.469784  -0.563916  0  3.21637  0
N  N97  1  0.89090691  0.50568355  0.24874215  1  0  -0.619305  0  2.927354  0  0  -0.575694  0  3.220499  0  0  -0.5932  0  3.226432  0  -1.212688  0  -0.469747  -0.563894  0  3.216295  0
N  N98  1  0.14657243  0.29666678  0.88484262  1  0  -0.456045  0  3.214822  0  0  -0.399249  0  3.466017  0  0  -0.418006  0  3.472222  0  -1.213686  0  -0.427579  -0.386414  0  3.461417  0
N  N99  1  0.85343030  0.70333837  0.11515220  1  0  -0.455952  0  3.214864  0  0  -0.399091  0  3.465966  0  0  -0.417849  0  3.472176  0  -1.213389  0  -0.4275  -0.38625  0  3.461359  0
N  N100  1  0.92384168  0.37803702  0.89701144  1  0  -0.265261  0  3.287197  0  0  -0.18036  0  3.535039  0  0  -0.198506  0  3.551998  0  -1.137728  0  -0.305016  -0.167801  0  3.522868  0
N  N101  1  0.07616443  0.62196516  0.10298685  1  0  -0.265361  0  3.287151  0  0  -0.18045  0  3.535026  0  0  -0.198596  0  3.551986  0  -1.137804  0  -0.304994  -0.167888  0  3.522851  0
N  N102  1  0.31801150  0.28864962  0.58327504  1  0  -0.689744  0  3.058086  0  0  -0.627743  0  3.340817  0  0  -0.646468  0  3.349071  0  -1.236557  0  -0.535711  -0.614989  0  3.335093  0
N  N103  1  0.68198971  0.71134362  0.41673433  1  0  -0.689768  0  3.05828  0  0  -0.627717  0  3.341007  0  0  -0.646445  0  3.349271  0  -1.236272  0  -0.535647  -0.614961  0  3.335277  0
N  N104  1  0.21379918  0.09070110  0.64957408  1  0  -0.214486  0  3.411233  0  0  -0.117886  0  3.642065  0  0  -0.137716  0  3.664635  0  -1.159367  0  -0.300451  -0.104042  0  3.626163  0
N  N105  1  0.78620197  0.90929313  0.35042708  1  0  -0.21451  0  3.411138  0  0  -0.117892  0  3.642008  0  0  -0.137727  0  3.664572  0  -1.159188  0  -0.300511  -0.104047  0  3.626106  0
N  N106  1  0.37771848  0.84551501  0.58296010  1  0  -0.692466  0  3.044596  0  0  -0.660854  0  3.284884  0  0  -0.67346  0  3.283963  0  -1.151179  0  -0.705631  -0.651849  0  3.285362  0
N  N107  1  0.62228257  0.15448121  0.41703915  1  0  -0.692431  0  3.044564  0  0  -0.660818  0  3.28484  0  0  -0.673427  0  3.283931  0  -1.151262  0  -0.705676  -0.651819  0  3.285318  0
