# generated using pymatgen
data_Er2H9C27N(O7F6)2
_symmetry_space_group_name_H-M   'P 1'
_cell_length_a   11.69581457
_cell_length_b   11.88172713
_cell_length_c   14.24445960
_cell_angle_alpha   109.90652870
_cell_angle_beta   100.08356693
_cell_angle_gamma   101.09059794
_symmetry_Int_Tables_number   1
_chemical_formula_structural   Er2H9C27N(O7F6)2
_chemical_formula_sum   'Er4 H18 C54 N2 O28 F24'
_cell_volume   1763.28753969
_cell_formula_units_Z   2
loop_
 _symmetry_equiv_pos_site_id
 _symmetry_equiv_pos_as_xyz
  1  'x, y, z'
loop_
 _atom_site_type_symbol
 _atom_site_label
 _atom_site_symmetry_multiplicity
 _atom_site_fract_x
 _atom_site_fract_y
 _atom_site_fract_z
 _atom_site_occupancy
 _atom_site_pbe_bader_charge
 _atom_site_pbe_bader_spin_density
 _atom_site_pbe_cm5_charge
 _atom_site_pbe_ddec_charge
 _atom_site_pbe_ddec_spin_density
 _atom_site_pbe_ddec_sum_bond_order
 _atom_site_pbe_magmom
Er  Er0  1  0.90176903  0.02876113  0.89683151  1  2.187607  0  1.532791  2.113674  0  2.124668  0
Er  Er1  1  0.58192176  0.91467956  0.56708626  1  2.18964  0  1.536334  2.099109  0  2.148666  0
Er  Er2  1  0.09823298  0.97124448  0.10316737  1  2.187754  0  1.532851  2.113696  0  2.124577  0
Er  Er3  1  0.41807963  0.08532043  0.43291512  1  2.189663  0  1.536368  2.099168  0  2.148665  0
H  H4  1  0.78768200  0.16346050  0.77128038  1  0.648905  0  0.302853  0.41123  0  0.918286  0
H  H5  1  0.91859529  0.24532752  0.84461840  1  0.618813  0  0.337888  0.432018  0  0.849833  0
H  H6  1  0.58610181  0.64005607  0.39208284  1  0.11841  0  0.127048  0.051614  0  1.029592  0
H  H7  1  0.69383024  0.60540921  0.63097698  1  0.114239  0  0.114812  0.142998  0  0.99191  0
H  H8  1  0.63782899  0.43853432  0.56496723  1  0.071533  0  0.104768  0.122579  0  1.017183  0
H  H9  1  0.78745229  0.51556468  0.57178299  1  0.069859  0  0.104659  0.124425  0  0.997276  0
H  H10  1  0.61219769  0.46374670  0.30766800  1  0.077976  0  0.110066  0.126404  0  0.996784  0
H  H11  1  0.73962549  0.43152061  0.37280667  1  0.078582  0  0.106171  0.12872  0  0.981646  0
H  H12  1  0.59106964  0.35183459  0.36589044  1  0.123415  0  0.110967  0.141772  0  1.001594  0
H  H13  1  0.21231493  0.83654232  0.22871838  1  0.648762  0  0.302859  0.411273  0  0.918222  0
H  H14  1  0.08140213  0.75467717  0.15537886  1  0.618879  0  0.337889  0.432017  0  0.849846  0
H  H15  1  0.41388879  0.35993929  0.60791778  1  0.118589  0  0.127076  0.051679  0  1.029636  0
H  H16  1  0.30615628  0.39458708  0.36902613  1  0.11421  0  0.114811  0.143031  0  0.991986  0
H  H17  1  0.36216101  0.56146196  0.43503638  1  0.071646  0  0.104835  0.122657  0  1.017223  0
H  H18  1  0.21253584  0.48443438  0.42822256  1  0.069824  0  0.10464  0.12448  0  0.997156  0
H  H19  1  0.38778920  0.53624772  0.69233533  1  0.077914  0  0.110098  0.126421  0  0.996782  0
H  H20  1  0.26036202  0.56847286  0.62719858  1  0.082783  0  0.106188  0.128729  0  0.981439  0
H  H21  1  0.40891775  0.64816168  0.63411490  1  0.124001  0  0.110985  0.141796  0  1.001604  0
C  C22  1  0.89466685  0.74936868  0.90467784  1  1.667567  0  0.240343  0.693903  0  4.134601  0
C  C23  1  0.83066352  0.61248850  0.84851429  1  0.061661  0  -0.017456  -0.19614  0  3.977145  0
C  C24  1  0.70910259  0.56828766  0.84313413  1  0.614403  0  0.097813  0.164673  0  4.078927  0
C  C25  1  0.64670652  0.44379381  0.78686127  1  0.499933  0  0.092681  0.1585  0  4.083211  0
C  C26  1  0.70340851  0.35847313  0.73354393  1  0.063286  0  -0.025788  -0.221572  0  4.01718  0
C  C27  1  0.82551942  0.40272246  0.74055794  1  0.555179  0  0.089378  0.145926  0  4.090633  0
C  C28  1  0.88808672  0.52750533  0.79666753  1  0.526401  0  0.096205  0.162508  0  4.091565  0
C  C29  1  0.63212354  0.22865135  0.66004983  1  1.64792  0  0.24187  0.686049  0  4.12131  0
C  C30  1  0.14201100  0.03297643  0.88921661  1  1.597287  0  0.217208  0.660295  0  4.142942  0
C  C31  1  0.26449362  0.02135567  0.87879403  1  0.07935  0  -0.023189  -0.213849  0  3.981094  0
C  C32  1  0.29789843  0.91147854  0.86911137  1  0.590794  0  0.101191  0.177398  0  4.072618  0
C  C33  1  0.41111318  0.90059536  0.85616032  1  0.493872  0  0.094129  0.151933  0  4.088401  0
C  C34  1  0.49506792  0.99801228  0.85211398  1  0.123676  0  -0.016477  -0.203016  0  4.007696  0
C  C35  1  0.46311061  0.10798850  0.86319849  1  0.529775  0  0.093592  0.151417  0  4.081702  0
C  C36  1  0.34988406  0.11978090  0.87556701  1  0.560403  0  0.099687  0.171149  0  4.079644  0
C  C37  1  0.61390387  0.98367856  0.82833494  1  1.673292  0  0.252682  0.714461  0  4.119765  0
C  C38  1  0.86742310  0.93272572  0.64004081  1  1.691073  0  0.249591  0.706172  0  4.136748  0
C  C39  1  0.98581286  0.92652269  0.61220731  1  0.135425  0  -0.015751  -0.197588  0  3.99266  0
C  C40  1  0.01652589  0.81442370  0.58203184  1  0.495369  0  0.091322  0.153503  0  4.085619  0
C  C41  1  0.13079040  0.80915503  0.56941826  1  0.539255  0  0.100333  0.17492  0  4.066215  0
C  C42  1  0.22002549  0.91738341  0.58758438  1  0.150468  0  -0.026948  -0.223787  0  3.988831  0
C  C43  1  0.18800305  0.02998714  0.61714061  1  0.54174  0  0.101506  0.182654  0  4.057245  0
C  C44  1  0.07246506  0.03376722  0.62727067  1  0.531591  0  0.095919  0.164057  0  4.087258  0
C  C45  1  0.34345202  0.91160383  0.57767669  1  1.578478  0  0.215098  0.655672  0  4.153464  0
C  C46  1  0.61538237  0.63841190  0.46924079  1  1.374152  0  0.185386  0.318722  0  4.079854  0
C  C47  1  0.69483502  0.52395807  0.56565035  1  0.242503  0  -0.136055  -0.285988  0  3.871053  0
C  C48  1  0.64802761  0.44081576  0.37317139  1  0.242862  0  -0.127104  -0.285783  0  3.881546  0
C  C49  1  0.10533541  0.25063784  0.09532274  1  1.667582  0  0.24033  0.693887  0  4.134199  0
C  C50  1  0.16933998  0.38751614  0.15148803  1  0.061757  0  -0.017528  -0.196297  0  3.977297  0
C  C51  1  0.29089968  0.43171230  0.15687228  1  0.614314  0  0.097814  0.164664  0  4.07916  0
C  C52  1  0.35329301  0.55620245  0.21314087  1  0.499968  0  0.092698  0.158434  0  4.082928  0
C  C53  1  0.29659165  0.64152873  0.26645781  1  0.06333  0  -0.025793  -0.221475  0  4.017144  0
C  C54  1  0.17448297  0.59728128  0.25944045  1  0.555348  0  0.089212  0.145598  0  4.090862  0
C  C55  1  0.11191270  0.47250028  0.20333168  1  0.526479  0  0.09625  0.162698  0  4.091527  0
C  C56  1  0.36787724  0.77134956  0.33995384  1  1.647961  0  0.241882  0.685964  0  4.121486  0
C  C57  1  0.85799511  0.96702822  0.11078398  1  1.597747  0  0.21721  0.660271  0  4.142659  0
C  C58  1  0.73551336  0.97864895  0.12121089  1  0.079246  0  -0.023191  -0.213662  0  3.980966  0
C  C59  1  0.70210123  0.08852149  0.13088557  1  0.590956  0  0.101268  0.177425  0  4.072357  0
C  C60  1  0.58888635  0.09940093  0.14383692  1  0.493971  0  0.094185  0.151908  0  4.088579  0
C  C61  1  0.50493446  0.00198491  0.14788674  1  0.123824  0  -0.01656  -0.203051  0  4.007925  0
C  C62  1  0.53689909  0.89201331  0.13680670  1  0.529603  0  0.09366  0.151418  0  4.081688  0
C  C63  1  0.65012675  0.88022182  0.12444001  1  0.560582  0  0.099633  0.170939  0  4.079724  0
C  C64  1  0.38610174  0.01631771  0.17166317  1  1.673206  0  0.252683  0.714517  0  4.119828  0
C  C65  1  0.13258089  0.06727430  0.35995534  1  1.691144  0  0.249604  0.706151  0  4.136684  0
C  C66  1  0.01418927  0.07347361  0.38778750  1  0.135482  0  -0.015703  -0.197571  0  3.992826  0
C  C67  1  0.98347599  0.18557166  0.41796407  1  0.495086  0  0.091313  0.153522  0  4.085905  0
C  C68  1  0.86921248  0.19083753  0.43057768  1  0.539844  0  0.100273  0.174836  0  4.066446  0
C  C69  1  0.77997578  0.08261289  0.41241100  1  0.150274  0  -0.026957  -0.2238  0  3.988851  0
C  C70  1  0.81199622  0.97000825  0.38285213  1  0.541252  0  0.101552  0.182724  0  4.057173  0
C  C71  1  0.92753484  0.96622725  0.37271979  1  0.532168  0  0.095805  0.163837  0  4.087472  0
C  C72  1  0.65655284  0.08839616  0.42232378  1  1.578685  0  0.215115  0.655703  0  4.153363  0
C  C73  1  0.38460986  0.36159274  0.53076625  1  1.373867  0  0.185359  0.318673  0  4.079992  0
C  C74  1  0.30515150  0.47603822  0.43435206  1  0.242438  0  -0.136099  -0.286107  0  3.871096  0
C  C75  1  0.35196474  0.55917958  0.62683158  1  0.238137  0  -0.127153  -0.285797  0  3.881432  0
N  N76  1  0.65082929  0.53899055  0.46970079  1  -1.216052  0  -0.269592  0.055379  0  3.708253  0
N  N77  1  0.34915996  0.46100292  0.53030330  1  -1.216087  0  -0.269528  0.055413  0  3.708667  0
O  O78  1  0.85013815  0.82014350  0.86941528  1  -1.165001  0  -0.375147  -0.634056  0  2.267877  0
O  O79  1  0.98435795  0.77932502  0.98100894  1  -1.167151  0  -0.382284  -0.640649  0  2.25549  0
O  O80  1  0.66917448  0.13735459  0.66755015  1  -1.172254  0  -0.339875  -0.632462  0  2.310293  0
O  O81  1  0.54209907  0.22288792  0.59337031  1  -1.179501  0  -0.373046  -0.647233  0  2.353579  0
O  O82  1  0.08885629  0.09136088  0.84570845  1  -1.142591  0  -0.335804  -0.591418  0  2.23128  0
O  O83  1  0.08950684  0.97880027  0.94137355  1  -1.199293  0  -0.450184  -0.779141  0  2.473726  0
O  O84  1  0.70331739  0.00749213  0.90268416  1  -1.166822  0  -0.370807  -0.623508  0  2.238498  0
O  O85  1  0.61470926  0.95065312  0.73451808  1  -1.179588  0  -0.395347  -0.662226  0  2.360251  0
O  O86  1  0.86214020  0.92347809  0.72477842  1  -1.169038  0  -0.388033  -0.658302  0  2.342674  0
O  O87  1  0.78468080  0.94546173  0.57771636  1  -1.182573  0  -0.380329  -0.64536  0  2.297308  0
O  O88  1  0.40688881  0.99385371  0.55263078  1  -1.20755  0  -0.45616  -0.781302  0  2.469939  0
O  O89  1  0.38750248  0.82987351  0.59488933  1  -1.14595  0  -0.337044  -0.586292  0  2.222629  0
O  O90  1  0.61310386  0.72568940  0.54950348  1  -1.182766  0  -0.391036  -0.567309  0  2.366936  0
O  O91  1  0.85078456  0.17664914  0.83416723  1  -1.230746  0  -0.631165  -0.855359  0  2.063051  0
O  O92  1  0.14985965  0.17985936  0.13057869  1  -1.164904  0  -0.375094  -0.633982  0  2.267846  0
O  O93  1  0.01564196  0.22068247  0.01898808  1  -1.167265  0  -0.382288  -0.640667  0  2.255129  0
O  O94  1  0.33082184  0.86264911  0.33245579  1  -1.172301  0  -0.339883  -0.63248  0  2.310327  0
O  O95  1  0.45789997  0.77711303  0.40662890  1  -1.179576  0  -0.373041  -0.647183  0  2.353729  0
O  O96  1  0.91115701  0.90865121  0.15429320  1  -1.14288  0  -0.335787  -0.591398  0  2.23127  0
O  O97  1  0.91049430  0.02120535  0.05862240  1  -1.199535  0  -0.450236  -0.779194  0  2.473529  0
O  O98  1  0.29668251  0.99249572  0.09731983  1  -1.166748  0  -0.370776  -0.623539  0  2.238665  0
O  O99  1  0.38529337  0.04934502  0.26548083  1  -1.179486  0  -0.395345  -0.662188  0  2.360105  0
O  O100  1  0.13786765  0.07652655  0.27522241  1  -1.169019  0  -0.387955  -0.658114  0  2.342592  0
O  O101  1  0.21532246  0.05453546  0.42228448  1  -1.1826  0  -0.380473  -0.645556  0  2.297269  0
O  O102  1  0.59311407  0.00615187  0.44737103  1  -1.207663  0  -0.456216  -0.781332  0  2.469886  0
O  O103  1  0.61250078  0.17013020  0.40511270  1  -1.145923  0  -0.337028  -0.586305  0  2.222538  0
O  O104  1  0.38689419  0.27430782  0.45049522  1  -1.182573  0  -0.391098  -0.567413  0  2.366661  0
O  O105  1  0.14921461  0.82335554  0.16583168  1  -1.230641  0  -0.631178  -0.855387  0  2.063068  0
F  F106  1  0.64956962  0.64696125  0.89228157  1  -0.615232  0  -0.082891  -0.099052  0  1.38666  0
F  F107  1  0.52847860  0.40675298  0.78314224  1  -0.618183  0  -0.07845  -0.103161  0  1.396995  0
F  F108  1  0.88447196  0.32472834  0.68819072  1  -0.620921  0  -0.087609  -0.109235  0  1.392593  0
F  F109  1  0.00458191  0.56622937  0.79658859  1  -0.613965  0  -0.087749  -0.103805  0  1.35756  0
F  F110  1  0.21940375  0.81150777  0.86801190  1  -0.616942  0  -0.073768  -0.093139  0  1.395245  0
F  F111  1  0.43891287  0.79198355  0.84532093  1  -0.614243  0  -0.083156  -0.101353  0  1.36489  0
F  F112  1  0.54325223  0.20513591  0.86067426  1  -0.618703  0  -0.084696  -0.099811  0  1.378244  0
F  F113  1  0.32524711  0.22874233  0.88566722  1  -0.60631  0  -0.081623  -0.094083  0  1.401073  0
F  F114  1  0.93388656  0.70769656  0.56534157  1  -0.624978  0  -0.083402  -0.104657  0  1.375148  0
F  F115  1  0.15254688  0.69633964  0.53780901  1  -0.615791  0  -0.07957  -0.104879  0  1.416639  0
F  F116  1  0.27038835  0.13908675  0.64206452  1  -0.621608  0  -0.071215  -0.096473  0  1.413085  0
F  F117  1  0.04594095  0.14440085  0.65597702  1  -0.612927  0  -0.085563  -0.101858  0  1.379725  0
F  F118  1  0.35043512  0.35304145  0.10773090  1  -0.615224  0  -0.082821  -0.098948  0  1.386801  0
F  F119  1  0.47152664  0.59324507  0.21686826  1  -0.618171  0  -0.078492  -0.103139  0  1.396828  0
F  F120  1  0.11552473  0.67528015  0.31179770  1  -0.62119  0  -0.087513  -0.109122  0  1.392613  0
F  F121  1  0.99541514  0.43377723  0.20340355  1  -0.614073  0  -0.087743  -0.103795  0  1.357491  0
F  F122  1  0.78059243  0.18848581  0.13197426  1  -0.617222  0  -0.073829  -0.093167  0  1.395154  0
F  F123  1  0.56108554  0.20801184  0.15467238  1  -0.61441  0  -0.08318  -0.101353  0  1.365019  0
F  F124  1  0.45675697  0.79486403  0.13933103  1  -0.618671  0  -0.084734  -0.099806  0  1.378128  0
F  F125  1  0.67476457  0.77126038  0.11434132  1  -0.606396  0  -0.08157  -0.093995  0  1.401129  0
F  F126  1  0.06611669  0.29230067  0.43465437  1  -0.624987  0  -0.08341  -0.104692  0  1.375092  0
F  F127  1  0.84745364  0.30365386  0.46218686  1  -0.616107  0  -0.079497  -0.104801  0  1.416591  0
F  F128  1  0.72961564  0.86090673  0.35793254  1  -0.621623  0  -0.071213  -0.096432  0  1.412974  0
F  F129  1  0.95406292  0.85559549  0.34401243  1  -0.613016  0  -0.085512  -0.101768  0  1.379845  0
