# generated using pymatgen
data_CdH12C9S(NO)6
_symmetry_space_group_name_H-M   'P 1'
_cell_length_a   7.64736014
_cell_length_b   8.40918265
_cell_length_c   12.87072092
_cell_angle_alpha   72.36700246
_cell_angle_beta   86.12476159
_cell_angle_gamma   68.65609146
_symmetry_Int_Tables_number   1
_chemical_formula_structural   CdH12C9S(NO)6
_chemical_formula_sum   'Cd2 H24 C18 S2 N12 O12'
_cell_volume   733.85177850
_cell_formula_units_Z   2
loop_
 _symmetry_equiv_pos_site_id
 _symmetry_equiv_pos_as_xyz
  1  'x, y, z'
loop_
 _atom_site_type_symbol
 _atom_site_label
 _atom_site_symmetry_multiplicity
 _atom_site_fract_x
 _atom_site_fract_y
 _atom_site_fract_z
 _atom_site_occupancy
 _atom_site_hle17_bader_spin_density
 _atom_site_hle17_ddec_charge
 _atom_site_hle17_ddec_spin_density
 _atom_site_hle17_ddec_sum_bond_order
 _atom_site_hle17_magmom
 _atom_site_hse06_10hf_bader_spin_density
 _atom_site_hse06_10hf_ddec_charge
 _atom_site_hse06_10hf_ddec_spin_density
 _atom_site_hse06_10hf_ddec_sum_bond_order
 _atom_site_hse06_10hf_magmom
 _atom_site_hse06_bader_spin_density
 _atom_site_hse06_ddec_charge
 _atom_site_hse06_ddec_spin_density
 _atom_site_hse06_ddec_sum_bond_order
 _atom_site_hse06_magmom
 _atom_site_pbe_bader_spin_density
 _atom_site_pbe_cm5_charge
 _atom_site_pbe_ddec_charge
 _atom_site_pbe_ddec_spin_density
 _atom_site_pbe_ddec_sum_bond_order
 _atom_site_pbe_magmom
Cd  Cd0  1  0.18707303  0.95325312  0.67810705  1  0  1.184414  0  1.682505  0  0  1.00509  0  2.135352  0  0  1.055661  0  2.082719  0  0  0.79286  0.969016  0  2.171497  0
Cd  Cd1  1  0.81292392  0.04675398  0.32188916  1  0  1.184415  0  1.682515  0  0  1.005082  0  2.135351  0  0  1.055644  0  2.082742  0  0  0.792839  0.969012  0  2.171502  0
H  H2  1  0.04204847  0.24165747  0.00828488  1  0  0.300391  0  0.927259  0  0  0.267753  0  1.018663  0  0  0.27639  0  1.010863  0  0  0.315561  0.261648  0  1.024186  0
H  H3  1  0.95796204  0.75833738  0.99171330  1  0  0.300318  0  0.927436  0  0  0.267691  0  1.018832  0  0  0.276325  0  1.011029  0  0  0.315516  0.261597  0  1.024351  0
H  H4  1  0.14381477  0.56438910  0.63985368  1  0  0.155213  0  0.884399  0  0  0.166654  0  0.935772  0  0  0.169569  0  0.932456  0  0  0.168443  0.164413  0  0.938257  0
H  H5  1  0.85618308  0.43561531  0.36014458  1  0  0.155245  0  0.884385  0  0  0.166681  0  0.93575  0  0  0.169598  0  0.93243  0  0  0.168447  0.164441  0  0.938234  0
H  H6  1  0.59064494  0.81949157  0.66270453  1  0  0.432024  0  0.869872  0  0  0.39836  0  0.937601  0  0  0.409408  0  0.921581  0  0  0.284997  0.390547  0  0.948895  0
H  H7  1  0.40934832  0.18051422  0.33729747  1  0  0.432008  0  0.869894  0  0  0.398341  0  0.937617  0  0  0.409387  0  0.9216  0  0  0.285015  0.390528  0  0.94891  0
H  H8  1  0.48093406  0.71498498  0.62817599  1  0  0.420101  0  0.845059  0  0  0.398075  0  0.906403  0  0  0.407393  0  0.895756  0  0  0.303077  0.391361  0  0.914084  0
H  H9  1  0.51906734  0.28501668  0.37182424  1  0  0.420078  0  0.845087  0  0  0.398045  0  0.906445  0  0  0.407365  0  0.895795  0  0  0.303058  0.391335  0  0.914124  0
H  H10  1  0.22131965  0.18067710  0.49361844  1  0  0.416115  0  0.89274  0  0  0.385491  0  0.956074  0  0  0.395949  0  0.940892  0  0  0.281951  0.378077  0  0.966813  0
H  H11  1  0.77867503  0.81933927  0.50638230  1  0  0.416163  0  0.892678  0  0  0.385588  0  0.955942  0  0  0.396046  0  0.940762  0  0  0.281983  0.378172  0  0.966686  0
H  H12  1  0.34234679  0.21415999  0.57587579  1  0  0.423404  0  0.886163  0  0  0.390391  0  0.953245  0  0  0.401431  0  0.937332  0  0  0.278999  0.382573  0  0.964472  0
H  H13  1  0.65765053  0.78585632  0.42412489  1  0  0.42345  0  0.886088  0  0  0.390448  0  0.953158  0  0  0.401482  0  0.937253  0  0  0.279029  0.382632  0  0.964384  0
H  H14  1  0.29526128  0.97506034  0.18249364  1  0  0.12035  0  0.963668  0  0  0.125283  0  1.030884  0  0  0.128622  0  1.028674  0  0  0.105084  0.122814  0  1.032633  0
H  H15  1  0.70474830  0.02493720  0.81750328  1  0  0.120323  0  0.963647  0  0  0.125225  0  1.030901  0  0  0.128564  0  1.028692  0  0  0.105043  0.122755  0  1.032649  0
H  H16  1  0.54870277  0.67865495  0.21895934  1  0  0.091498  0  0.962432  0  0  0.100738  0  1.027037  0  0  0.103147  0  1.026137  0  0  0.094981  0.098994  0  1.027724  0
H  H17  1  0.45130162  0.32133872  0.78103922  1  0  0.091506  0  0.962416  0  0  0.100779  0  1.026975  0  0  0.103189  0  1.026079  0  0  0.094991  0.099035  0  1.027659  0
H  H18  1  0.65566251  0.53375260  0.07079431  1  0  0.076894  0  0.993027  0  0  0.081841  0  1.067173  0  0  0.083761  0  1.067645  0  0  0.09014  0.080458  0  1.066931  0
H  H19  1  0.34434016  0.46622384  0.92920832  1  0  0.076925  0  0.992983  0  0  0.08182  0  1.067237  0  0  0.083764  0  1.067627  0  0  0.090144  0.080429  0  1.067012  0
H  H20  1  0.50771440  0.68226319  0.88336887  1  0  0.115286  0  0.969564  0  0  0.124047  0  1.033447  0  0  0.126977  0  1.031677  0  0  0.101421  0.121875  0  1.034881  0
H  H21  1  0.49228008  0.31772138  0.11663321  1  0  0.115272  0  0.969614  0  0  0.124075  0  1.033441  0  0  0.127008  0  1.031667  0  0  0.101425  0.121897  0  1.034884  0
H  H22  1  0.97057592  0.32013728  0.69762453  1  0  0.14813  0  0.914355  0  0  0.159686  0  0.971257  0  0  0.162264  0  0.968747  0  0  0.137086  0.157759  0  0.973158  0
H  H23  1  0.02942916  0.67986167  0.30237379  1  0  0.148226  0  0.914277  0  0  0.159765  0  0.971191  0  0  0.16234  0  0.968683  0  0  0.137133  0.157839  0  0.973093  0
H  H24  1  0.80739633  0.35127679  0.80153242  1  0  0.130066  0  0.917005  0  0  0.140879  0  0.977682  0  0  0.143185  0  0.976599  0  0  0.130727  0.139264  0  0.978416  0
H  H25  1  0.19261067  0.64871681  0.19846686  1  0  0.130087  0  0.91706  0  0  0.140912  0  0.977716  0  0  0.143246  0  0.9766  0  0  0.130742  0.139298  0  0.97845  0
C  C26  1  0.08664644  0.58205855  0.71687252  1  0  0.18726  0  3.565345  0  0  0.108665  0  3.833814  0  0  0.121525  0  3.84451  0  0  0.198613  0.100582  0  3.826367  0
C  C27  1  0.91335057  0.41794455  0.28312600  1  0  0.187173  0  3.565373  0  0  0.108629  0  3.833805  0  0  0.121493  0  3.844488  0  0  0.198626  0.100545  0  3.826363  0
C  C28  1  0.25660550  0.99211777  0.01289919  1  0  0.157498  0  3.791215  0  0  0.152508  0  4.030185  0  0  0.156044  0  4.053626  0  0  0.094336  0.150063  0  4.014489  0
C  C29  1  0.74340100  0.00787314  0.98710450  1  0  0.157327  0  3.791336  0  0  0.15231  0  4.030308  0  0  0.155843  0  4.053751  0  0  0.094281  0.149886  0  4.014615  0
C  C30  1  0.34068838  0.91258318  0.11791774  1  0  -0.141568  0  3.72682  0  0  -0.159419  0  3.979185  0  0  -0.162507  0  3.999413  0  0  -0.094918  -0.157322  0  3.965688  0
C  C31  1  0.65931544  0.08741180  0.88208291  1  0  -0.141472  0  3.726602  0  0  -0.159292  0  3.978975  0  0  -0.162378  0  3.999205  0  0  -0.094825  -0.157193  0  3.965471  0
C  C32  1  0.48362635  0.74545555  0.13686117  1  0  -0.07307  0  3.771789  0  0  -0.092308  0  4.032885  0  0  -0.094341  0  4.055173  0  0  -0.101841  -0.090856  0  4.01773  0
C  C33  1  0.51636847  0.25454224  0.86314230  1  0  -0.073099  0  3.771691  0  0  -0.092355  0  4.032767  0  0  -0.094394  0  4.05506  0  0  -0.101856  -0.0909  0  4.017598  0
C  C34  1  0.54252656  0.66373346  0.05328129  1  0  -0.081611  0  3.796803  0  0  -0.100948  0  4.059765  0  0  -0.103635  0  4.083718  0  0  -0.106771  -0.099033  0  4.04339  0
C  C35  1  0.45746642  0.33625511  0.94672163  1  0  -0.081567  0  3.796931  0  0  -0.100901  0  4.059866  0  0  -0.103573  0  4.083825  0  0  -0.106793  -0.098993  0  4.043514  0
C  C36  1  0.45963497  0.74419201  0.94820520  1  0  -0.145852  0  3.738552  0  0  -0.162795  0  3.985445  0  0  -0.165924  0  4.006394  0  0  -0.097498  -0.160554  0  3.971227  0
C  C37  1  0.54036402  0.25580575  0.05179272  1  0  -0.145886  0  3.738627  0  0  -0.162895  0  3.985504  0  0  -0.166017  0  4.006432  0  0  -0.097535  -0.160657  0  3.971304  0
C  C38  1  0.31367437  0.91075117  0.92858726  1  0  0.144246  0  3.832364  0  0  0.141555  0  4.077269  0  0  0.144603  0  4.101957  0  0  0.080967  0.139419  0  4.060615  0
C  C39  1  0.68631810  0.08924275  0.07141233  1  0  0.144363  0  3.83239  0  0  0.141748  0  4.077182  0  0  0.1448  0  4.101862  0  0  0.081025  0.139612  0  4.060527  0
C  C40  1  0.08916059  0.16849722  0.85930159  1  0  0.393594  0  3.689783  0  0  0.359944  0  3.972206  0  0  0.378311  0  3.984939  0  0  0.234116  0.348065  0  3.962815  0
C  C41  1  0.91085058  0.83149233  0.14069602  1  0  0.393555  0  3.69002  0  0  0.359996  0  3.972314  0  0  0.37835  0  3.985066  0  0  0.234096  0.348136  0  3.96293  0
C  C42  1  0.95384755  0.33154269  0.78052256  1  0  -0.119915  0  3.604068  0  0  -0.190593  0  3.842222  0  0  -0.18906  0  3.848075  0  0  -0.025794  -0.191249  0  3.837914  0
C  C43  1  0.04616210  0.66845085  0.21947667  1  0  -0.120079  0  3.604275  0  0  -0.190738  0  3.842377  0  0  -0.189227  0  3.848242  0  0  -0.025868  -0.191396  0  3.838075  0
S  S44  1  0.72844804  0.10866548  0.58328165  1  0  1.59617  0  5.838399  0  0  1.469957  0  6.384714  0  0  1.526507  0  6.347925  0  0  0.558923  1.430621  0  6.409057  0
S  S45  1  0.27154619  0.89135223  0.41671807  1  0  1.59585  0  5.839029  0  0  1.469647  0  6.385358  0  0  1.526199  0  6.34857  0  0  0.558618  1.430313  0  6.409697  0
N  N46  1  0.20601883  0.02504449  0.83376442  1  0  -0.486555  0  3.126687  0  0  -0.421154  0  3.405905  0  0  -0.444269  0  3.42011  0  0  -0.350753  -0.405344  0  3.395763  0
N  N47  1  0.79398489  0.97494791  0.16622972  1  0  -0.486619  0  3.126678  0  0  -0.421287  0  3.405873  0  0  -0.4444  0  3.420079  0  0  -0.350756  -0.40547  0  3.395727  0
N  N48  1  0.11350117  0.15326104  0.96611317  1  0  -0.383823  0  3.399946  0  0  -0.329104  0  3.642176  0  0  -0.347035  0  3.653915  0  0  -0.376748  -0.317037  0  3.634052  0
N  N49  1  0.88651120  0.84672844  0.03388753  1  0  -0.38358  0  3.399882  0  0  -0.328883  0  3.64203  0  0  -0.346801  0  3.653772  0  0  -0.376645  -0.316873  0  3.633952  0
N  N50  1  0.98892725  0.49037683  0.78274659  1  0  0.048577  0  3.522624  0  0  0.162191  0  3.719925  0  0  0.150686  0  3.742655  0  0  -0.10716  0.168165  0  3.707093  0
N  N51  1  0.01107741  0.50961945  0.21725380  1  0  0.04864  0  3.522597  0  0  0.162165  0  3.719982  0  0  0.150658  0  3.742717  0  0  -0.107148  0.168135  0  3.70716  0
N  N52  1  0.09669476  0.70113338  0.76206362  1  0  -0.263249  0  3.096563  0  0  -0.211299  0  3.403913  0  0  -0.22873  0  3.417417  0  0  -0.210898  -0.199547  0  3.394469  0
N  N53  1  0.90330051  0.29887110  0.23793313  1  0  -0.263218  0  3.096716  0  0  -0.21126  0  3.404026  0  0  -0.228686  0  3.417522  0  0  -0.21089  -0.199509  0  3.394587  0
N  N54  1  0.00315772  0.68056346  0.85573752  1  0  -0.045384  0  2.97542  0  0  -0.03421  0  3.28102  0  0  -0.032028  0  3.289812  0  0  -0.055008  -0.035336  0  3.274839  0
N  N55  1  0.99683811  0.31943569  0.14426100  1  0  -0.045418  0  2.975455  0  0  -0.034242  0  3.281049  0  0  -0.032059  0  3.289839  0  0  -0.055025  -0.03537  0  3.27487  0
N  N56  1  0.93750280  0.55392115  0.86920182  1  0  -0.08328  0  2.843529  0  0  -0.099151  0  3.126135  0  0  -0.097338  0  3.135291  0  0  -0.058873  -0.099894  0  3.119971  0
N  N57  1  0.06250189  0.44607514  0.13079778  1  0  -0.083289  0  2.843288  0  0  -0.099164  0  3.125947  0  0  -0.097353  0  3.135104  0  0  -0.058884  -0.099902  0  3.11978  0
O  O58  1  0.86944235  0.11425532  0.65509940  1  0  -0.751011  0  2.018812  0  0  -0.684027  0  2.298976  0  0  -0.70977  0  2.280693  0  0  -0.369856  -0.665686  0  2.311006  0
O  O59  1  0.13056283  0.88575424  0.34489770  1  0  -0.750986  0  2.018909  0  0  -0.683982  0  2.299033  0  0  -0.709721  0  2.280747  0  0  -0.369824  -0.665642  0  2.311064  0
O  O60  1  0.53958903  0.22367351  0.60444977  1  0  -0.72313  0  1.921354  0  0  -0.666621  0  2.156102  0  0  -0.687693  0  2.136562  0  0  -0.364519  -0.651657  0  2.169163  0
O  O61  1  0.46040623  0.77635212  0.39554999  1  0  -0.723026  0  1.921471  0  0  -0.666505  0  2.156217  0  0  -0.687577  0  2.136677  0  0  -0.364412  -0.651541  0  2.169274  0
O  O62  1  0.73967849  0.91824025  0.60746548  1  0  -0.786116  0  2.004784  0  0  -0.720193  0  2.247257  0  0  -0.743163  0  2.229359  0  0  -0.368573  -0.703871  0  2.259144  0
O  O63  1  0.26030508  0.08177766  0.39253680  1  0  -0.785897  0  2.004985  0  0  -0.719978  0  2.247443  0  0  -0.742949  0  2.229551  0  0  -0.368405  -0.703656  0  2.259325  0
O  O64  1  0.77164008  0.17526822  0.46627182  1  0  -0.78762  0  1.995345  0  0  -0.721225  0  2.264727  0  0  -0.745824  0  2.24401  0  0  -0.37966  -0.703702  0  2.278472  0
O  O65  1  0.22835336  0.82473761  0.53372550  1  0  -0.78755  0  1.99536  0  0  -0.721192  0  2.264779  0  0  -0.745792  0  2.24406  0  0  -0.379628  -0.703669  0  2.278525  0
O  O66  1  0.50694187  0.74866409  0.69046406  1  0  -0.822963  0  1.811533  0  0  -0.763992  0  1.995915  0  0  -0.785006  0  1.967571  0  0  -0.584236  -0.74896  0  2.01555  0
O  O67  1  0.49305328  0.25134035  0.30953580  1  0  -0.822939  0  1.811559  0  0  -0.763959  0  1.995963  0  0  -0.784978  0  1.967631  0  0  -0.58424  -0.748925  0  2.015595  0
O  O68  1  0.21467275  0.21236962  0.56285565  1  0  -0.846154  0  1.826785  0  0  -0.782123  0  2.009503  0  0  -0.805188  0  1.976629  0  0  -0.599205  -0.765714  0  2.03228  0
O  O69  1  0.78532460  0.78764268  0.43714813  1  0  -0.846227  0  1.826784  0  0  -0.78226  0  2.009439  0  0  -0.805319  0  1.976576  0  0  -0.599247  -0.76585  0  2.03222  0
