# generated using pymatgen
data_CaH18C14(NO4)2
_symmetry_space_group_name_H-M   'P 1'
_cell_length_a   9.73249214
_cell_length_b   9.61542775
_cell_length_c   10.40545666
_cell_angle_alpha   117.52851508
_cell_angle_beta   93.46055494
_cell_angle_gamma   89.99833968
_symmetry_Int_Tables_number   1
_chemical_formula_structural   CaH18C14(NO4)2
_chemical_formula_sum   'Ca2 H36 C28 N4 O16'
_cell_volume   861.51366171
_cell_formula_units_Z   2
loop_
 _symmetry_equiv_pos_site_id
 _symmetry_equiv_pos_as_xyz
  1  'x, y, z'
loop_
 _atom_site_type_symbol
 _atom_site_label
 _atom_site_symmetry_multiplicity
 _atom_site_fract_x
 _atom_site_fract_y
 _atom_site_fract_z
 _atom_site_occupancy
 _atom_site_hle17_bader_spin_density
 _atom_site_hle17_ddec_charge
 _atom_site_hle17_ddec_spin_density
 _atom_site_hle17_ddec_sum_bond_order
 _atom_site_hle17_magmom
 _atom_site_hse06_10hf_bader_spin_density
 _atom_site_hse06_10hf_ddec_charge
 _atom_site_hse06_10hf_ddec_spin_density
 _atom_site_hse06_10hf_ddec_sum_bond_order
 _atom_site_hse06_10hf_magmom
 _atom_site_hse06_bader_spin_density
 _atom_site_hse06_ddec_charge
 _atom_site_hse06_ddec_spin_density
 _atom_site_hse06_ddec_sum_bond_order
 _atom_site_hse06_magmom
 _atom_site_pbe_bader_spin_density
 _atom_site_pbe_cm5_charge
 _atom_site_pbe_ddec_charge
 _atom_site_pbe_ddec_spin_density
 _atom_site_pbe_ddec_sum_bond_order
 _atom_site_pbe_magmom
Ca  Ca0  1  0.75002326  0.92085972  0.99997984  1  0  1.553411  0  1.145623  0  0  1.4144  0  1.520816  0  0  1.459001  0  1.472045  0  0  0.902865  1.380907  0  1.556608  0
Ca  Ca1  1  0.24997643  0.07914384  0.00002543  1  0  1.553419  0  1.145655  0  0  1.414368  0  1.520907  0  0  1.458976  0  1.472135  0  0  0.90289  1.380906  0  1.556637  0
H  H2  1  0.74998006  0.27238115  0.30387045  1  0  0.38138  0  0.904842  0  0  0.354329  0  0.978774  0  0  0.366216  0  0.966061  0  0  0.303303  0.345845  0  0.987853  0
H  H3  1  0.74995382  0.96844581  0.69619299  1  0  0.381623  0  0.904117  0  0  0.35443  0  0.978411  0  0  0.366308  0  0.9657  0  0  0.303601  0.34595  0  0.98749  0
H  H4  1  0.25002068  0.72762353  0.69613636  1  0  0.381438  0  0.90476  0  0  0.354413  0  0.978673  0  0  0.366301  0  0.965953  0  0  0.30331  0.345927  0  0.987758  0
H  H5  1  0.25004095  0.03156375  0.30381279  1  0  0.381501  0  0.904294  0  0  0.354402  0  0.978452  0  0  0.366282  0  0.96574  0  0  0.30358  0.345922  0  0.987525  0
H  H6  1  0.19879900  0.38874890  0.34838627  1  0  0.124955  0  0.956858  0  0  0.130089  0  1.027219  0  0  0.135367  0  1.022154  0  0  0.114016  0.12613  0  1.031369  0
H  H7  1  0.30111539  0.04045654  0.65147858  1  0  0.125133  0  0.956381  0  0  0.130082  0  1.026921  0  0  0.135306  0  1.021914  0  0  0.113953  0.126131  0  1.031084  0
H  H8  1  0.80120910  0.61125833  0.65161643  1  0  0.124861  0  0.956663  0  0  0.129994  0  1.027061  0  0  0.13527  0  1.021997  0  0  0.113978  0.126037  0  1.031214  0
H  H9  1  0.69888648  0.95954854  0.34851984  1  0  0.125135  0  0.956353  0  0  0.130082  0  1.026904  0  0  0.135305  0  1.0219  0  0  0.113958  0.126132  0  1.03107  0
H  H10  1  0.21636096  0.64591522  0.10222109  1  0  0.087511  0  0.965664  0  0  0.105728  0  1.036258  0  0  0.106502  0  1.035403  0  0  0.103687  0.105009  0  1.036997  0
H  H11  1  0.28363194  0.54353083  0.89777958  1  0  0.087785  0  0.96604  0  0  0.106228  0  1.036257  0  0  0.107035  0  1.035379  0  0  0.103802  0.105485  0  1.037014  0
H  H12  1  0.78364061  0.35408156  0.89777543  1  0  0.087548  0  0.965625  0  0  0.105768  0  1.036212  0  0  0.106543  0  1.035358  0  0  0.103707  0.10505  0  1.036953  0
H  H13  1  0.71637085  0.45647176  0.10222064  1  0  0.087772  0  0.966019  0  0  0.106209  0  1.036233  0  0  0.107025  0  1.035347  0  0  0.103798  0.10547  0  1.036984  0
H  H14  1  0.17601043  0.53929403  0.19848608  1  0  0.106475  0  0.94102  0  0  0.125632  0  1.004519  0  0  0.126127  0  1.005077  0  0  0.107658  0.125074  0  1.004395  0
H  H15  1  0.32402712  0.34064307  0.80149660  1  0  0.106815  0  0.941257  0  0  0.12573  0  1.004763  0  0  0.126259  0  1.005296  0  0  0.107421  0.125166  0  1.004646  0
H  H16  1  0.82399315  0.46070151  0.80151097  1  0  0.106454  0  0.940958  0  0  0.125584  0  1.004495  0  0  0.126076  0  1.005059  0  0  0.107647  0.125041  0  1.004359  0
H  H17  1  0.67597255  0.65935941  0.19850625  1  0  0.106777  0  0.941296  0  0  0.125691  0  1.004798  0  0  0.126221  0  1.005333  0  0  0.107411  0.125124  0  1.004688  0
H  H18  1  0.25851275  0.72903938  0.29275995  1  0  0.102531  0  0.958671  0  0  0.120998  0  1.024527  0  0  0.121389  0  1.025814  0  0  0.105271  0.120462  0  1.02397  0
H  H19  1  0.24147186  0.43608117  0.70724635  1  0  0.102531  0  0.958992  0  0  0.121097  0  1.024588  0  0  0.121486  0  1.025879  0  0  0.105271  0.12057  0  1.024008  0
H  H20  1  0.74148893  0.27096087  0.70723912  1  0  0.102516  0  0.958705  0  0  0.120989  0  1.024544  0  0  0.121394  0  1.025815  0  0  0.10526  0.120454  0  1.02399  0
H  H21  1  0.75852876  0.56391895  0.29275549  1  0  0.102523  0  0.958962  0  0  0.121082  0  1.02457  0  0  0.121473  0  1.02586  0  0  0.105266  0.120554  0  1.023993  0
H  H22  1  0.03870780  0.73168573  0.03518498  1  0  0.034825  0  0.934883  0  0  0.043662  0  1.004933  0  0  0.045639  0  0.999427  0  0  0.127305  0.041997  0  1.009164  0
H  H23  1  0.46093281  0.69655652  0.96482652  1  0  0.034934  0  0.934427  0  0  0.043853  0  1.00444  0  0  0.045826  0  0.998931  0  0  0.127215  0.042169  0  1.008712  0
H  H24  1  0.96128639  0.26830638  0.96480987  1  0  0.034841  0  0.934736  0  0  0.043645  0  1.004822  0  0  0.045629  0  0.999312  0  0  0.127292  0.04197  0  1.009076  0
H  H25  1  0.53906272  0.30344491  0.03517366  1  0  0.034918  0  0.93447  0  0  0.043834  0  1.004492  0  0  0.045802  0  0.998987  0  0  0.127206  0.042145  0  1.008766  0
H  H26  1  0.89997413  0.83263625  0.38185549  1  0  0.116068  0  0.963864  0  0  0.131468  0  1.031628  0  0  0.133436  0  1.029594  0  0  0.110088  0.12989  0  1.033318  0
H  H27  1  0.60007015  0.45076325  0.61820015  1  0  0.11596  0  0.963226  0  0  0.131412  0  1.030902  0  0  0.133389  0  1.028877  0  0  0.110363  0.129829  0  1.032593  0
H  H28  1  0.10002756  0.16736301  0.61813928  1  0  0.116086  0  0.963885  0  0  0.131474  0  1.031645  0  0  0.133441  0  1.029614  0  0  0.110109  0.129895  0  1.033331  0
H  H29  1  0.39992710  0.54922667  0.38179005  1  0  0.115984  0  0.963226  0  0  0.131415  0  1.030925  0  0  0.133394  0  1.028898  0  0  0.110369  0.129839  0  1.03261  0
H  H30  1  0.07226508  0.85216740  0.45876096  1  0  0.111696  0  0.921092  0  0  0.134469  0  0.97753  0  0  0.1348  0  0.977541  0  0  0.110388  0.13393  0  0.978014  0
H  H31  1  0.42780428  0.39332406  0.54126130  1  0  0.110993  0  0.920707  0  0  0.133884  0  0.977181  0  0  0.13419  0  0.97723  0  0  0.110054  0.133353  0  0.977648  0
H  H32  1  0.92773767  0.14783302  0.54123442  1  0  0.111713  0  0.921083  0  0  0.134465  0  0.977536  0  0  0.134797  0  0.977546  0  0  0.11038  0.133924  0  0.978022  0
H  H33  1  0.57219400  0.60666788  0.45873663  1  0  0.110974  0  0.920637  0  0  0.13386  0  0.977124  0  0  0.134167  0  0.977173  0  0  0.110057  0.133329  0  0.977593  0
H  H34  1  0.98084826  0.66786496  0.38631266  1  0  0.08409  0  0.993369  0  0  0.101243  0  1.065193  0  0  0.099186  0  1.069832  0  0  0.09556  0.102669  0  1.062079  0
H  H35  1  0.51921365  0.28150357  0.61370663  1  0  0.083777  0  0.993706  0  0  0.100886  0  1.065614  0  0  0.098863  0  1.070233  0  0  0.095583  0.1023  0  1.062491  0
H  H36  1  0.01915236  0.33213417  0.61368488  1  0  0.084154  0  0.993348  0  0  0.101294  0  1.065165  0  0  0.099235  0  1.069807  0  0  0.095588  0.102719  0  1.062049  0
H  H37  1  0.48078479  0.71849202  0.38629010  1  0  0.083719  0  0.9937  0  0  0.100865  0  1.065575  0  0  0.098841  0  1.070195  0  0  0.095578  0.102279  0  1.062457  0
C  C38  1  0.96288150  0.22776763  0.21614171  1  0  0.698767  0  3.885727  0  0  0.647566  0  4.180429  0  0  0.683517  0  4.169104  0  0  0.228296  0.622725  0  4.187937  0
C  C39  1  0.53690496  0.01144690  0.78376790  1  0  0.699336  0  3.884204  0  0  0.648202  0  4.179119  0  0  0.684149  0  4.167836  0  0  0.228808  0.62337  0  4.186589  0
C  C40  1  0.03712241  0.77223837  0.78386208  1  0  0.698812  0  3.885865  0  0  0.64766  0  4.180535  0  0  0.683612  0  4.169204  0  0  0.228329  0.622827  0  4.188041  0
C  C41  1  0.46308619  0.98854745  0.21623066  1  0  0.699488  0  3.884287  0  0  0.648326  0  4.179234  0  0  0.684274  0  4.167945  0  0  0.228816  0.623488  0  4.186709  0
C  C42  1  0.98112103  0.36745962  0.36273975  1  0  -0.190576  0  3.77767  0  0  -0.173926  0  4.018571  0  0  -0.181824  0  4.037353  0  0  -0.033839  -0.168019  0  4.005671  0
C  C43  1  0.51879791  0.00467460  0.63723254  1  0  -0.18964  0  3.774979  0  0  -0.173553  0  4.016747  0  0  -0.181451  0  4.03554  0  0  -0.034134  -0.167653  0  4.003835  0
C  C44  1  0.01888573  0.63254031  0.63726529  1  0  -0.190558  0  3.777673  0  0  -0.174031  0  4.018608  0  0  -0.181934  0  4.037393  0  0  -0.033772  -0.168135  0  4.005723  0
C  C45  1  0.48120275  0.99532567  0.36276648  1  0  -0.189708  0  3.775012  0  0  -0.173587  0  4.016793  0  0  -0.181484  0  4.035584  0  0  -0.034138  -0.167674  0  4.00387  0
C  C46  1  0.86697202  0.42985723  0.44890475  1  0  0.287774  0  3.847973  0  0  0.272115  0  4.118573  0  0  0.283158  0  4.134009  0  0  0.072885  0.264571  0  4.107763  0
C  C47  1  0.63299078  0.98089691  0.55112458  1  0  0.287435  0  3.848295  0  0  0.271905  0  4.119034  0  0  0.282923  0  4.134475  0  0  0.072603  0.264387  0  4.108201  0
C  C48  1  0.13303689  0.57014606  0.55110485  1  0  0.287651  0  3.847981  0  0  0.272171  0  4.11842  0  0  0.283215  0  4.133856  0  0  0.072891  0.264625  0  4.107613  0
C  C49  1  0.36700582  0.01910569  0.44887620  1  0  0.287484  0  3.848289  0  0  0.271915  0  4.119084  0  0  0.282934  0  4.134522  0  0  0.072651  0.264391  0  4.108246  0
C  C50  1  0.11225081  0.43782078  0.41575028  1  0  -0.178363  0  3.729539  0  0  -0.21117  0  3.992015  0  0  -0.211935  0  4.006321  0  0  -0.099089  -0.210878  0  3.983048  0
C  C51  1  0.38771981  0.02212116  0.58420178  1  0  -0.179265  0  3.728813  0  0  -0.211659  0  3.991916  0  0  -0.21231  0  4.006077  0  0  -0.098911  -0.211444  0  3.983075  0
C  C52  1  0.88775801  0.56217810  0.58425151  1  0  -0.178342  0  3.729295  0  0  -0.211082  0  3.991869  0  0  -0.211846  0  4.006177  0  0  -0.099156  -0.210795  0  3.982915  0
C  C53  1  0.61227885  0.97788038  0.41579577  1  0  -0.179236  0  3.728845  0  0  -0.211642  0  3.99193  0  0  -0.212293  0  4.006093  0  0  -0.098884  -0.211418  0  3.983059  0
C  C54  1  0.18225378  0.65642635  0.20472580  1  0  -0.170238  0  3.661655  0  0  -0.273723  0  3.912418  0  0  -0.270317  0  3.923708  0  0  -0.130674  -0.275644  0  3.904845  0
C  C55  1  0.31773878  0.45153221  0.79525932  1  0  -0.171446  0  3.661817  0  0  -0.274996  0  3.912599  0  0  -0.271605  0  3.923773  0  0  -0.130764  -0.276894  0  3.905058  0
C  C56  1  0.81774565  0.34356811  0.79526951  1  0  -0.170232  0  3.661624  0  0  -0.273702  0  3.912412  0  0  -0.270305  0  3.923691  0  0  -0.130677  -0.275639  0  3.904834  0
C  C57  1  0.68226083  0.54846801  0.20474057  1  0  -0.171328  0  3.661742  0  0  -0.274855  0  3.912523  0  0  -0.27147  0  3.923689  0  0  -0.130699  -0.276748  0  3.904981  0
C  C58  1  0.98308167  0.76377055  0.13410144  1  0  0.40272  0  3.832142  0  0  0.331541  0  4.112645  0  0  0.360239  0  4.112944  0  0  0.188564  0.312337  0  4.111611  0
C  C59  1  0.51670098  0.62976031  0.86596444  1  0  0.401717  0  3.83331  0  0  0.330644  0  4.113489  0  0  0.359352  0  4.113792  0  0  0.187442  0.31144  0  4.112431  0
C  C60  1  0.01691758  0.23621913  0.86589359  1  0  0.402805  0  3.832166  0  0  0.331641  0  4.112675  0  0  0.360335  0  4.112974  0  0  0.188629  0.312437  0  4.111644  0
C  C61  1  0.48330075  0.37024215  0.13403854  1  0  0.401776  0  3.833303  0  0  0.330711  0  4.113457  0  0  0.359419  0  4.113767  0  0  0.18747  0.311508  0  4.112408  0
C  C62  1  0.99701292  0.77318851  0.37286607  1  0  -0.169577  0  3.630727  0  0  -0.270215  0  3.877008  0  0  -0.265619  0  3.886729  0  0  -0.136823  -0.272973  0  3.870494  0
C  C63  1  0.50302835  0.40030154  0.62720995  1  0  -0.168368  0  3.629366  0  0  -0.269001  0  3.875407  0  0  -0.264463  0  3.885159  0  0  -0.136742  -0.271745  0  3.868867  0
C  C64  1  0.00298871  0.22680949  0.62713005  1  0  -0.169704  0  3.63081  0  0  -0.270289  0  3.877059  0  0  -0.265692  0  3.886782  0  0  -0.136898  -0.273049  0  3.870545  0
C  C65  1  0.49697005  0.59969288  0.37278624  1  0  -0.168252  0  3.62933  0  0  -0.26889  0  3.875347  0  0  -0.264352  0  3.8851  0  0  -0.136679  -0.271635  0  3.868809  0
N  N66  1  0.04970330  0.73040792  0.23197964  1  0  -0.083808  0  3.516522  0  0  0.020896  0  3.748142  0  0  0.000699  0  3.773  0  0  -0.280263  0.034469  0  3.730652  0
N  N67  1  0.45026070  0.49837417  0.76805231  1  0  -0.082924  0  3.515918  0  0  0.021612  0  3.747564  0  0  0.001411  0  3.772465  0  0  -0.279796  0.035198  0  3.730042  0
N  N68  1  0.95029720  0.26958770  0.76801628  1  0  -0.083847  0  3.516599  0  0  0.020857  0  3.748204  0  0  0.000658  0  3.773063  0  0  -0.280234  0.034433  0  3.730717  0
N  N69  1  0.54973993  0.50162600  0.23194859  1  0  -0.083011  0  3.516092  0  0  0.021509  0  3.747767  0  0  0.001309  0  3.772667  0  0  -0.279867  0.035092  0  3.730246  0
O  O70  1  0.83843834  0.17164856  0.17039619  1  0  -0.713735  0  1.977411  0  0  -0.649082  0  2.216794  0  0  -0.676261  0  2.203212  0  0  -0.36697  -0.629899  0  2.226357  0
O  O71  1  0.66129886  0.00082166  0.82946242  1  0  -0.714075  0  1.977944  0  0  -0.649256  0  2.217332  0  0  -0.676425  0  2.203751  0  0  -0.36708  -0.63007  0  2.226891  0
O  O72  1  0.16156855  0.82835493  0.82960953  1  0  -0.71375  0  1.977556  0  0  -0.649106  0  2.216923  0  0  -0.676286  0  2.203332  0  0  -0.366934  -0.629928  0  2.226486  0
O  O73  1  0.33869048  0.99918077  0.17054263  1  0  -0.714135  0  1.977907  0  0  -0.649336  0  2.21732  0  0  -0.676506  0  2.203733  0  0  -0.367139  -0.630159  0  2.226879  0
O  O74  1  0.73864557  0.36314721  0.40414364  1  0  -0.516191  0  2.093383  0  0  -0.466947  0  2.306789  0  0  -0.486918  0  2.299702  0  0  -0.354493  -0.452598  0  2.311502  0
O  O75  1  0.76130726  0.95901602  0.59596148  1  0  -0.516478  0  2.093587  0  0  -0.46704  0  2.306798  0  0  -0.487049  0  2.299809  0  0  -0.354756  -0.452667  0  2.311443  0
O  O76  1  0.26136138  0.63685854  0.59586504  1  0  -0.516197  0  2.09322  0  0  -0.467028  0  2.306522  0  0  -0.486999  0  2.299432  0  0  -0.35454  -0.452678  0  2.311238  0
O  O77  1  0.23869247  0.04098871  0.40404433  1  0  -0.516348  0  2.093807  0  0  -0.466947  0  2.306915  0  0  -0.486957  0  2.299928  0  0  -0.354729  -0.452574  0  2.311554  0
O  O78  1  0.86799200  0.82598414  0.14869012  1  0  -0.597712  0  2.040408  0  0  -0.541882  0  2.292172  0  0  -0.567351  0  2.284783  0  0  -0.347996  -0.523852  0  2.296599  0
O  O79  1  0.63173288  0.67756884  0.85148772  1  0  -0.597225  0  2.041463  0  0  -0.541431  0  2.293279  0  0  -0.566914  0  2.285898  0  0  -0.347294  -0.523417  0  2.297736  0
O  O80  1  0.13200313  0.17400656  0.85130896  1  0  -0.597741  0  2.040602  0  0  -0.541911  0  2.292376  0  0  -0.567382  0  2.28499  0  0  -0.348069  -0.523878  0  2.296777  0
O  O81  1  0.36826259  0.32243336  0.14852147  1  0  -0.597304  0  2.0413  0  0  -0.541506  0  2.293108  0  0  -0.566997  0  2.285733  0  0  -0.34733  -0.523501  0  2.297565  0
O  O82  1  0.06594128  0.17198751  0.14302110  1  0  -0.69525  0  1.973911  0  0  -0.640124  0  2.227481  0  0  -0.665682  0  2.213587  0  0  -0.368062  -0.621829  0  2.23833  0
O  O83  1  0.43382386  0.02889648  0.85687190  1  0  -0.695353  0  1.973827  0  0  -0.640081  0  2.227339  0  0  -0.665638  0  2.213453  0  0  -0.368352  -0.62177  0  2.238164  0
O  O84  1  0.93406086  0.82802469  0.85697868  1  0  -0.695255  0  1.974011  0  0  -0.640162  0  2.227584  0  0  -0.665715  0  2.213683  0  0  -0.368082  -0.621861  0  2.238438  0
O  O85  1  0.56615894  0.97109239  0.14311688  1  0  -0.69542  0  1.974003  0  0  -0.640165  0  2.227518  0  0  -0.665723  0  2.213632  0  0  -0.368308  -0.621853  0  2.238352  0
