# generated using pymatgen
data_NaH9C8(NO2)2
_symmetry_space_group_name_H-M   'P 1'
_cell_length_a   7.16740966
_cell_length_b   7.35148461
_cell_length_c   8.80381215
_cell_angle_alpha   103.71380654
_cell_angle_beta   93.82650840
_cell_angle_gamma   91.22692696
_symmetry_Int_Tables_number   1
_chemical_formula_structural   NaH9C8(NO2)2
_chemical_formula_sum   'Na2 H18 C16 N4 O8'
_cell_volume   449.32171047
_cell_formula_units_Z   2
loop_
 _symmetry_equiv_pos_site_id
 _symmetry_equiv_pos_as_xyz
  1  'x, y, z'
loop_
 _atom_site_type_symbol
 _atom_site_label
 _atom_site_symmetry_multiplicity
 _atom_site_fract_x
 _atom_site_fract_y
 _atom_site_fract_z
 _atom_site_occupancy
 _atom_site_hle17_bader_spin_density
 _atom_site_hle17_ddec_charge
 _atom_site_hle17_ddec_spin_density
 _atom_site_hle17_ddec_sum_bond_order
 _atom_site_hle17_magmom
 _atom_site_hse06_10hf_bader_charge
 _atom_site_hse06_10hf_bader_spin_density
 _atom_site_hse06_10hf_ddec_charge
 _atom_site_hse06_10hf_ddec_spin_density
 _atom_site_hse06_10hf_ddec_sum_bond_order
 _atom_site_hse06_10hf_magmom
 _atom_site_hse06_bader_spin_density
 _atom_site_hse06_ddec_charge
 _atom_site_hse06_ddec_spin_density
 _atom_site_hse06_ddec_sum_bond_order
 _atom_site_hse06_magmom
 _atom_site_pbe_bader_spin_density
 _atom_site_pbe_cm5_charge
 _atom_site_pbe_ddec_charge
 _atom_site_pbe_ddec_spin_density
 _atom_site_pbe_ddec_sum_bond_order
 _atom_site_pbe_magmom
Na  Na0  1  0.99999911  0.99999978  0.00000051  1  0  0.883205  0  0.39592  0  0.884133  0  0.818401  0  0.575202  0  0  0.83066  0  0.552034  0  0  0.664151  0.809291  0  0.591581  0
Na  Na1  1  0.50000014  0.00000202  0.00000100  1  0  0.904608  0  0.364114  0  0.892144  0  0.859788  0  0.518806  0  0  0.869674  0  0.497569  0  0  0.656532  0.852876  0  0.53316  0
H  H2  1  0.12660739  0.30549011  0.29680015  1  0  0.312522  0  0.929797  0  0.560562  0  0.293207  0  0.991614  0  0  0.301799  0  0.984892  0  0  0.307402  0.287453  0  0.995891  0
H  H3  1  0.87339213  0.69450621  0.70319947  1  0  0.312497  0  0.929814  0  0.560616  0  0.293192  0  0.991628  0  0  0.301784  0  0.984907  0  0  0.307386  0.287438  0  0.995906  0
H  H4  1  0.14216348  0.47271924  0.58757872  1  0  0.096409  0  0.950438  0  0.121562  0  0.110598  0  1.009114  0  0  0.112626  0  1.007304  0  0  0.124609  0.109028  0  1.010385  0
H  H5  1  0.85784032  0.52727988  0.41241714  1  0  0.096414  0  0.950398  0  0.121611  0  0.110589  0  1.009091  0  0  0.112621  0  1.007276  0  0  0.124589  0.109009  0  1.010375  0
H  H6  1  0.32911088  0.80323276  0.63473056  1  0  0.110597  0  0.939673  0  0.116013  0  0.121619  0  0.999731  0  0  0.125068  0  0.996364  0  0  0.111423  0.11909  0  1.00203  0
H  H7  1  0.67089305  0.19676917  0.36527154  1  0  0.110596  0  0.939623  0  0.116056  0  0.121613  0  0.999692  0  0  0.125061  0  0.996327  0  0  0.111419  0.119086  0  1.001988  0
H  H8  1  0.36086403  0.57260344  0.37433221  1  0  0.098037  0  0.973419  0  0.094461  0  0.107412  0  1.036786  0  0  0.110559  0  1.036356  0  0  0.098553  0.104954  0  1.037568  0
H  H9  1  0.63913555  0.42739428  0.62566997  1  0  0.09796  0  0.973505  0  0.094457  0  0.107389  0  1.03681  0  0  0.110536  0  1.036381  0  0  0.098527  0.104928  0  1.037592  0
H  H10  1  0.28984257  0.66764348  0.12710821  1  0  0.059786  0  0.981875  0  0.088146  0  0.066654  0  1.052664  0  0  0.069929  0  1.048854  0  0  0.109793  0.06413  0  1.055763  0
H  H11  1  0.71015556  0.33235284  0.87289361  1  0  0.059768  0  0.981854  0  0.088145  0  0.06664  0  1.052626  0  0  0.069914  0  1.048817  0  0  0.10979  0.064125  0  1.055719  0
H  H12  1  0.92510647  0.43565241  0.13144298  1  0  0.417236  0  0.889162  0  0.636101  0  0.385595  0  0.954569  0  0  0.395795  0  0.939759  0  0  0.289573  0.378372  0  0.964988  0
H  H13  1  0.07489320  0.56434811  0.86855521  1  0  0.417222  0  0.88919  0  0.636094  0  0.385582  0  0.954587  0  0  0.395778  0  0.939783  0  0  0.289576  0.378363  0  0.965001  0
H  H14  1  0.10572766  0.36692342  0.04655396  1  0  0.400722  0  0.917085  0  0.644943  0  0.367563  0  0.986452  0  0  0.378187  0  0.970874  0  0  0.286667  0.360307  0  0.997172  0
H  H15  1  0.89427201  0.63307711  0.95344423  1  0  0.400746  0  0.917027  0  0.644952  0  0.367589  0  0.986403  0  0  0.378215  0  0.970823  0  0  0.286683  0.360329  0  0.997128  0
H  H16  1  0.60535021  0.42677600  0.13483973  1  0  0.412667  0  0.89336  0  0.635272  0  0.382937  0  0.956037  0  0  0.392738  0  0.94175  0  0  0.28481  0.376052  0  0.966109  0
H  H17  1  0.39464393  0.57322592  0.86515959  1  0  0.412598  0  0.893454  0  0.635239  0  0.382918  0  0.956057  0  0  0.392718  0  0.941773  0  0  0.284808  0.376038  0  0.966122  0
H  H18  1  0.40726360  0.35720884  0.05781333  1  0  0.396319  0  0.911712  0  0.634285  0  0.365655  0  0.983146  0  0  0.375787  0  0.967975  0  0  0.285102  0.358539  0  0.99383  0
H  H19  1  0.59273057  0.64279448  0.94218172  1  0  0.396303  0  0.911605  0  0.634453  0  0.365633  0  0.983147  0  0  0.375766  0  0.967976  0  0  0.285084  0.358515  0  0.993836  0
C  C20  1  0.17301098  0.32631819  0.54585654  1  0  0.09329  0  3.65416  0  0.340626  0  0.039108  0  3.925798  0  0  0.051407  0  3.939557  0  0  0.033344  0.03208  0  3.915624  0
C  C21  1  0.82699283  0.67368094  0.45414273  1  0  0.093273  0  3.654055  0  0.340526  0  0.039127  0  3.925697  0  0  0.051424  0  3.939453  0  0  0.033414  0.032107  0  3.915527  0
C  C22  1  0.21783025  0.19477106  0.63165930  1  0  -0.21108  0  3.816472  0  0.059852  0  -0.202857  0  4.078476  0  0  -0.217642  0  4.104548  0  0  -0.047238  -0.193564  0  4.06103  0
C  C23  1  0.78217513  0.80523228  0.36834202  1  0  -0.211031  0  3.8165  0  0.060019  0  -0.202855  0  4.078542  0  0  -0.217641  0  4.104614  0  0  -0.047279  -0.193559  0  4.061092  0
C  C24  1  0.24553069  0.02204031  0.51880493  1  0  -0.031274  0  3.784438  0  -0.017578  0  -0.016639  0  4.01386  0  0  -0.020496  0  4.040336  0  0  -0.009612  -0.014485  0  3.996468  0
C  C25  1  0.75447313  0.97795882  0.48119547  1  0  -0.031302  0  3.784403  0  -0.017788  0  -0.016612  0  4.013781  0  0  -0.020467  0  4.040254  0  0  -0.009586  -0.01446  0  3.996391  0
C  C26  1  0.29925832  0.84138064  0.52349385  1  0  -0.037098  0  3.689319  0  -0.019147  0  -0.063863  0  3.942269  0  0  -0.059764  0  3.958883  0  0  -0.069934  -0.065877  0  3.930658  0
C  C27  1  0.70074406  0.15861708  0.47650733  1  0  -0.03711  0  3.689138  0  -0.018995  0  -0.063889  0  3.942106  0  0  -0.05979  0  3.95872  0  0  -0.069952  -0.065903  0  3.930495  0
C  C28  1  0.31540256  0.71431223  0.38010101  1  0  -0.155707  0  3.77964  0  -0.0881  0  -0.171594  0  4.042576  0  0  -0.180515  0  4.067006  0  0  -0.105376  -0.166057  0  4.026555  0
C  C29  1  0.68459842  0.28568549  0.61990010  1  0  -0.155572  0  3.779637  0  -0.0882  0  -0.171506  0  4.042563  0  0  -0.180427  0  4.066993  0  0  -0.105313  -0.165966  0  4.026539  0
C  C30  1  0.27780672  0.76795172  0.23870082  1  0  0.11897  0  3.765001  0  0.480946  0  0.090119  0  4.032682  0  0  0.096924  0  4.049601  0  0  0.030739  0.085316  0  4.022506  0
C  C31  1  0.72219281  0.23204460  0.76130108  1  0  0.118981  0  3.764985  0  0.480961  0  0.090136  0  4.032688  0  0  0.096943  0  4.049607  0  0  0.030726  0.085331  0  4.0225  0
C  C32  1  0.21483562  0.06098527  0.36807869  1  0  0.336952  0  3.792062  0  0.994713  0  0.314455  0  4.04736  0  0  0.325597  0  4.065474  0  0  0.219771  0.30669  0  4.034947  0
C  C33  1  0.78516535  0.93901245  0.63192128  1  0  0.336928  0  3.791957  0  0.994697  0  0.314407  0  4.047292  0  0  0.325548  0  4.065406  0  0  0.21972  0.306642  0  4.034881  0
C  C34  1  0.23278041  0.22402087  0.80158273  1  0  0.689479  0  3.924701  0  1.579367  0  0.634935  0  4.220194  0  0  0.669566  0  4.211871  0  0  0.208018  0.611995  0  4.224726  0
C  C35  1  0.76721948  0.77598526  0.19841771  1  0  0.689449  0  3.92471  0  1.579378  0  0.634902  0  4.220212  0  0  0.669535  0  4.211889  0  0  0.20803  0.611953  0  4.224748  0
N  N36  1  0.17056131  0.24657482  0.38911824  1  0  -0.350084  0  3.390251  0  -1.337191  0  -0.286499  0  3.626955  0  0  -0.305697  0  3.640315  0  0  -0.37921  -0.273447  0  3.616604  0
N  N37  1  0.82943966  0.75342291  0.61088060  1  0  -0.350003  0  3.390166  0  -1.337262  0  -0.286444  0  3.6269  0  0  -0.305643  0  3.640261  0  0  -0.379152  -0.273391  0  3.616543  0
N  N38  1  0.22836189  0.94089751  0.22909733  1  0  -0.468178  0  3.105847  0  -1.303743  0  -0.42616  0  3.381605  0  0  -0.437791  0  3.392069  0  0  -0.375532  -0.418329  0  3.37453  0
N  N39  1  0.77163759  0.05909741  0.77090315  1  0  -0.468243  0  3.105833  0  -1.303801  0  -0.426223  0  3.381601  0  0  -0.437854  0  3.392067  0  0  -0.375551  -0.418394  0  3.374533  0
O  O40  1  0.23211449  0.39487579  0.88982098  1  0  -0.732672  0  2.061652  0  -1.248751  0  -0.642509  0  2.263478  0  0  -0.671599  0  2.253311  0  0  -0.325053  -0.62306  0  2.270303  0
O  O41  1  0.76788546  0.60513174  0.11018315  1  0  -0.732656  0  2.061616  0  -1.248651  0  -0.642468  0  2.263444  0  0  -0.671561  0  2.253272  0  0  -0.325033  -0.622983  0  2.270241  0
O  O42  1  0.24641563  0.08367285  0.86109630  1  0  -0.738249  0  1.939702  0  -1.246282  0  -0.688854  0  2.190456  0  0  -0.709885  0  2.176317  0  0  -0.457655  -0.6729  0  2.198567  0
O  O43  1  0.75358291  0.91633468  0.13890436  1  0  -0.738296  0  1.93969  0  -1.246371  0  -0.688887  0  2.190437  0  0  -0.709917  0  2.176297  0  0  -0.457723  -0.672937  0  2.198556  0
O  O44  1  0.01988531  0.33766589  0.12272333  1  0  -0.850697  0  1.832661  0  -1.308193  0  -0.800503  0  2.009982  0  0  -0.817937  0  1.978886  0  0  -0.625064  -0.788535  0  2.03134  0
O  O45  1  0.98011431  0.66233323  0.87727572  1  0  -0.850704  0  1.832654  0  -1.308177  0  -0.800499  0  2.010001  0  0  -0.817932  0  1.978906  0  0  -0.625085  -0.788533  0  2.031359  0
O  O46  1  0.50938451  0.32547906  0.12632896  1  0  -0.861838  0  1.751375  0  -1.305982  0  -0.819459  0  1.919985  0  0  -0.834807  0  1.889079  0  0  -0.655453  -0.808837  0  1.941483  0
O  O47  1  0.49060827  0.67452426  0.87366829  1  0  -0.861742  0  1.751308  0  -1.306119  0  -0.819444  0  1.920016  0  0  -0.834792  0  1.889111  0  0  -0.655438  -0.808823  0  1.941507  0
