# generated using pymatgen
data_CdH8C8I2(N2O)2
_symmetry_space_group_name_H-M   'P 1'
_cell_length_a   4.10254562
_cell_length_b   7.70938819
_cell_length_c   21.57454265
_cell_angle_alpha   90.00061687
_cell_angle_beta   90.22037895
_cell_angle_gamma   90.00038555
_symmetry_Int_Tables_number   1
_chemical_formula_structural   CdH8C8I2(N2O)2
_chemical_formula_sum   'Cd2 H16 C16 I4 N8 O4'
_cell_volume   682.35710554
_cell_formula_units_Z   2
loop_
 _symmetry_equiv_pos_site_id
 _symmetry_equiv_pos_as_xyz
  1  'x, y, z'
loop_
 _atom_site_type_symbol
 _atom_site_label
 _atom_site_symmetry_multiplicity
 _atom_site_fract_x
 _atom_site_fract_y
 _atom_site_fract_z
 _atom_site_occupancy
 _atom_site_hle17_bader_spin_density
 _atom_site_hle17_ddec_charge
 _atom_site_hle17_ddec_spin_density
 _atom_site_hle17_ddec_sum_bond_order
 _atom_site_hle17_magmom
 _atom_site_hse06_10hf_bader_spin_density
 _atom_site_hse06_10hf_ddec_charge
 _atom_site_hse06_10hf_ddec_spin_density
 _atom_site_hse06_10hf_ddec_sum_bond_order
 _atom_site_hse06_10hf_magmom
 _atom_site_hse06_bader_spin_density
 _atom_site_hse06_ddec_charge
 _atom_site_hse06_ddec_spin_density
 _atom_site_hse06_ddec_sum_bond_order
 _atom_site_hse06_magmom
 _atom_site_pbe_bader_spin_density
 _atom_site_pbe_cm5_charge
 _atom_site_pbe_ddec_charge
 _atom_site_pbe_ddec_spin_density
 _atom_site_pbe_ddec_sum_bond_order
 _atom_site_pbe_magmom
Cd  Cd0  1  0.49998897  0.49999507  0.49999907  1  0  0.731029  0  2.111913  0  0  0.586497  0  2.539563  0  0  0.635327  0  2.509326  0  0  0.467531  0.551901  0  2.561194  0
Cd  Cd1  1  0.49999278  0.99999304  0.00000222  1  0  0.731007  0  2.111895  0  0  0.58651  0  2.539513  0  0  0.635341  0  2.509277  0  0  0.467535  0.551913  0  2.561151  0
H  H2  1  0.72352981  0.55285918  0.64567991  1  0  0.072874  0  0.947485  0  0  0.079615  0  1.01771  0  0  0.083099  0  1.011823  0  0  0.122472  0.07693  0  1.022087  0
H  H3  1  0.27648572  0.05287030  0.85432564  1  0  0.072888  0  0.94745  0  0  0.079575  0  1.017714  0  0  0.083059  0  1.011828  0  0  0.122461  0.076891  0  1.022089  0
H  H4  1  0.27648502  0.44713874  0.35431467  1  0  0.072897  0  0.947448  0  0  0.079687  0  1.017631  0  0  0.083175  0  1.011735  0  0  0.122491  0.076996  0  1.022024  0
H  H5  1  0.72353079  0.94713540  0.14567730  1  0  0.072885  0  0.947486  0  0  0.079634  0  1.0177  0  0  0.083117  0  1.011814  0  0  0.122485  0.076949  0  1.022078  0
H  H6  1  0.36175435  0.10576357  0.56160297  1  0  0.077591  0  0.968373  0  0  0.082736  0  1.041914  0  0  0.08609  0  1.037546  0  0  0.09411  0.080084  0  1.045356  0
H  H7  1  0.63820490  0.60575122  0.93838817  1  0  0.077587  0  0.968515  0  0  0.082644  0  1.042104  0  0  0.085997  0  1.03774  0  0  0.094064  0.079993  0  1.045549  0
H  H8  1  0.63823296  0.89422657  0.43839939  1  0  0.07761  0  0.968327  0  0  0.082727  0  1.041895  0  0  0.086083  0  1.037523  0  0  0.094091  0.080075  0  1.045337  0
H  H9  1  0.36177530  0.39424281  0.06161183  1  0  0.077613  0  0.968445  0  0  0.082657  0  1.042066  0  0  0.086011  0  1.037702  0  0  0.094109  0.080006  0  1.04551  0
H  H10  1  0.91492264  0.39482614  0.72859008  1  0  0.329602  0  0.902805  0  0  0.307229  0  0.968607  0  0  0.317333  0  0.959759  0  0  0.314359  0.300115  0  0.974875  0
H  H11  1  0.08505768  0.89485385  0.77141237  1  0  0.329492  0  0.902886  0  0  0.307179  0  0.968566  0  0  0.317291  0  0.959702  0  0  0.31433  0.300056  0  0.974822  0
H  H12  1  0.08509694  0.60517697  0.27140591  1  0  0.329604  0  0.902869  0  0  0.307257  0  0.968623  0  0  0.317358  0  0.959781  0  0  0.314399  0.300143  0  0.97489  0
H  H13  1  0.91495174  0.10516222  0.22858822  1  0  0.329565  0  0.902791  0  0  0.307245  0  0.968493  0  0  0.317354  0  0.959627  0  0  0.314354  0.300124  0  0.97475  0
H  H14  1  0.53114615  0.92715335  0.65246071  1  0  0.139572  0  0.94466  0  0  0.146554  0  1.005429  0  0  0.151448  0  1.003075  0  0  0.103938  0.142964  0  1.007548  0
H  H15  1  0.46878968  0.42716341  0.84752777  1  0  0.139694  0  0.944455  0  0  0.146685  0  1.00522  0  0  0.151581  0  1.002858  0  0  0.103982  0.143096  0  1.007339  0
H  H16  1  0.46884835  0.07284456  0.34754306  1  0  0.139616  0  0.944647  0  0  0.146612  0  1.005396  0  0  0.151506  0  1.003042  0  0  0.103972  0.143024  0  1.007516  0
H  H17  1  0.53118094  0.57283840  0.15247034  1  0  0.139694  0  0.944518  0  0  0.146683  0  1.005272  0  0  0.151579  0  1.002909  0  0  0.103974  0.143094  0  1.007391  0
C  C18  1  0.67564373  0.41372357  0.64604438  1  0  0.353039  0  3.675561  0  0  0.286419  0  3.94892  0  0  0.307847  0  3.957251  0  0  0.19246  0.272384  0  3.942919  0
C  C19  1  0.32436129  0.91373244  0.85395825  1  0  0.352922  0  3.67585  0  0  0.28629  0  3.949171  0  0  0.307713  0  3.957507  0  0  0.192435  0.272258  0  3.943166  0
C  C20  1  0.32436846  0.58627305  0.35395252  1  0  0.353007  0  3.675697  0  0  0.286351  0  3.949007  0  0  0.30778  0  3.957338  0  0  0.19237  0.272313  0  3.943  0
C  C21  1  0.67565047  0.08627197  0.14604328  1  0  0.353006  0  3.675931  0  0  0.286356  0  3.949253  0  0  0.307782  0  3.957585  0  0  0.192481  0.272324  0  3.94325  0
C  C22  1  0.48175330  0.16461208  0.60170430  1  0  0.183721  0  3.708552  0  0  0.1478  0  3.967079  0  0  0.160612  0  3.984134  0  0  0.03921  0.139609  0  3.955396  0
C  C23  1  0.51822145  0.66460465  0.89828850  1  0  0.183778  0  3.708251  0  0  0.148015  0  3.966718  0  0  0.160823  0  3.983774  0  0  0.039407  0.139819  0  3.955044  0
C  C24  1  0.51824397  0.83538454  0.39829577  1  0  0.18377  0  3.708375  0  0  0.147885  0  3.966869  0  0  0.160696  0  3.983926  0  0  0.039256  0.139694  0  3.955186  0
C  C25  1  0.48176611  0.33539067  0.10171107  1  0  0.183862  0  3.708146  0  0  0.148089  0  3.966656  0  0  0.160897  0  3.983711  0  0  0.039364  0.139895  0  3.954979  0
C  C26  1  0.57512784  0.06634838  0.65161010  1  0  -0.291582  0  3.669345  0  0  -0.30588  0  3.923646  0  0  -0.322336  0  3.942034  0  0  -0.103289  -0.295451  0  3.911557  0
C  C27  1  0.42482132  0.56635211  0.84837716  1  0  -0.291677  0  3.669181  0  0  -0.306045  0  3.923444  0  0  -0.322503  0  3.941846  0  0  -0.10335  -0.295615  0  3.911356  0
C  C28  1  0.42487417  0.93365213  0.34839139  1  0  -0.291582  0  3.669225  0  0  -0.305919  0  3.923545  0  0  -0.322371  0  3.941922  0  0  -0.103272  -0.295493  0  3.911462  0
C  C29  1  0.57517124  0.43364840  0.15162105  1  0  -0.291789  0  3.669286  0  0  -0.306114  0  3.923564  0  0  -0.322576  0  3.941968  0  0  -0.10335  -0.295682  0  3.911479  0
C  C30  1  0.74431687  0.14579668  0.70257060  1  0  0.582412  0  3.856139  0  0  0.543346  0  4.133741  0  0  0.572693  0  4.13561  0  0  0.226723  0.523937  0  4.131703  0
C  C31  1  0.25563252  0.64582044  0.79742945  1  0  0.582431  0  3.855848  0  0  0.54336  0  4.133394  0  0  0.572702  0  4.135268  0  0  0.226633  0.523957  0  4.13134  0
C  C32  1  0.25569254  0.85420513  0.29742999  1  0  0.582613  0  3.855718  0  0  0.543568  0  4.133302  0  0  0.572913  0  4.13517  0  0  0.226758  0.52416  0  4.131267  0
C  C33  1  0.74436240  0.35418656  0.20256968  1  0  0.582467  0  3.85566  0  0  0.543365  0  4.133268  0  0  0.572709  0  4.135136  0  0  0.22662  0.523955  0  4.131225  0
I  I34  1  0.98342901  0.25409471  0.45357328  1  0  -0.437608  0  1.229027  0  0  -0.388871  0  1.571154  0  0  -0.411069  0  1.551076  0  0  -0.197823  -0.372528  0  1.586792  0
I  I35  1  0.01654598  0.75409562  0.04642850  1  0  -0.437605  0  1.22901  0  0  -0.388834  0  1.571057  0  0  -0.411023  0  1.550975  0  0  -0.197802  -0.372487  0  1.586698  0
I  I36  1  0.01655368  0.74589413  0.54642627  1  0  -0.437628  0  1.229086  0  0  -0.388853  0  1.571143  0  0  -0.411044  0  1.55106  0  0  -0.197831  -0.37252  0  1.58679  0
I  I37  1  0.98344855  0.24588933  0.95357481  1  0  -0.437627  0  1.229043  0  0  -0.388858  0  1.571093  0  0  -0.411046  0  1.551009  0  0  -0.197832  -0.37251  0  1.58673  0
N  N38  1  0.53028223  0.34029399  0.59832320  1  0  -0.397843  0  3.236611  0  0  -0.324918  0  3.507056  0  0  -0.351658  0  3.526405  0  0  -0.346802  -0.306917  0  3.493268  0
N  N39  1  0.46970510  0.84029434  0.90167213  1  0  -0.397722  0  3.236896  0  0  -0.324898  0  3.507357  0  0  -0.35163  0  3.526705  0  0  -0.346842  -0.306903  0  3.493575  0
N  N40  1  0.46972491  0.65969615  0.40167552  1  0  -0.397966  0  3.236598  0  0  -0.325018  0  3.507012  0  0  -0.351759  0  3.526362  0  0  -0.346818  -0.307014  0  3.493218  0
N  N41  1  0.53029204  0.15970358  0.09832933  1  0  -0.397795  0  3.236935  0  0  -0.324984  0  3.507436  0  0  -0.351716  0  3.526781  0  0  -0.346851  -0.306986  0  3.493654  0
N  N42  1  0.78129760  0.32507933  0.69580299  1  0  -0.39064  0  3.314079  0  0  -0.317834  0  3.537715  0  0  -0.340954  0  3.544861  0  0  -0.360459  -0.30255  0  3.532649  0
N  N43  1  0.21867968  0.82509803  0.80419271  1  0  -0.390446  0  3.314215  0  0  -0.317484  0  3.537454  0  0  -0.340603  0  3.544603  0  0  -0.360296  -0.302192  0  3.532379  0
N  N44  1  0.21872190  0.67492119  0.30419393  1  0  -0.390745  0  3.314216  0  0  -0.317977  0  3.537864  0  0  -0.341096  0  3.545005  0  0  -0.360492  -0.302695  0  3.532799  0
N  N45  1  0.78132973  0.17491027  0.19580788  1  0  -0.390566  0  3.314271  0  0  -0.317666  0  3.537684  0  0  -0.340784  0  3.544827  0  0  -0.360336  -0.30237  0  3.532615  0
O  O46  1  0.85672098  0.07286571  0.74981922  1  0  -0.586637  0  1.938607  0  0  -0.549473  0  2.158749  0  0  -0.570809  0  2.150235  0  0  -0.318695  -0.534557  0  2.163904  0
O  O47  1  0.14316459  0.57288899  0.75017151  1  0  -0.586824  0  1.937837  0  0  -0.549692  0  2.158035  0  0  -0.571025  0  2.149518  0  0  -0.318726  -0.534778  0  2.163191  0
O  O48  1  0.14328603  0.92713869  0.25018090  1  0  -0.586748  0  1.938341  0  0  -0.549571  0  2.158462  0  0  -0.570905  0  2.14995  0  0  -0.31874  -0.534656  0  2.163619  0
O  O49  1  0.85682793  0.42712838  0.24982715  1  0  -0.586819  0  1.937675  0  0  -0.549677  0  2.157904  0  0  -0.57101  0  2.149395  0  0  -0.318765  -0.534755  0  2.163058  0
