# generated using pymatgen
data_CuH16C10N3ClO3
_symmetry_space_group_name_H-M   'P 1'
_cell_length_a   5.58546814
_cell_length_b   10.20987610
_cell_length_c   10.76580677
_cell_angle_alpha   89.99964068
_cell_angle_beta   89.99960272
_cell_angle_gamma   94.71124816
_symmetry_Int_Tables_number   1
_chemical_formula_structural   CuH16C10N3ClO3
_chemical_formula_sum   'Cu2 H32 C20 N6 Cl2 O6'
_cell_volume   611.86665795
_cell_formula_units_Z   2
loop_
 _symmetry_equiv_pos_site_id
 _symmetry_equiv_pos_as_xyz
  1  'x, y, z'
loop_
 _atom_site_type_symbol
 _atom_site_label
 _atom_site_symmetry_multiplicity
 _atom_site_fract_x
 _atom_site_fract_y
 _atom_site_fract_z
 _atom_site_occupancy
 _atom_site_hle17_ddec_charge
 _atom_site_hle17_ddec_spin_density
 _atom_site_hle17_ddec_sum_bond_order
 _atom_site_hle17_magmom
 _atom_site_hse06_10hf_ddec_charge
 _atom_site_hse06_10hf_ddec_spin_density
 _atom_site_hse06_10hf_ddec_sum_bond_order
 _atom_site_hse06_10hf_magmom
 _atom_site_hse06_ddec_charge
 _atom_site_hse06_ddec_spin_density
 _atom_site_hse06_ddec_sum_bond_order
 _atom_site_hse06_magmom
 _atom_site_pbe_cm5_charge
 _atom_site_pbe_ddec_charge
 _atom_site_pbe_ddec_spin_density
 _atom_site_pbe_ddec_sum_bond_order
 _atom_site_pbe_magmom
Cu  Cu0  1  0.88981757  0.33590121  0.60345805  1  0.776106  -0.670952  1.882223  -0.462  0.73836  -0.762956  2.303167  -0.574  0.830018  -0.841856  2.22659  -0.658  0.674599  0.682887  -0.708822  2.356061  -0.522
Cu  Cu1  1  0.11018991  0.66408602  0.10345498  1  0.776111  0.670951  1.882355  0.462  0.738347  0.762955  2.303278  0.574  0.830013  0.841856  2.226622  0.658  0.674613  0.682922  0.708824  2.356122  0.522
H  H2  1  0.15500282  0.47642275  0.34827690  1  0.381619  -0.0  0.894251  0.0  0.362495  0.000122  0.959375  0.0  0.374144  8.2e-05  0.946124  0.0  0.293617  0.354467  0.000141  0.968501  0.0
H  H3  1  0.84498405  0.52357135  0.84827524  1  0.381722  0.0  0.893984  0.0  0.362573  -0.000122  0.959137  0.0  0.374221  -8.2e-05  0.945894  0.0  0.293643  0.354545  -0.000141  0.968262  0.0
H  H4  1  0.44829384  0.33696809  0.56967667  1  0.255962  0.001278  0.951105  0.002  0.240621  9.1e-05  1.024442  0.001  0.246972  0.000371  1.021436  0.001  0.272891  0.236074  -0.000136  1.02711  0.0
H  H5  1  0.55170478  0.66304040  0.06967617  1  0.255965  -0.001278  0.951061  -0.002  0.240651  -9.2e-05  1.024378  -0.001  0.247002  -0.000372  1.021366  -0.001  0.27288  0.236107  0.000135  1.02703  0.0
H  H6  1  0.66901662  0.55300732  0.41741918  1  0.095241  0.000434  0.944376  0.0  0.102907  0.000469  1.008674  0.0  0.105143  0.000351  1.00696  0.0  0.108486  0.101252  0.000556  1.010062  0.0
H  H7  1  0.33097487  0.44699347  0.91742357  1  0.095328  -0.000436  0.944412  0.0  0.102966  -0.000469  1.008737  0.0  0.105202  -0.000351  1.007025  0.0  0.108476  0.101305  -0.000556  1.010131  0.0
H  H8  1  0.24731274  0.55807528  0.59754181  1  0.028509  0.00046  0.940255  0.0  0.03652  0.000276  1.008158  0.0  0.036785  0.000215  1.007855  0.0  0.094928  0.03622  0.000334  1.008495  0.0
H  H9  1  0.75268538  0.44191997  0.09753932  1  0.028496  -0.000459  0.94028  0.0  0.036504  -0.000276  1.008159  0.0  0.036766  -0.000215  1.007859  0.0  0.094947  0.036206  -0.000334  1.008492  0.0
H  H10  1  0.35426545  0.69705774  0.34857563  1  0.096452  0.000595  0.987314  0.0  0.107464  0.000542  1.069793  0.0  0.108451  0.000356  1.068794  0.0  0.074055  0.106538  0.000687  1.070964  0.0
H  H11  1  0.64574338  0.30293917  0.84857748  1  0.096527  -0.000599  0.987307  0.0  0.107531  -0.000542  1.06979  0.0  0.108523  -0.000356  1.068788  0.0  0.074092  0.106609  -0.000686  1.07096  0.0
H  H12  1  0.40449682  0.76807011  0.49823365  1  0.117274  -0.000247  0.97734  0.0  0.137081  -0.000225  1.039991  0.0  0.139038  -0.000113  1.040213  0.0  0.089114  0.135542  -0.000285  1.040062  0.0
H  H13  1  0.59550619  0.23192533  0.99822913  1  0.117252  0.000243  0.977486  0.0  0.137096  0.000224  1.040072  0.0  0.13905  0.000113  1.040297  0.0  0.089138  0.13556  0.000284  1.040146  0.0
H  H14  1  0.10552338  0.71936451  0.44788537  1  0.11623  -0.000901  0.95956  -0.001  0.135276  -0.000578  1.021473  -0.001  0.135869  -0.000344  1.02313  0.0  0.085096  0.134977  -0.000675  1.020249  -0.001
H  H15  1  0.89448996  0.28063859  0.94788454  1  0.116294  0.000898  0.959472  0.001  0.135295  0.000577  1.021454  0.001  0.13589  0.000343  1.023112  0.0  0.085078  0.135  0.000676  1.020226  0.001
H  H16  1  0.70649760  0.35630488  0.32912720  1  0.088867  -0.000455  0.889909  -0.001  0.101569  -0.000328  0.951298  -0.001  0.102247  -0.00021  0.95  0.0  0.129364  0.100761  -0.000489  0.952444  -0.001
H  H17  1  0.29351505  0.64369331  0.82912405  1  0.088782  0.000451  0.889904  0.001  0.10153  0.000328  0.951229  0.001  0.102208  0.00021  0.949931  0.0  0.129281  0.100719  0.00049  0.95238  0.001
H  H18  1  0.40496345  0.28654684  0.35239902  1  0.097819  -0.005099  0.925024  -0.007  0.106715  -0.003402  0.989587  -0.005  0.107572  -0.002388  0.988167  -0.003  0.12914  0.10559  -0.004093  0.990944  -0.005
H  H19  1  0.59502261  0.71345310  0.85239589  1  0.097745  0.005099  0.925023  0.007  0.106591  0.003405  0.989623  0.005  0.107444  0.00239  0.988207  0.003  0.129116  0.105469  0.004097  0.990969  0.005
H  H20  1  0.75969735  0.86474652  0.41161205  1  0.146515  -0.000576  0.978465  -0.001  0.156121  -0.000464  1.037923  -0.001  0.160033  -0.000336  1.036539  -0.001  0.10347  0.153213  -0.000531  1.039273  -0.001
H  H21  1  0.24030586  0.13524937  0.91161151  1  0.146484  0.000576  0.978512  0.001  0.15606  0.000464  1.038021  0.001  0.159971  0.000336  1.036638  0.001  0.103453  0.153154  0.000531  1.039371  0.001
H  H22  1  0.23555903  0.03150515  0.32271171  1  0.124372  0.000159  0.948521  0.0  0.145725  6.3e-05  1.008333  0.0  0.1473  8.4e-05  1.008877  0.0  0.098694  0.144579  2.3e-05  1.00795  0.0
H  H23  1  0.76443124  0.96849821  0.82270074  1  0.124378  -0.000157  0.948561  0.0  0.145749  -6.4e-05  1.008346  0.0  0.147322  -8.3e-05  1.008894  0.0  0.098726  0.144619  -2.3e-05  1.007948  0.0
H  H24  1  0.42407877  0.92886364  0.24192511  1  0.124775  3e-06  0.944609  0.0  0.143482  -2.2e-05  1.008237  0.0  0.144379  -3.8e-05  1.00854  0.0  0.097052  0.142539  -1.2e-05  1.008489  0.0
H  H25  1  0.57591423  0.07113415  0.74192862  1  0.124717  -1e-06  0.944667  0.0  0.143427  2.2e-05  1.008298  0.0  0.144322  3.8e-05  1.008601  0.0  0.096994  0.142483  1.2e-05  1.008553  0.0
H  H26  1  0.42558390  0.09923118  0.20392304  1  0.139119  0.000119  0.955481  0.0  0.158364  4.8e-05  1.015985  0.0  0.161639  5.4e-05  1.014279  0.0  0.102274  0.155789  4e-05  1.017542  0.0
H  H27  1  0.57440847  0.90077315  0.70392709  1  0.138951  -0.000117  0.955531  0.0  0.158288  -4.8e-05  1.015949  0.0  0.161563  -5.4e-05  1.014238  0.0  0.102241  0.15571  -4e-05  1.017502  0.0
H  H28  1  0.26532897  0.99733774  0.54931376  1  0.114552  0.000278  0.960376  0.0  0.133972  0.000127  1.02435  0.0  0.135419  0.000138  1.025125  0.0  0.09221  0.132981  0.000126  1.023699  0.0
H  H29  1  0.73467700  0.00266122  0.04931013  1  0.11459  -0.00028  0.960441  0.0  0.134007  -0.000127  1.024379  0.0  0.135454  -0.000138  1.02515  0.0  0.092228  0.133015  -0.000126  1.023731  0.0
H  H30  1  0.03870643  0.89619881  0.62653758  1  0.134782  0.000132  0.936788  0.0  0.15713  7.5e-05  0.991007  0.0  0.160272  6.7e-05  0.989329  0.0  0.098999  0.154554  7.8e-05  0.992602  0.0
H  H31  1  0.96129828  0.10380378  0.12654106  1  0.134792  -0.000135  0.936792  0.0  0.157136  -7.5e-05  0.99102  0.0  0.160251  -6.7e-05  0.989373  0.0  0.099004  0.154561  -7.8e-05  0.992619  0.0
H  H32  1  0.11725782  0.06089460  0.67869941  1  0.115582  0.000151  1.00526  0.0  0.131192  0.000102  1.073737  0.0  0.132335  0.000111  1.075053  0.0  0.083407  0.130447  7.9e-05  1.072714  0.0
H  H33  1  0.88273907  0.93911505  0.17869283  1  0.115693  -0.000153  1.005278  0.0  0.131268  -0.000102  1.073749  0.0  0.13241  -0.000111  1.075062  0.0  0.083404  0.130524  -7.9e-05  1.072725  0.0
C  C34  1  0.71456845  0.58278451  0.61390504  1  0.643505  0.001954  3.811179  0.003  0.59686  -0.002105  4.122896  -0.002  0.631765  -0.001507  4.118289  -0.001  0.212608  0.572988  -0.002416  4.124425  -0.001
C  C35  1  0.28542597  0.41719967  0.11391586  1  0.643935  -0.001939  3.811587  -0.003  0.597119  0.002116  4.123476  0.002  0.632009  0.001513  4.118875  0.001  0.212684  0.573255  0.002424  4.125001  0.001
C  C36  1  0.57514469  0.51857148  0.50291792  1  -0.072691  0.00327  3.548977  0.007  -0.091664  0.000394  3.787852  0.004  -0.092684  0.000872  3.80158  0.004  -0.005307  -0.090641  -0.000162  3.778962  0.003
C  C37  1  0.42485320  0.48143223  0.00291961  1  -0.073327  -0.003264  3.549118  -0.007  -0.092187  -0.000395  3.787874  -0.004  -0.093207  -0.000875  3.801604  -0.004  -0.005435  -0.091152  0.000161  3.778975  -0.003
C  C38  1  0.31131180  0.55916024  0.50090601  1  0.274151  -0.004795  3.596893  -0.005  0.256142  -0.00279  3.846541  -0.003  0.263162  -0.001957  3.857711  -0.002  -0.008204  0.251278  -0.003531  3.839063  -0.004
C  C39  1  0.68871047  0.44083942  0.00090581  1  0.274386  0.004791  3.596876  0.005  0.256357  0.002792  3.846532  0.003  0.263376  0.001957  3.857711  0.002  -0.008205  0.25149  0.003535  3.839052  0.004
C  C40  1  0.29269828  0.69450400  0.44555603  1  -0.374175  -0.000525  3.687586  0.0  -0.453521  -0.000179  3.925115  0.0  -0.457414  6.6e-05  3.935771  0.0  -0.261589  -0.450762  -0.00031  3.917818  0.0
C  C41  1  0.70729098  0.30549437  0.94555654  1  -0.374335  0.000549  3.687897  0.0  -0.453689  0.000182  3.925405  0.0  -0.457587  -6.5e-05  3.936061  0.0  -0.261628  -0.450941  0.00031  3.918115  0.0
C  C42  1  0.58386371  0.30189111  0.39459778  1  0.128366  0.001609  3.573543  0.005  0.05618  -0.001467  3.829435  0.002  0.066359  -0.000279  3.839269  0.002  0.047822  0.049842  -0.002391  3.823389  0.001
C  C43  1  0.41612123  0.69811304  0.89459860  1  0.128616  -0.00159  3.573437  -0.005  0.05644  0.001467  3.829307  -0.002  0.066623  0.000279  3.839129  -0.002  0.047949  0.050096  0.002392  3.823281  -0.001
C  C44  1  0.60824206  0.05408091  0.37317488  1  0.246605  0.003965  3.725814  0.004  0.236415  0.001239  3.987056  0.001  0.249593  0.001656  4.001972  0.002  0.110716  0.22804  0.000607  3.975985  0.001
C  C45  1  0.39176454  0.94591363  0.87317845  1  0.246574  -0.003978  3.725615  -0.004  0.236389  -0.001239  3.986877  -0.001  0.249565  -0.001657  4.001791  -0.002  0.110726  0.228016  -0.000607  3.975808  -0.001
C  C46  1  0.75781091  0.96906914  0.42943251  1  -0.332633  -0.005084  3.699891  -0.005  -0.359025  -0.002751  3.952586  -0.003  -0.370404  -0.002335  3.968209  -0.003  -0.116558  -0.350912  -0.003316  3.941732  -0.003
C  C47  1  0.24217926  0.03093440  0.92943909  1  -0.332586  0.005096  3.699605  0.005  -0.358939  0.00275  3.952306  0.003  -0.370314  0.002334  3.967931  0.003  -0.116537  -0.350835  0.003315  3.941464  0.003
C  C48  1  0.90503839  0.04412279  0.51334543  1  0.297339  0.002349  3.761033  0.002  0.300351  -0.000651  4.02552  -0.001  0.314916  0.000249  4.042484  0.0  0.106186  0.29064  -0.001038  4.014157  -0.001
C  C49  1  0.09496074  0.95587778  0.01334144  1  0.297409  -0.002366  3.76111  -0.002  0.300373  0.000652  4.02563  0.001  0.314928  -0.000249  4.042601  0.0  0.106154  0.290659  0.001038  4.014273  0.001
C  C50  1  0.41394578  0.02772375  0.28009841  1  -0.362134  -0.000792  3.699348  -0.001  -0.438605  -0.000513  3.932227  -0.001  -0.44252  -0.00042  3.938845  -0.001  -0.233784  -0.435474  -0.000557  3.927537  -0.001
C  C51  1  0.58604924  0.97228619  0.78010073  1  -0.361904  0.000779  3.6994  0.001  -0.438485  0.000516  3.932322  0.001  -0.442399  0.00042  3.938939  0.001  -0.233718  -0.435364  0.000557  3.927613  0.001
C  C52  1  0.09140529  0.99737437  0.59720951  1  -0.371054  -0.000269  3.703986  -0.001  -0.447955  -0.000321  3.932212  -0.001  -0.452993  -0.000227  3.939214  0.0  -0.243263  -0.443994  -0.000397  3.927226  -0.001
C  C53  1  0.90859629  0.00263070  0.09720562  1  -0.37127  0.000282  3.704171  0.001  -0.448121  0.000322  3.932418  0.001  -0.453133  0.000228  3.939436  0.0  -0.243286  -0.444155  0.000397  3.927434  0.001
N  N54  1  0.58559534  0.37502938  0.51153198  1  -0.377052  -0.122988  3.309544  -0.148  -0.343261  -0.086086  3.593148  -0.11  -0.376397  -0.07075  3.611014  -0.096  -0.487516  -0.324354  -0.093051  3.583684  -0.115
N  N55  1  0.41441648  0.62497214  0.01152395  1  -0.377016  0.123037  3.309949  0.148  -0.343262  0.08611  3.593475  0.11  -0.376399  0.070765  3.611346  0.096  -0.487539  -0.324359  0.09308  3.584019  0.115
N  N56  1  0.85106733  0.17051648  0.50810327  1  -0.343637  -0.062099  3.16367  -0.075  -0.326372  -0.048376  3.479077  -0.061  -0.354264  -0.042604  3.495431  -0.057  -0.286858  -0.310703  -0.050576  3.470957  -0.062
N  N57  1  0.14892954  0.82948125  0.00810041  1  -0.343613  0.062105  3.163734  0.075  -0.326324  0.048366  3.479131  0.061  -0.354208  0.042598  3.495477  0.057  -0.286821  -0.310652  0.050571  3.471013  0.062
N  N58  1  0.66936416  0.17463102  0.42291195  1  -0.018377  -0.002627  3.50233  -0.003  0.065399  -0.002307  3.722942  -0.003  0.054275  -0.00185  3.750244  -0.002  -0.157324  0.072446  -0.002739  3.704979  -0.003
N  N59  1  0.33062552  0.82536968  0.92291186  1  -0.018489  0.002627  3.502748  0.003  0.065246  0.002306  3.723387  0.003  0.054126  0.001851  3.750689  0.002  -0.157394  0.072285  0.002739  3.705429  0.003
Cl  Cl60  1  0.20672653  0.30665543  0.72562116  1  -0.51671  -0.084196  1.026662  -0.094  -0.485826  -0.058719  1.318609  -0.069  -0.509025  -0.048419  1.290956  -0.059  -0.261602  -0.471775  -0.06408  1.338858  -0.073
Cl  Cl61  1  0.79327291  0.69334850  0.22561727  1  -0.516735  0.084178  1.02661  0.094  -0.485892  0.05871  1.31853  0.069  -0.509086  0.048412  1.29086  0.059  -0.261655  -0.47186  0.064074  1.338776  0.073
O  O62  1  0.83706313  0.50529524  0.68209262  1  -0.618433  -0.085662  2.098736  -0.112  -0.576664  -0.058896  2.380076  -0.083  -0.620022  -0.047154  2.370421  -0.07  -0.334296  -0.548264  -0.065166  2.386814  -0.089
O  O63  1  0.16294817  0.49470443  0.18208406  1  -0.618542  0.085635  2.098827  0.112  -0.576664  0.058881  2.380192  0.083  -0.620016  0.047146  2.370521  0.07  -0.334303  -0.548278  0.06515  2.386934  0.089
O  O64  1  0.70693678  0.70121335  0.63688447  1  -0.557018  -0.03425  1.919574  -0.042  -0.525001  -0.016811  2.146529  -0.022  -0.553956  -0.008545  2.142057  -0.012  -0.296773  -0.501771  -0.026323  2.147547  -0.033
O  O65  1  0.29308733  0.29880864  0.13688653  1  -0.556965  0.034217  1.920405  0.042  -0.524915  0.016804  2.147486  0.022  -0.553856  0.008548  2.143006  0.012  -0.296705  -0.501706  0.026305  2.148516  0.033
O  O66  1  0.15496499  0.46086756  0.43948230  1  -0.599827  0.00123  2.059626  0.001  -0.558436  0.000449  2.299912  0.0  -0.578001  0.000531  2.284701  0.0  -0.411627  -0.544977  0.000394  2.310954  0.0
O  O67  1  0.84504089  0.53913375  0.93948998  1  -0.599964  -0.00123  2.059558  -0.001  -0.558477  -0.000451  2.299806  0.0  -0.578042  -0.000532  2.28459  0.0  -0.411626  -0.545023  -0.000395  2.310853  0.0
