# generated using pymatgen
data_AgH11C11BrN2
_symmetry_space_group_name_H-M   'P 1'
_cell_length_a   5.84754469
_cell_length_b   8.19900967
_cell_length_c   12.46929519
_cell_angle_alpha   103.55621226
_cell_angle_beta   99.22152594
_cell_angle_gamma   93.88365321
_symmetry_Int_Tables_number   1
_chemical_formula_structural   AgH11C11BrN2
_chemical_formula_sum   'Ag2 H22 C22 Br2 N4'
_cell_volume   570.19850573
_cell_formula_units_Z   2
loop_
 _symmetry_equiv_pos_site_id
 _symmetry_equiv_pos_as_xyz
  1  'x, y, z'
loop_
 _atom_site_type_symbol
 _atom_site_label
 _atom_site_symmetry_multiplicity
 _atom_site_fract_x
 _atom_site_fract_y
 _atom_site_fract_z
 _atom_site_occupancy
 _atom_site_hle17_bader_spin_density
 _atom_site_hle17_ddec_charge
 _atom_site_hle17_ddec_spin_density
 _atom_site_hle17_ddec_sum_bond_order
 _atom_site_hle17_magmom
 _atom_site_hse06_10hf_bader_spin_density
 _atom_site_hse06_10hf_ddec_charge
 _atom_site_hse06_10hf_ddec_spin_density
 _atom_site_hse06_10hf_ddec_sum_bond_order
 _atom_site_hse06_10hf_magmom
 _atom_site_hse06_bader_spin_density
 _atom_site_hse06_ddec_charge
 _atom_site_hse06_ddec_spin_density
 _atom_site_hse06_ddec_sum_bond_order
 _atom_site_hse06_magmom
 _atom_site_pbe_bader_spin_density
 _atom_site_pbe_cm5_charge
 _atom_site_pbe_ddec_charge
 _atom_site_pbe_ddec_spin_density
 _atom_site_pbe_ddec_sum_bond_order
 _atom_site_pbe_magmom
Ag  Ag0  1  0.30379573  0.09407711  0.52533454  1  0  0.271362  0  1.909498  0  0  0.150977  0  2.437443  0  0  0.174182  0  2.386172  0  0  0.235165  0.135513  0  2.471762  0
Ag  Ag1  1  0.69623044  0.90589759  0.47466400  1  0  0.271336  0  1.909585  0  0  0.150941  0  2.437556  0  0  0.174143  0  2.386288  0  0  0.235137  0.135476  0  2.471874  0
H  H2  1  0.99504801  0.42863161  0.84361665  1  0  0.115261  0  0.95992  0  0  0.128676  0  1.017374  0  0  0.131025  0  1.016556  0  0  0.125551  0.126999  0  1.018015  0
H  H3  1  0.00495197  0.57138423  0.15638777  1  0  0.115189  0  0.959921  0  0  0.128634  0  1.017346  0  0  0.131008  0  1.016496  0  0  0.12552  0.126963  0  1.017966  0
H  H4  1  0.95703526  0.60650934  0.67719898  1  0  0.113327  0  1.006279  0  0  0.120268  0  1.073105  0  0  0.123686  0  1.071102  0  0  0.105927  0.117734  0  1.074715  0
H  H5  1  0.04294350  0.39350239  0.32280436  1  0  0.113331  0  1.006286  0  0  0.120255  0  1.073132  0  0  0.123658  0  1.071142  0  0  0.105893  0.117719  0  1.074743  0
H  H6  1  0.56182266  0.33713532  0.42410150  1  0  0.080881  0  0.936031  0  0  0.091826  0  1.007955  0  0  0.093456  0  1.006153  0  0  0.101975  0.090534  0  1.009344  0
H  H7  1  0.43813692  0.66287128  0.57590716  1  0  0.080825  0  0.935986  0  0  0.091826  0  1.007889  0  0  0.093461  0  1.006087  0  0  0.101997  0.090534  0  1.009285  0
H  H8  1  0.74760692  0.53097456  0.47647710  1  0  0.082315  0  0.929582  0  0  0.093753  0  1.00148  0  0  0.095271  0  0.999997  0  0  0.104768  0.092501  0  1.002705  0
H  H9  1  0.25235563  0.46903068  0.52352673  1  0  0.082213  0  0.929765  0  0  0.093703  0  1.001623  0  0  0.095217  0  1.00015  0  0  0.104746  0.092487  0  1.002811  0
H  H10  1  0.55054126  0.03395820  0.72485757  1  0  0.080933  0  0.952076  0  0  0.093988  0  1.024576  0  0  0.09538  0  1.022459  0  0  0.099307  0.092846  0  1.026222  0
H  H11  1  0.44947747  0.96604273  0.27514185  1  0  0.080989  0  0.952055  0  0  0.094013  0  1.024552  0  0  0.095404  0  1.022435  0  0  0.09935  0.092871  0  1.026201  0
H  H12  1  0.84933495  0.06743596  0.78802887  1  0  0.083372  0  0.951787  0  0  0.095795  0  1.01783  0  0  0.09726  0  1.016544  0  0  0.097623  0.09468  0  1.018824  0
H  H13  1  0.15068925  0.93256637  0.21197269  1  0  0.08338  0  0.951871  0  0  0.095809  0  1.017857  0  0  0.097273  0  1.016569  0  0  0.097633  0.094699  0  1.018845  0
H  H14  1  0.31146842  0.28936254  0.83055149  1  0  0.083132  0  0.969688  0  0  0.090585  0  1.041332  0  0  0.093322  0  1.040178  0  0  0.092958  0.0886  0  1.042256  0
H  H15  1  0.68855652  0.71063459  0.16944376  1  0  0.083029  0  0.969714  0  0  0.090505  0  1.041395  0  0  0.09324  0  1.040245  0  0  0.09293  0.088526  0  1.042308  0
H  H16  1  0.19409954  0.37764460  0.01813759  1  0  0.069386  0  0.975234  0  0  0.07844  0  1.043502  0  0  0.080871  0  1.042842  0  0  0.090877  0.076724  0  1.04402  0
H  H17  1  0.80589809  0.62235466  0.98185870  1  0  0.069397  0  0.975312  0  0  0.078476  0  1.043552  0  0  0.080906  0  1.042892  0  0  0.090872  0.076755  0  1.044076  0
H  H18  1  0.43242003  0.32045054  0.18558585  1  0  0.081637  0  0.961928  0  0  0.093113  0  1.021428  0  0  0.095543  0  1.021174  0  0  0.092813  0.091367  0  1.021679  0
H  H19  1  0.56757901  0.67954502  0.81441161  1  0  0.081567  0  0.962033  0  0  0.093084  0  1.021513  0  0  0.095514  0  1.021258  0  0  0.092788  0.091338  0  1.021767  0
H  H20  1  0.79323346  0.17793288  0.16743486  1  0  0.083436  0  0.986594  0  0  0.09154  0  1.052249  0  0  0.094439  0  1.050913  0  0  0.084035  0.089434  0  1.053255  0
H  H21  1  0.20677485  0.82206787  0.83256391  1  0  0.083385  0  0.986694  0  0  0.091481  0  1.05235  0  0  0.09438  0  1.051015  0  0  0.084005  0.08938  0  1.053352  0
H  H22  1  0.91445682  0.09822329  0.98105115  1  0  0.083378  0  0.979273  0  0  0.095762  0  1.040974  0  0  0.098161  0  1.040328  0  0  0.095834  0.094  0  1.041567  0
H  H23  1  0.08555931  0.90177124  0.01894560  1  0  0.083432  0  0.979341  0  0  0.095819  0  1.04103  0  0  0.09822  0  1.04038  0  0  0.095843  0.094053  0  1.041626  0
C  C24  1  0.59768084  0.25720638  0.61915971  1  0  -0.082832  0  3.450164  0  0  -0.100901  0  3.792734  0  0  -0.094725  0  3.799678  0  0  0.047049  -0.104648  0  3.787354  0
C  C25  1  0.40232640  0.74279584  0.38084642  1  0  -0.082698  0  3.450066  0  0  -0.100769  0  3.792647  0  0  -0.094589  0  3.799586  0  0  0.04705  -0.104514  0  3.787264  0
C  C26  1  0.88260623  0.40152321  0.76231732  1  0  -0.050711  0  3.681251  0  0  -0.092162  0  3.940826  0  0  -0.090201  0  3.9591  0  0  0.003903  -0.093487  0  3.928707  0
C  C27  1  0.11738965  0.59848632  0.23768755  1  0  -0.050668  0  3.681289  0  0  -0.092152  0  3.940855  0  0  -0.09021  0  3.959114  0  0  0.003897  -0.093475  0  3.928735  0
C  C28  1  0.86489094  0.48907003  0.68133312  1  0  -0.051057  0  3.678699  0  0  -0.086194  0  3.930232  0  0  -0.084707  0  3.948088  0  0  0.002399  -0.087195  0  3.918487  0
C  C29  1  0.13509338  0.51094434  0.31867174  1  0  -0.050994  0  3.678872  0  0  -0.086106  0  3.930376  0  0  -0.084606  0  3.948252  0  0  0.002462  -0.087107  0  3.91863  0
C  C30  1  0.60616403  0.45113109  0.49343332  1  0  -0.0207  0  3.633838  0  0  -0.08637  0  3.894053  0  0  -0.083154  0  3.905459  0  0  -0.057944  -0.088245  0  3.886155  0
C  C31  1  0.39379242  0.54886649  0.50656904  1  0  -0.020612  0  3.63413  0  0  -0.086468  0  3.894521  0  0  -0.083269  0  3.905956  0  0  -0.057948  -0.088357  0  3.886582  0
C  C32  1  0.68754034  0.12787257  0.78120492  1  0  -0.047097  0  3.660609  0  0  -0.113208  0  3.901297  0  0  -0.109389  0  3.912727  0  0  -0.058042  -0.115641  0  3.893672  0
C  C33  1  0.31247314  0.87212706  0.21879560  1  0  -0.047151  0  3.660808  0  0  -0.113206  0  3.901352  0  0  -0.109381  0  3.912771  0  0  -0.058048  -0.115653  0  3.893751  0
C  C34  1  0.62030482  0.18824556  0.89432162  1  0  0.065403  0  3.760747  0  0  0.088907  0  3.99515  0  0  0.087616  0  4.02031  0  0  -0.017314  0.089779  0  3.97805  0
C  C35  1  0.37969394  0.81174629  0.10567770  1  0  0.065515  0  3.760816  0  0  0.089104  0  3.995043  0  0  0.087814  0  4.020203  0  0  -0.017274  0.089979  0  3.977945  0
C  C36  1  0.41685805  0.26664553  0.90504482  1  0  -0.114066  0  3.745486  0  0  -0.135956  0  3.99341  0  0  -0.138778  0  4.015709  0  0  -0.096303  -0.133971  0  3.978297  0
C  C37  1  0.58315855  0.73334010  0.09494748  1  0  -0.11387  0  3.745729  0  0  -0.135837  0  3.993578  0  0  -0.138659  0  4.015883  0  0  -0.096214  -0.133857  0  3.97847  0
C  C38  1  0.35120015  0.31495488  0.00959655  1  0  -0.072287  0  3.810007  0  0  -0.083805  0  4.059689  0  0  -0.085982  0  4.08272  0  0  -0.096423  -0.082258  0  4.044006  0
C  C39  1  0.64879976  0.68502838  0.99040803  1  0  -0.072351  0  3.810096  0  0  -0.083906  0  4.059819  0  0  -0.086084  0  4.082851  0  0  -0.096482  -0.082357  0  4.044136  0
C  C40  1  0.48611182  0.28349904  0.10426820  1  0  -0.073866  0  3.771737  0  0  -0.085775  0  4.013332  0  0  -0.0883  0  4.036017  0  0  -0.096056  -0.083987  0  3.99788  0
C  C41  1  0.51388933  0.71650149  0.89572688  1  0  -0.073811  0  3.77113  0  0  -0.08576  0  4.012738  0  0  -0.088284  0  4.035421  0  0  -0.096034  -0.083971  0  3.997287  0
C  C42  1  0.68884253  0.20503307  0.09416840  1  0  -0.066288  0  3.780294  0  0  -0.073834  0  4.0209  0  0  -0.076276  0  4.043937  0  0  -0.096012  -0.072069  0  4.005196  0
C  C43  1  0.31116470  0.79497629  0.90582591  1  0  -0.066162  0  3.780112  0  0  -0.073697  0  4.020722  0  0  -0.07614  0  4.043756  0  0  -0.095941  -0.071936  0  4.005021  0
C  C44  1  0.75572841  0.15884439  0.98955220  1  0  -0.12536  0  3.76312  0  0  -0.144223  0  4.004567  0  0  -0.147265  0  4.027311  0  0  -0.095107  -0.142043  0  3.989112  0
C  C45  1  0.24428268  0.84115014  0.01044664  1  0  -0.125624  0  3.763391  0  0  -0.144537  0  4.004807  0  0  -0.147581  0  4.027552  0  0  -0.095251  -0.142353  0  3.989354  0
Br  Br46  1  0.05945356  0.88863359  0.62465907  1  0  -0.505672  0  1.213438  0  0  -0.419818  0  1.578563  0  0  -0.440158  0  1.547088  0  0  -0.276232  -0.405291  0  1.599778  0
Br  Br47  1  0.94054881  0.11137227  0.37534568  1  0  -0.505791  0  1.213314  0  0  -0.419939  0  1.578414  0  0  -0.440276  0  1.546938  0  0  -0.276296  -0.40541  0  1.599628  0
N  N48  1  0.71826695  0.26123883  0.72289999  1  0  -0.038669  0  3.616534  0  0  0.056812  0  3.828741  0  0  0.042114  0  3.85803  0  0  -0.242436  0.066396  0  3.808854  0
N  N49  1  0.28173644  0.73876196  0.27710249  1  0  -0.038693  0  3.616565  0  0  0.056754  0  3.828778  0  0  0.042053  0  3.858072  0  0  -0.242412  0.066338  0  3.808895  0
N  N50  1  0.69031356  0.39880648  0.59509376  1  0  -0.045136  0  3.631158  0  0  0.051931  0  3.83919  0  0  0.036739  0  3.869684  0  0  -0.248278  0.061844  0  3.818456  0
N  N51  1  0.30967534  0.60120173  0.40491210  1  0  -0.045247  0  3.63144  0  0  0.051845  0  3.839501  0  0  0.036654  0  3.869999  0  0  -0.248263  0.061753  0  3.818774  0
