# generated using pymatgen
data_ZnH32C34(NO)4
_symmetry_space_group_name_H-M   'P 1'
_cell_length_a   8.66001093
_cell_length_b   11.77125669
_cell_length_c   16.28630000
_cell_angle_alpha   99.88110825
_cell_angle_beta   90.00000000
_cell_angle_gamma   111.58279813
_symmetry_Int_Tables_number   1
_chemical_formula_structural   ZnH32C34(NO)4
_chemical_formula_sum   'Zn2 H64 C68 N8 O8'
_cell_volume   1517.29419347
_cell_formula_units_Z   2
loop_
 _symmetry_equiv_pos_site_id
 _symmetry_equiv_pos_as_xyz
  1  'x, y, z'
loop_
 _atom_site_type_symbol
 _atom_site_label
 _atom_site_symmetry_multiplicity
 _atom_site_fract_x
 _atom_site_fract_y
 _atom_site_fract_z
 _atom_site_occupancy
 _atom_site_hle17_bader_spin_density
 _atom_site_hle17_ddec_charge
 _atom_site_hle17_ddec_spin_density
 _atom_site_hle17_ddec_sum_bond_order
 _atom_site_hle17_magmom
 _atom_site_hse06_10hf_bader_spin_density
 _atom_site_hse06_10hf_ddec_charge
 _atom_site_hse06_10hf_ddec_spin_density
 _atom_site_hse06_10hf_ddec_sum_bond_order
 _atom_site_hse06_10hf_magmom
 _atom_site_hse06_bader_spin_density
 _atom_site_hse06_ddec_charge
 _atom_site_hse06_ddec_spin_density
 _atom_site_hse06_ddec_sum_bond_order
 _atom_site_hse06_magmom
 _atom_site_pbe_bader_charge
 _atom_site_pbe_bader_spin_density
 _atom_site_pbe_cm5_charge
 _atom_site_pbe_ddec_charge
 _atom_site_pbe_ddec_spin_density
 _atom_site_pbe_ddec_sum_bond_order
 _atom_site_pbe_magmom
Zn  Zn0  1  0.33545194  0.99981639  0.74999215  1  0  1.002125  0  1.802753  0  0  0.823779  0  2.248876  0  0  0.874235  0  2.196281  0  1.264689  0  0.676998  0.78851  0  2.284751  0
Zn  Zn1  1  0.66454498  0.00017940  0.25000905  1  0  1.002058  0  1.802851  0  0  0.823742  0  2.248976  0  0  0.874201  0  2.196377  0  1.264837  0  0.676991  0.78847  0  2.284853  0
H  H2  1  0.48726908  0.83499387  0.77085501  1  0  0.136816  0  0.962825  0  0  0.155912  0  1.022199  0  0  0.157593  0  1.022181  0  0.098404  0  0.102049  0.154654  0  1.022308  0
H  H3  1  0.65247403  0.16431220  0.72906617  1  0  0.136823  0  0.962779  0  0  0.156001  0  1.022063  0  0  0.157687  0  1.022071  0  0.085867  0  0.102196  0.15475  0  1.022148  0
H  H4  1  0.51273270  0.16500471  0.22914776  1  0  0.136896  0  0.962663  0  0  0.155907  0  1.022139  0  0  0.157588  0  1.022124  0  0.098426  0  0.102102  0.154649  0  1.022256  0
H  H5  1  0.34752474  0.83568267  0.27093921  1  0  0.136809  0  0.962755  0  0  0.156055  0  1.021973  0  0  0.157742  0  1.021979  0  0.085897  0  0.102189  0.154802  0  1.022061  0
H  H6  1  0.48488553  0.78685266  0.86844347  1  0  0.130484  0  0.968235  0  0  0.148437  0  1.032372  0  0  0.149921  0  1.033423  0  0.073073  0  0.098318  0.147406  0  1.031636  0
H  H7  1  0.69804816  0.21248594  0.63147438  1  0  0.129816  0  0.96831  0  0  0.148079  0  1.032286  0  0  0.149542  0  1.033346  0  0.084146  0  0.098051  0.147068  0  1.031541  0
H  H8  1  0.51511579  0.21314499  0.13155858  1  0  0.130448  0  0.968185  0  0  0.148386  0  1.032336  0  0  0.149869  0  1.033389  0  0.073146  0  0.098311  0.147358  0  1.031598  0
H  H9  1  0.30195016  0.78751264  0.36853208  1  0  0.129782  0  0.968146  0  0  0.148098  0  1.032108  0  0  0.14956  0  1.03317  0  0.084023  0  0.098083  0.147087  0  1.031362  0
H  H10  1  0.67555784  0.84478664  0.82086584  1  0  0.131377  0  0.96319  0  0  0.150279  0  1.023219  0  0  0.151428  0  1.024855  0  0.092302  0  0.099674  0.149448  0  1.022124  0
H  H11  1  0.83070494  0.15431028  0.67888940  1  0  0.131581  0  0.961867  0  0  0.150064  0  1.022463  0  0  0.151168  0  1.024135  0  0.082338  0  0.099677  0.149261  0  1.021354  0
H  H12  1  0.32444372  0.15521380  0.17913716  1  0  0.131356  0  0.96323  0  0  0.150245  0  1.023257  0  0  0.151394  0  1.024896  0  0.092273  0  0.099657  0.149416  0  1.02216  0
H  H13  1  0.16929291  0.84568737  0.32111510  1  0  0.131615  0  0.961817  0  0  0.150118  0  1.022419  0  0  0.15122  0  1.024094  0  0.082331  0  0.099718  0.149314  0  1.021311  0
H  H14  1  0.82449204  0.23803452  0.08778601  1  0  0.117318  0  0.978087  0  0  0.125095  0  1.042782  0  0  0.129247  0  1.039461  0  0.110613  0  0.104706  0.122001  0  1.045372  0
H  H15  1  0.58549838  0.76092390  0.41216328  1  0  0.117943  0  0.976492  0  0  0.124845  0  1.042252  0  0  0.128927  0  1.039043  0  0.125964  0  0.104968  0.121847  0  1.044708  0
H  H16  1  0.17549497  0.76196685  0.91221650  1  0  0.117378  0  0.977985  0  0  0.125175  0  1.042654  0  0  0.12933  0  1.039335  0  0.110408  0  0.104745  0.122081  0  1.045243  0
H  H17  1  0.41450989  0.23908305  0.58783869  1  0  0.11791  0  0.976512  0  0  0.124806  0  1.042278  0  0  0.128891  0  1.039066  0  0.12594  0  0.104955  0.121806  0  1.044726  0
H  H18  1  0.47444032  0.29335741  0.86131665  1  0  0.110705  0  0.961665  0  0  0.121847  0  1.019117  0  0  0.124301  0  1.018332  0  0.083968  0  0.105716  0.120045  0  1.019756  0
H  H19  1  0.17991838  0.70645805  0.63850192  1  0  0.110381  0  0.961465  0  0  0.121456  0  1.018986  0  0  0.123955  0  1.018162  0  0.078561  0  0.105557  0.119628  0  1.019666  0
H  H20  1  0.52555246  0.70663932  0.13868282  1  0  0.110705  0  0.961667  0  0  0.121853  0  1.0191  0  0  0.12431  0  1.018318  0  0.083844  0  0.105726  0.120058  0  1.019731  0
H  H21  1  0.82007854  0.29353774  0.36149498  1  0  0.110388  0  0.961413  0  0  0.121423  0  1.018983  0  0  0.123919  0  1.018164  0  0.078538  0  0.105543  0.119593  0  1.019666  0
H  H22  1  0.78405600  0.43891973  0.09268324  1  0  0.08524  0  0.981476  0  0  0.095955  0  1.042021  0  0  0.097888  0  1.042653  0  0.064786  0  0.094324  0.09456  0  1.041636  0
H  H23  1  0.34372664  0.56031756  0.40724537  1  0  0.085841  0  0.980783  0  0  0.096356  0  1.04161  0  0  0.098347  0  1.042176  0  0.090097  0  0.094456  0.094938  0  1.041248  0
H  H24  1  0.21593124  0.56107979  0.90731781  1  0  0.085256  0  0.981452  0  0  0.095896  0  1.042081  0  0  0.097829  0  1.042713  0  0.064798  0  0.094305  0.094522  0  1.041675  0
H  H25  1  0.65628902  0.43968567  0.59275490  1  0  0.085771  0  0.98082  0  0  0.096338  0  1.04159  0  0  0.098329  0  1.042155  0  0.089937  0  0.094448  0.09492  0  1.041229  0
H  H26  1  0.61080634  0.46486337  0.98275748  1  0  0.078113  0  0.973363  0  0  0.090906  0  1.032994  0  0  0.093446  0  1.031842  0  0.015879  0  0.093886  0.089084  0  1.033894  0
H  H27  1  0.14439368  0.53476433  0.51713114  1  0  0.078553  0  0.972474  0  0  0.091463  0  1.032114  0  0  0.094028  0  1.030917  0  0.027154  0  0.093918  0.08961  0  1.033062  0
H  H28  1  0.38918366  0.53513243  0.01724127  1  0  0.078133  0  0.973382  0  0  0.090948  0  1.032985  0  0  0.093487  0  1.031836  0  0.015934  0  0.093914  0.089124  0  1.033886  0
H  H29  1  0.85561618  0.46523426  0.48286611  1  0  0.078558  0  0.972554  0  0  0.091446  0  1.032219  0  0  0.094011  0  1.031025  0  0.026945  0  0.093936  0.089597  0  1.033158  0
H  H30  1  0.70818685  0.88353664  0.97954675  1  0  0.077375  0  0.919529  0  0  0.096177  0  0.977064  0  0  0.096087  0  0.978404  0  0.057261  0  0.113101  0.096135  0  0.97628  0
H  H31  1  0.82380099  0.11560862  0.52018870  1  0  0.07749  0  0.918737  0  0  0.096268  0  0.976409  0  0  0.096208  0  0.977706  0  0.014119  0  0.113258  0.096217  0  0.975639  0
H  H32  1  0.29182003  0.11646752  0.02045426  1  0  0.077458  0  0.919495  0  0  0.096231  0  0.977019  0  0  0.09614  0  0.978369  0  0.057184  0  0.113127  0.096189  0  0.976234  0
H  H33  1  0.17620151  0.88439833  0.47981818  1  0  0.077433  0  0.918786  0  0  0.096238  0  0.976442  0  0  0.096175  0  0.977734  0  0.014154  0  0.113224  0.096187  0  0.97567  0
H  H34  1  0.75943900  0.01394227  0.06106687  1  0  0.093965  0  0.929541  0  0  0.106416  0  0.995253  0  0  0.107346  0  0.995038  0  0.10739  0  0.114523  0.105611  0  0.995564  0
H  H35  1  0.74495942  0.98502638  0.43877439  1  0  0.093758  0  0.931092  0  0  0.106478  0  0.99615  0  0  0.107383  0  0.996008  0  0.104093  0  0.114861  0.105726  0  0.996408  0
H  H36  1  0.24056164  0.98606097  0.93893525  1  0  0.093975  0  0.92956  0  0  0.106371  0  0.995286  0  0  0.107334  0  0.995036  0  0.107299  0  0.114524  0.105569  0  0.995597  0
H  H37  1  0.25504586  0.01498150  0.56123015  1  0  0.093727  0  0.931108  0  0  0.106453  0  0.996179  0  0  0.107357  0  0.99603  0  0.104323  0  0.114848  0.105702  0  0.996437  0
H  H38  1  0.00917671  0.12875984  0.98750082  1  0  0.06601  0  0.93093  0  0  0.08622  0  0.99035  0  0  0.086684  0  0.990624  0  0.009659  0  0.091657  0.085814  0  0.990234  0
H  H39  1  0.88100516  0.87095430  0.51238439  1  0  0.065941  0  0.930289  0  0  0.086093  0  0.989785  0  0  0.086543  0  0.990054  0  0.006958  0  0.091707  0.085685  0  0.989686  0
H  H40  1  0.99082188  0.87125083  0.01250284  1  0  0.065995  0  0.930894  0  0  0.086211  0  0.990354  0  0  0.086675  0  0.990622  0  0.009741  0  0.091638  0.085809  0  0.990229  0
H  H41  1  0.11899757  0.12905079  0.48761796  1  0  0.066055  0  0.930241  0  0  0.086162  0  0.989731  0  0  0.086618  0  0.990001  0  0.007095  0  0.091743  0.085753  0  0.989636  0
H  H42  1  0.96304167  0.99862100  0.90716936  1  0  0.088755  0  0.936064  0  0  0.106175  0  0.994222  0  0  0.107406  0  0.994334  0  0.075967  0  0.095172  0.10518  0  0.994328  0
H  H43  1  0.96421146  0.00110895  0.59278167  1  0  0.087874  0  0.936459  0  0  0.105666  0  0.99425  0  0  0.106868  0  0.994384  0  0.053726  0  0.094963  0.104682  0  0.994342  0
H  H44  1  0.03696177  0.00139246  0.09283280  1  0  0.088743  0  0.936201  0  0  0.106218  0  0.994318  0  0  0.107447  0  0.994434  0  0.075992  0  0.09518  0.105219  0  0.994423  0
H  H45  1  0.03579196  0.99889521  0.40722241  1  0  0.087907  0  0.936406  0  0  0.105687  0  0.994192  0  0  0.106888  0  0.994327  0  0.053829  0  0.094964  0.104702  0  0.994286  0
H  H46  1  0.92606752  0.70577670  0.86667061  1  0  0.092032  0  0.964726  0  0  0.102536  0  1.027155  0  0  0.105787  0  1.024976  0  0.088798  0  0.101406  0.100219  0  1.028715  0
H  H47  1  0.22147957  0.29474243  0.63349436  1  0  0.091883  0  0.966005  0  0  0.102693  0  1.02801  0  0  0.10576  0  1.026065  0  0.090079  0  0.101621  0.100481  0  1.029462  0
H  H48  1  0.07392475  0.29420980  0.13332821  1  0  0.092021  0  0.964784  0  0  0.102523  0  1.027207  0  0  0.105774  0  1.025033  0  0.088731  0  0.101396  0.100206  0  1.028767  0
H  H49  1  0.77851712  0.70525057  0.36650036  1  0  0.091892  0  0.965891  0  0  0.102712  0  1.027888  0  0  0.105779  0  1.025939  0  0.090192  0  0.101646  0.100497  0  1.029344  0
H  H50  1  0.64013646  0.55466220  0.87774550  1  0  0.080263  0  0.976583  0  0  0.091786  0  1.036834  0  0  0.094214  0  1.036353  0  0.051678  0  0.09622  0.090066  0  1.037234  0
H  H51  1  0.08659964  0.44578815  0.62241646  1  0  0.080426  0  0.977167  0  0  0.092166  0  1.03718  0  0  0.09459  0  1.036712  0  0.051012  0  0.096141  0.090448  0  1.037573  0
H  H52  1  0.35985557  0.44531687  0.12224625  1  0  0.080416  0  0.976438  0  0  0.091911  0  1.036707  0  0  0.094337  0  1.036228  0  0.051733  0  0.096287  0.09019  0  1.037104  0
H  H53  1  0.91340306  0.55420765  0.37757614  1  0  0.080424  0  0.977192  0  0  0.092133  0  1.03723  0  0  0.094558  0  1.036761  0  0.050966  0  0.096101  0.090411  0  1.037623  0
H  H54  1  0.42290338  0.49790224  0.76169980  1  0  0.085031  0  0.974238  0  0  0.094705  0  1.036071  0  0  0.09672  0  1.036437  0  0.084875  0  0.096761  0.093247  0  1.035857  0
H  H55  1  0.92528219  0.50200061  0.73828741  1  0  0.085031  0  0.97294  0  0  0.094294  0  1.035286  0  0  0.096267  0  1.035694  0  0.067985  0  0.096754  0.092852  0  1.035066  0
H  H56  1  0.57709399  0.50208984  0.23829172  1  0  0.084898  0  0.974364  0  0  0.094634  0  1.036138  0  0  0.096649  0  1.036505  0  0.084913  0  0.096718  0.093175  0  1.035923  0
H  H57  1  0.07472678  0.49800541  0.26170523  1  0  0.085027  0  0.973044  0  0  0.094279  0  1.035386  0  0  0.096251  0  1.035797  0  0.068007  0  0.09674  0.092835  0  1.035167  0
H  H58  1  0.49202389  0.59385931  0.63476631  1  0  0.085898  0  0.964614  0  0  0.095157  0  1.026765  0  0  0.097123  0  1.027831  0  0.082006  0  0.097379  0.093762  0  1.026104  0
H  H59  1  0.89805987  0.40577303  0.86508297  1  0  0.085907  0  0.964619  0  0  0.095567  0  1.026445  0  0  0.097547  0  1.027503  0  0.084469  0  0.097401  0.094138  0  1.0258  0
H  H60  1  0.50797559  0.40614392  0.36523089  1  0  0.085751  0  0.964716  0  0  0.09506  0  1.02681  0  0  0.097026  0  1.027878  0  0.082088  0  0.097344  0.093665  0  1.02615  0
H  H61  1  0.10194148  0.59423392  0.13491163  1  0  0.085949  0  0.964655  0  0  0.0956  0  1.026483  0  0  0.097582  0  1.027528  0  0.084417  0  0.097411  0.094169  0  1.025837  0
H  H62  1  0.77973156  0.74621754  0.62491714  1  0  0.09882  0  0.955116  0  0  0.106302  0  1.020409  0  0  0.110161  0  1.017851  0  0.0964  0  0.10106  0.103451  0  1.022351  0
H  H63  1  0.03361813  0.25358955  0.87497899  1  0  0.099318  0  0.954622  0  0  0.106935  0  1.019789  0  0  0.110719  0  1.017297  0  0.093004  0  0.101681  0.104218  0  1.02158  0
H  H64  1  0.22026817  0.25378848  0.37508656  1  0  0.098759  0  0.955123  0  0  0.106235  0  1.020441  0  0  0.110064  0  1.017918  0  0.096405  0  0.101042  0.103383  0  1.022384  0
H  H65  1  0.96637882  0.74641554  0.12501783  1  0  0.099407  0  0.954615  0  0  0.107024  0  1.019746  0  0  0.110813  0  1.017256  0  0.093663  0  0.101736  0.104305  0  1.021542  0
C  C66  1  0.55610715  0.85565862  0.83119362  1  0  -0.404957  0  3.712859  0  0  -0.483743  0  3.947207  0  0  -0.488735  0  3.953315  0  -0.074701  0  -0.237082  -0.480144  0  3.942825  0
C  C67  1  0.70043219  0.14359354  0.66866561  1  0  -0.404481  0  3.711634  0  0  -0.483086  0  3.946835  0  0  -0.487974  0  3.953003  0  -0.075457  0  -0.236884  -0.479557  0  3.942425  0
C  C68  1  0.44389302  0.14433904  0.16880903  1  0  -0.404988  0  3.712782  0  0  -0.483677  0  3.947111  0  0  -0.488669  0  3.953225  0  -0.074644  0  -0.237136  -0.480084  0  3.942729  0
C  C69  1  0.29956451  0.85640411  0.33133951  1  0  -0.404473  0  3.711327  0  0  -0.483195  0  3.946545  0  0  -0.488082  0  3.952715  0  -0.075372  0  -0.236949  -0.479669  0  3.942132  0
C  C70  1  0.58208181  0.98309292  0.87416023  1  0  0.426844  0  3.657173  0  0  0.398907  0  3.929961  0  0  0.419647  0  3.939508  0  0.993781  0  0.24039  0.385231  0  3.922961  0
C  C71  1  0.59867597  0.01619177  0.62574110  1  0  0.428419  0  3.658119  0  0  0.399156  0  3.931726  0  0  0.419839  0  3.941399  0  0.987076  0  0.240086  0.385483  0  3.924695  0
C  C72  1  0.41791582  0.01690659  0.12584204  1  0  0.426919  0  3.657186  0  0  0.399024  0  3.929871  0  0  0.419764  0  3.939418  0  0.993692  0  0.24046  0.385346  0  3.922874  0
C  C73  1  0.40132466  0.98380682  0.37426228  1  0  0.428345  0  3.657851  0  0  0.39911  0  3.931585  0  0  0.419789  0  3.941263  0  0.987516  0  0.240068  0.385449  0  3.924536  0
C  C74  1  0.67821980  0.15770219  0.96897197  1  0  0.102055  0  3.79149  0  0  0.088859  0  4.041779  0  0  0.092786  0  4.064653  0  0.306618  0  0.091412  0.086207  0  4.026384  0
C  C75  1  0.51976399  0.84148954  0.53097863  1  0  0.103356  0  3.791883  0  0  0.089618  0  4.042107  0  0  0.093549  0  4.064971  0  0.33205  0  0.091015  0.086963  0  4.026711  0
C  C76  1  0.32177783  0.84229732  0.03102662  1  0  0.102068  0  3.791534  0  0  0.088835  0  4.041849  0  0  0.092761  0  4.064723  0  0.30656  0  0.091374  0.086184  0  4.026452  0
C  C77  1  0.48023572  0.15851183  0.46902265  1  0  0.103348  0  3.791932  0  0  0.089648  0  4.042131  0  0  0.09358  0  4.064994  0  0.332101  0  0.091027  0.086991  0  4.026737  0
C  C78  1  0.57695543  0.17042954  0.90561928  1  0  0.151652  0  3.82975  0  0  0.146649  0  4.082588  0  0  0.150563  0  4.105165  0  0.358088  0  0.086275  0.143908  0  4.067432  0
C  C79  1  0.40574855  0.82900573  0.59430994  1  0  0.150835  0  3.830203  0  0  0.145543  0  4.083482  0  0  0.149474  0  4.106089  0  0.367673  0  0.086517  0.142807  0  4.068293  0
C  C80  1  0.42304451  0.82956997  0.09438053  1  0  0.151668  0  3.82962  0  0  0.146655  0  4.082485  0  0  0.150572  0  4.105059  0  0.358066  0  0.086254  0.143914  0  4.067333  0
C  C81  1  0.59425323  0.17099285  0.40569099  1  0  0.15074  0  3.830282  0  0  0.145491  0  4.083544  0  0  0.149421  0  4.106153  0  0.36767  0  0.086489  0.142755  0  4.068359  0
C  C82  1  0.75458924  0.25216177  0.03734527  1  0  -0.155522  0  3.759157  0  0  -0.172888  0  4.010299  0  0  -0.176053  0  4.029017  0  -0.010675  0  -0.09802  -0.170659  0  3.997753  0
C  C83  1  0.50144064  0.74694910  0.46261801  1  0  -0.155467  0  3.756417  0  0  -0.172162  0  4.00836  0  0  -0.175284  0  4.02708  0  -0.021134  0  -0.097754  -0.169992  0  3.995768  0
C  C84  1  0.24540863  0.74784053  0.96265796  1  0  -0.15566  0  3.759234  0  0  -0.173036  0  4.010385  0  0  -0.176207  0  4.0291  0  -0.010485  0  -0.098091  -0.170806  0  3.997842  0
C  C85  1  0.49856946  0.25305228  0.53738449  1  0  -0.155457  0  3.756501  0  0  -0.172141  0  4.008455  0  0  -0.175267  0  4.027176  0  -0.021211  0  -0.097757  -0.169962  0  3.995856  0
C  C86  1  0.55152485  0.28191004  0.90948206  1  0  -0.136206  0  3.745382  0  0  -0.156244  0  3.997813  0  0  -0.15782  0  4.017418  0  -0.007004  0  -0.092411  -0.155091  0  3.984554  0
C  C87  1  0.26853614  0.71766838  0.59039676  1  0  -0.135268  0  3.74455  0  0  -0.155017  0  3.996994  0  0  -0.156648  0  4.016562  0  -0.025293  0  -0.092109  -0.153856  0  3.983772  0
C  C88  1  0.44847163  0.71808947  0.09051714  1  0  -0.136246  0  3.745588  0  0  -0.156282  0  3.998019  0  0  -0.157863  0  4.017626  0  -0.006951  0  -0.092439  -0.155134  0  3.984755  0
C  C89  1  0.73146609  0.28232648  0.40960187  1  0  -0.135189  0  3.744474  0  0  -0.154899  0  3.99691  0  0  -0.156532  0  4.016485  0  -0.025295  0  -0.092066  -0.153742  0  3.983695  0
C  C90  1  0.72791802  0.36260211  0.04029065  1  0  -0.077784  0  3.802906  0  0  -0.090977  0  4.05144  0  0  -0.092644  0  4.074006  0  -0.039447  0  -0.101793  -0.089768  0  4.036067  0
C  C91  1  0.36404464  0.63666027  0.45962511  1  0  -0.078876  0  3.802469  0  0  -0.092088  0  4.051349  0  0  -0.093811  0  4.073889  0  -0.066366  0  -0.102154  -0.090846  0  4.035979  0
C  C92  1  0.27207845  0.63739740  0.95970917  1  0  -0.07772  0  3.802693  0  0  -0.09085  0  4.051249  0  0  -0.092516  0  4.073813  0  -0.039422  0  -0.101763  -0.089659  0  4.035866  0
C  C93  1  0.63596500  0.36334017  0.54037359  1  0  -0.078671  0  3.802484  0  0  -0.091915  0  4.051343  0  0  -0.093638  0  4.073884  0  -0.066271  0  -0.102089  -0.090676  0  4.035974  0
C  C94  1  0.62841730  0.37686600  0.97743985  1  0  -0.100411  0  3.824888  0  0  -0.117624  0  4.083543  0  0  -0.120894  0  4.106337  0  -0.020772  0  -0.106447  -0.115372  0  4.068042  0
C  C95  1  0.25022563  0.62265015  0.52243862  1  0  -0.100897  0  3.824369  0  0  -0.118117  0  4.083005  0  0  -0.121405  0  4.105816  0  -0.026345  0  -0.106496  -0.115843  0  4.067494  0
C  C96  1  0.37158288  0.62313630  0.02256032  1  0  -0.100457  0  3.825037  0  0  -0.117684  0  4.08367  0  0  -0.120953  0  4.106464  0  -0.020778  0  -0.106454  -0.115431  0  4.068174  0
C  C97  1  0.74978516  0.37735029  0.47756009  1  0  -0.101108  0  3.824481  0  0  -0.118313  0  4.083157  0  0  -0.121603  0  4.105971  0  -0.02612  0  -0.106564  -0.11604  0  4.067647  0
C  C98  1  0.76989073  0.98515466  0.99417611  1  0  0.014402  0  3.606237  0  0  -0.046611  0  3.866156  0  0  -0.041875  0  3.87703  0  0.289988  0  -0.051962  -0.049659  0  3.858759  0
C  C99  1  0.78418393  0.01399339  0.50566345  1  0  0.014214  0  3.607083  0  0  -0.046922  0  3.866039  0  0  -0.042238  0  3.876962  0  0.342436  0  -0.052346  -0.049998  0  3.858631  0
C  C100  1  0.23011222  0.01484857  0.00582601  1  0  0.014266  0  3.606345  0  0  -0.046608  0  3.866171  0  0  -0.04188  0  3.877  0  0.289849  0  -0.052012  -0.04967  0  3.858794  0
C  C101  1  0.21581926  0.98601263  0.49434147  1  0  0.014242  0  3.607143  0  0  -0.046942  0  3.86612  0  0  -0.042239  0  3.87702  0  0.342148  0  -0.052365  -0.050017  0  3.85871  0
C  C102  1  0.95236607  0.02641120  0.97425754  1  0  -0.124045  0  3.671448  0  0  -0.165691  0  3.93445  0  0  -0.167118  0  3.947474  0  -0.003489  0  -0.162654  -0.164526  0  3.925417  0
C  C103  1  0.92590898  0.97329086  0.52567468  1  0  -0.12264  0  3.669598  0  0  -0.164713  0  3.932702  0  0  -0.166019  0  3.945528  0  0.021381  0  -0.162597  -0.163607  0  3.923776  0
C  C104  1  0.04763898  0.97359854  0.02574477  1  0  -0.124066  0  3.671566  0  0  -0.165892  0  3.934672  0  0  -0.167314  0  3.947697  0  -0.032053  0  -0.16273  -0.164716  0  3.925628  0
C  C105  1  0.07409422  0.02671516  0.47432963  1  0  -0.122852  0  3.669572  0  0  -0.16478  0  3.932552  0  0  -0.166101  0  3.945384  0  -0.001774  0  -0.162582  -0.163676  0  3.923628  0
C  C106  1  0.04044911  0.82776851  0.73651171  1  0  0.612141  0  3.94888  0  0  0.565058  0  4.239293  0  0  0.59875  0  4.233131  0  1.546925  0  0.188161  0.542294  0  4.242694  0
C  C107  1  0.21314787  0.17223844  0.76355902  1  0  0.612727  0  3.948268  0  0  0.565814  0  4.238466  0  0  0.599442  0  4.232317  0  1.556123  0  0.189055  0.543098  0  4.241858  0
C  C108  1  0.95954366  0.17222822  0.26348898  1  0  0.612076  0  3.949031  0  0  0.564951  0  4.239493  0  0  0.598644  0  4.233339  0  1.547055  0  0.18821  0.542191  0  4.242895  0
C  C109  1  0.78684744  0.82775642  0.23644083  1  0  0.612702  0  3.948192  0  0  0.565777  0  4.238385  0  0  0.599401  0  4.232239  0  1.55602  0  0.189054  0.543058  0  4.241781  0
C  C110  1  0.87051492  0.73439650  0.74458468  1  0  -0.070871  0  3.773656  0  0  -0.045794  0  4.003426  0  0  -0.053677  0  4.025992  0  -0.004112  0  -0.021067  -0.0408  0  3.988291  0
C  C111  1  0.13662601  0.26564019  0.75543019  1  0  -0.070054  0  3.772513  0  0  -0.044928  0  4.002166  0  0  -0.052688  0  4.024548  0  -0.017036  0  -0.020736  -0.040041  0  3.987215  0
C  C112  1  0.12948040  0.26560301  0.25541514  1  0  -0.070727  0  3.773429  0  0  -0.045647  0  4.003235  0  0  -0.053527  0  4.025798  0  -0.004148  0  -0.021047  -0.040659  0  3.988104  0
C  C113  1  0.86337509  0.73435932  0.24456717  1  0  -0.070022  0  3.772617  0  0  -0.044844  0  4.002198  0  0  -0.052601  0  4.024581  0  -0.01655  0  -0.020631  -0.039948  0  3.987229  0
C  C114  1  0.83065706  0.68029504  0.81597076  1  0  -0.082737  0  3.753893  0  0  -0.105571  0  3.999561  0  0  -0.104956  0  4.01879  0  -0.103882  0  -0.086628  -0.105751  0  3.986496  0
C  C115  1  0.15118196  0.31993686  0.68410700  1  0  -0.082577  0  3.754808  0  0  -0.105717  0  4.000588  0  0  -0.105  0  4.019838  0  -0.119982  0  -0.087057  -0.105956  0  3.987498  0
C  C116  1  0.16933961  0.31969332  0.18402583  1  0  -0.082765  0  3.754008  0  0  -0.10559  0  3.99967  0  0  -0.104976  0  4.018892  0  -0.103675  0  -0.086579  -0.105776  0  3.986609  0
C  C117  1  0.84881612  0.68005894  0.31588806  1  0  -0.082513  0  3.754833  0  0  -0.105682  0  4.000593  0  0  -0.104958  0  4.01983  0  -0.120809  0  -0.087089  -0.105925  0  3.987502  0
C  C118  1  0.67026407  0.59556875  0.82189003  1  0  -0.082739  0  3.786974  0  0  -0.09195  0  4.032031  0  0  -0.095602  0  4.053991  0  -0.041312  0  -0.093826  -0.089535  0  4.017046  0
C  C119  1  0.07544161  0.40461296  0.67817413  1  0  -0.084096  0  3.787993  0  0  -0.093604  0  4.033192  0  0  -0.097256  0  4.055076  0  -0.087667  0  -0.094371  -0.091185  0  4.018238  0
C  C120  1  0.32973607  0.40441961  0.17810471  1  0  -0.083046  0  3.787092  0  0  -0.092245  0  4.032168  0  0  -0.095895  0  4.054129  0  -0.041539  0  -0.093987  -0.089826  0  4.017178  0
C  C121  1  0.92455902  0.59538563  0.32182127  1  0  -0.084094  0  3.788002  0  0  -0.093581  0  4.033188  0  0  -0.09723  0  4.055063  0  -0.087185  0  -0.094302  -0.091158  0  4.018233  0
C  C122  1  0.54829140  0.56371319  0.75677960  1  0  -0.056574  0  3.749735  0  0  -0.068439  0  3.988983  0  0  -0.068368  0  4.009163  0  -0.051542  0  -0.086025  -0.068255  0  3.975136  0
C  C123  1  0.98489442  0.43619523  0.74316533  1  0  -0.055668  0  3.748117  0  0  -0.067097  0  3.987486  0  0  -0.06698  0  4.007635  0  -0.00698  0  -0.085617  -0.066938  0  3.973644  0
C  C124  1  0.45170621  0.43628167  0.24321535  1  0  -0.056303  0  3.749732  0  0  -0.068199  0  3.98896  0  0  -0.068132  0  4.009143  0  -0.051548  0  -0.085932  -0.068013  0  3.97511  0
C  C125  1  0.01511177  0.56380986  0.25682904  1  0  -0.055735  0  3.748198  0  0  -0.067149  0  3.987536  0  0  -0.067033  0  4.007686  0  -0.007083  0  -0.08569  -0.066991  0  3.973694  0
C  C126  1  0.58710879  0.61720022  0.68540941  1  0  -0.076657  0  3.78003  0  0  -0.083945  0  4.023247  0  0  -0.087104  0  4.044708  0  -0.059691  0  -0.090123  -0.081885  0  4.008601  0
C  C127  1  0.96997636  0.38257620  0.81447985  1  0  -0.077219  0  3.779317  0  0  -0.084856  0  4.022324  0  0  -0.08803  0  4.043743  0  -0.046966  0  -0.090503  -0.082768  0  4.007712  0
C  C128  1  0.41289000  0.38279929  0.31458673  1  0  -0.076613  0  3.78005  0  0  -0.083943  0  4.023291  0  0  -0.087101  0  4.044746  0  -0.059687  0  -0.090095  -0.081883  0  4.008643  0
C  C129  1  0.03003100  0.61743354  0.18551632  1  0  -0.077236  0  3.779411  0  0  -0.084878  0  4.022439  0  0  -0.088049  0  4.043859  0  -0.047187  0  -0.090455  -0.082784  0  4.007821  0
C  C130  1  0.74724478  0.70216541  0.67947248  1  0  -0.075526  0  3.728943  0  0  -0.098055  0  3.970864  0  0  -0.097723  0  3.989946  0  -0.097409  0  -0.083659  -0.097972  0  3.957911  0
C  C131  1  0.04523692  0.29767701  0.82044276  1  0  -0.076063  0  3.729917  0  0  -0.09888  0  3.97236  0  0  -0.098494  0  3.991437  0  -0.068979  0  -0.084213  -0.098875  0  3.95938  0
C  C132  1  0.25275355  0.29783782  0.32052841  1  0  -0.075476  0  3.728798  0  0  -0.098004  0  3.970755  0  0  -0.097651  0  3.989854  0  -0.097376  0  -0.083685  -0.097922  0  3.957806  0
C  C133  1  0.95475933  0.70232436  0.17955176  1  0  -0.076143  0  3.729915  0  0  -0.098969  0  3.972338  0  0  -0.098592  0  3.991419  0  -0.069515  0  -0.084303  -0.098964  0  3.95935  0
N  N134  1  0.67761670  0.03824433  0.94745052  1  0  -0.16827  0  3.462283  0  0  -0.087281  0  3.689709  0  0  -0.104865  0  3.712311  0  -1.219208  0  -0.23901  -0.075603  0  3.67423  0
N  N135  1  0.63890155  0.96086189  0.55246613  1  0  -0.171082  0  3.466144  0  0  -0.08878  0  3.692698  0  0  -0.10634  0  3.715365  0  -1.25089  0  -0.239218  -0.077104  0  3.677198  0
N  N136  1  0.32238186  0.96175704  0.05255198  1  0  -0.168294  0  3.462318  0  0  -0.087284  0  3.689632  0  0  -0.104869  0  3.712246  0  -1.218898  0  -0.238949  -0.075606  0  3.674152  0
N  N137  1  0.36110256  0.03914134  0.44753722  1  0  -0.171002  0  3.466023  0  0  -0.088776  0  3.692699  0  0  -0.106341  0  3.715363  0  -1.250979  0  -0.239227  -0.077105  0  3.677197  0
N  N138  1  0.51808798  0.05939894  0.84772144  1  0  -0.494549  0  3.171468  0  0  -0.427142  0  3.455931  0  0  -0.449923  0  3.465501  0  -1.23013  0  -0.349849  -0.411722  0  3.449146  0
N  N139  1  0.45818388  0.94010047  0.65217091  1  0  -0.49401  0  3.170951  0  0  -0.425963  0  3.455556  0  0  -0.448735  0  3.465131  0  -1.206717  0  -0.349185  -0.410556  0  3.4488  0
N  N140  1  0.48190872  0.94059871  0.15227998  1  0  -0.494551  0  3.171478  0  0  -0.427149  0  3.455903  0  0  -0.44993  0  3.46547  0  -1.230073  0  -0.349861  -0.41173  0  3.449118  0
N  N141  1  0.54181721  0.05989904  0.34783198  1  0  -0.493845  0  3.170897  0  0  -0.425886  0  3.45559  0  0  -0.448659  0  3.465168  0  -1.207068  0  -0.34913  -0.410484  0  3.448828  0
O  O142  1  0.15886223  0.84703615  0.79186195  1  0  -0.644583  0  1.975284  0  0  -0.578136  0  2.226319  0  0  -0.606694  0  2.215253  0  -1.172576  0  -0.331846  -0.558152  0  2.233174  0
O  O143  1  0.31228363  0.15288436  0.70824288  1  0  -0.64579  0  1.975356  0  0  -0.579069  0  2.225963  0  0  -0.607582  0  2.214842  0  -1.176075  0  -0.332705  -0.559115  0  2.232867  0
O  O144  1  0.84113195  0.15296802  0.20814274  1  0  -0.644591  0  1.975415  0  0  -0.578129  0  2.226467  0  0  -0.606676  0  2.215372  0  -1.17262  0  -0.331885  -0.558125  0  2.233267  0
O  O145  1  0.68771121  0.84710958  0.29175870  1  0  -0.645768  0  1.975274  0  0  -0.579089  0  2.225956  0  0  -0.607603  0  2.21484  0  -1.176119  0  -0.332727  -0.559136  0  2.232864  0
O  O146  1  0.06425881  0.88443645  0.67580911  1  0  -0.614772  0  1.952537  0  0  -0.565065  0  2.188137  0  0  -0.590089  0  2.18074  0  -1.170831  0  -0.318177  -0.547517  0  2.192467  0
O  O147  1  0.17993847  0.11544316  0.82419856  1  0  -0.61505  0  1.953345  0  0  -0.565455  0  2.188613  0  0  -0.590463  0  2.181245  0  -1.171033  0  -0.318502  -0.547988  0  2.193045  0
O  O148  1  0.93574063  0.11555284  0.32418699  1  0  -0.61468  0  1.952605  0  0  -0.564965  0  2.188246  0  0  -0.589971  0  2.180809  0  -1.171109  0  -0.318148  -0.547405  0  2.192537  0
O  O149  1  0.82005085  0.88455822  0.17580579  1  0  -0.615083  0  1.953375  0  0  -0.565486  0  2.188667  0  0  -0.590508  0  2.181322  0  -1.170899  0  -0.318554  -0.548025  0  2.193105  0
