# generated using pymatgen
data_AgH6C4N3
_symmetry_space_group_name_H-M   'P 1'
_cell_length_a   11.70440891
_cell_length_b   11.93645398
_cell_length_c   21.21116350
_cell_angle_alpha   90.00005406
_cell_angle_beta   90.00002163
_cell_angle_gamma   115.79237338
_symmetry_Int_Tables_number   1
_chemical_formula_structural   AgH6C4N3
_chemical_formula_sum   'Ag16 H96 C64 N48'
_cell_volume   2668.17033938
_cell_formula_units_Z   16
loop_
 _symmetry_equiv_pos_site_id
 _symmetry_equiv_pos_as_xyz
  1  'x, y, z'
loop_
 _atom_site_type_symbol
 _atom_site_label
 _atom_site_symmetry_multiplicity
 _atom_site_fract_x
 _atom_site_fract_y
 _atom_site_fract_z
 _atom_site_occupancy
 _atom_site_pbe_bader_charge
 _atom_site_pbe_bader_spin_density
 _atom_site_pbe_cm5_charge
 _atom_site_pbe_ddec_charge
 _atom_site_pbe_ddec_spin_density
 _atom_site_pbe_ddec_sum_bond_order
 _atom_site_pbe_magmom
Ag  Ag0  1  0.52712543  0.58200813  0.18690745  1  0.541873  0  0.456703  0.269991  0  2.030697  0
Ag  Ag1  1  0.97287677  0.41799338  0.68690926  1  0.541898  0  0.4567  0.270011  0  2.030679  0
Ag  Ag2  1  0.47287721  0.41799458  0.81309134  1  0.541866  0  0.45671  0.270012  0  2.030672  0
Ag  Ag3  1  0.02712460  0.58200838  0.31309142  1  0.54188  0  0.4567  0.269958  0  2.030697  0
Ag  Ag4  1  0.34840217  0.68004663  0.05175740  1  0.525309  0  0.458493  0.262046  0  2.151143  0
Ag  Ag5  1  0.15159924  0.31995386  0.55175578  1  0.52551  0  0.458484  0.262055  0  2.151158  0
Ag  Ag6  1  0.65160092  0.31995516  0.94824422  1  0.525504  0  0.458482  0.262029  0  2.151147  0
Ag  Ag7  1  0.84840094  0.68004511  0.44824348  1  0.525498  0  0.45849  0.262042  0  2.15115  0
Ag  Ag8  1  0.45303257  0.90921874  0.18779527  1  0.540802  0  0.46335  0.274421  0  2.049489  0
Ag  Ag9  1  0.04696908  0.09078207  0.68779493  1  0.54078  0  0.463377  0.274436  0  2.049461  0
Ag  Ag10  1  0.54697006  0.09078396  0.81220541  1  0.540772  0  0.463354  0.274424  0  2.049469  0
Ag  Ag11  1  0.95303235  0.90921784  0.31220528  1  0.540798  0  0.463345  0.274408  0  2.049493  0
Ag  Ag12  1  0.63919706  0.81396399  0.05136569  1  0.519144  0  0.458528  0.25957  0  2.155545  0
Ag  Ag13  1  0.86080271  0.18603807  0.55136641  1  0.51916  0  0.458528  0.259555  0  2.155572  0
Ag  Ag14  1  0.36080511  0.18603963  0.94863405  1  0.519147  0  0.458528  0.259568  0  2.155591  0
Ag  Ag15  1  0.13919694  0.81396366  0.44863286  1  0.51911  0  0.458541  0.259588  0  2.155501  0
H  H16  1  0.29485965  0.52980927  0.29576990  1  0.100873  0  0.125477  0.09025  0  1.005512  0
H  H17  1  0.20514046  0.47019177  0.79577120  1  0.100877  0  0.12547  0.090247  0  1.005442  0
H  H18  1  0.70514006  0.47019061  0.70422889  1  0.100889  0  0.125484  0.090269  0  1.005419  0
H  H19  1  0.79485919  0.52980996  0.20423042  1  0.100902  0  0.125482  0.090235  0  1.005474  0
H  H20  1  0.14615325  0.74664080  0.12184124  1  0.047773  0  0.095131  0.101444  0  1.007113  0
H  H21  1  0.35384881  0.25335709  0.62184294  1  0.047794  0  0.09513  0.101468  0  1.007107  0
H  H22  1  0.85384911  0.25335728  0.87815755  1  0.047785  0  0.095138  0.101464  0  1.007116  0
H  H23  1  0.64615263  0.74664282  0.37815915  1  0.047748  0  0.095113  0.101411  0  1.007128  0
H  H24  1  0.03735184  0.68208624  0.18456856  1  0.025213  0  0.0903  0.086751  0  1.029577  0
H  H25  1  0.46264848  0.31791547  0.68456937  1  0.025192  0  0.090299  0.086759  0  1.029586  0
H  H26  1  0.96264867  0.31791551  0.81543070  1  0.02519  0  0.09031  0.086769  0  1.029584  0
H  H27  1  0.53735110  0.68208811  0.31543131  1  0.025219  0  0.090307  0.086753  0  1.029539  0
H  H28  1  0.93415029  0.58843020  0.08134893  1  0.032614  0  0.085655  0.121876  0  1.001575  0
H  H29  1  0.56584966  0.41156825  0.58134923  1  0.032545  0  0.08566  0.121868  0  1.001516  0
H  H30  1  0.06584988  0.41156877  0.91865128  1  0.032551  0  0.085652  0.121852  0  1.001563  0
H  H31  1  0.43415012  0.58842979  0.41865145  1  0.032605  0  0.085649  0.121855  0  1.001582  0
H  H32  1  0.05512464  0.53971645  0.06593147  1  0.028682  0  0.081306  0.104196  0  1.035447  0
H  H33  1  0.44487560  0.46028128  0.56593188  1  0.028752  0  0.081318  0.104206  0  1.035437  0
H  H34  1  0.94487559  0.46028067  0.93406827  1  0.028753  0  0.081324  0.104207  0  1.035436  0
H  H35  1  0.55512544  0.53971771  0.43406880  1  0.02871  0  0.081297  0.104186  0  1.035438  0
H  H36  1  0.94742977  0.47186859  0.12904359  1  0.032809  0  0.083787  0.109091  0  1.02052  0
H  H37  1  0.55257067  0.52813090  0.62904349  1  0.032813  0  0.083751  0.109028  0  1.020587  0
H  H38  1  0.05257081  0.52813131  0.87095661  1  0.03281  0  0.083743  0.108999  0  1.020609  0
H  H39  1  0.44743030  0.47186993  0.37095578  1  0.032818  0  0.083753  0.10902  0  1.020582  0
H  H40  1  0.37137613  0.11969774  0.10339892  1  0.088615  0  0.125852  0.087601  0  0.997339  0
H  H41  1  0.12861735  0.88029811  0.60339619  1  0.088665  0  0.125837  0.087577  0  0.997394  0
H  H42  1  0.62862610  0.88030404  0.89660034  1  0.088897  0  0.125841  0.087563  0  0.997313  0
H  H43  1  0.87137692  0.11969706  0.39660072  1  0.088893  0  0.125849  0.087579  0  0.997327  0
H  H44  1  0.35821397  0.80477728  0.92697675  1  0.022611  0  0.08898  0.081713  0  1.019398  0
H  H45  1  0.14178843  0.19522689  0.42697570  1  0.022622  0  0.088964  0.081679  0  1.019456  0
H  H46  1  0.64178786  0.19522356  0.07302346  1  0.022671  0  0.088983  0.081723  0  1.019404  0
H  H47  1  0.85821201  0.80477670  0.57302262  1  0.022676  0  0.088989  0.081724  0  1.019392  0
H  H48  1  0.36541027  0.94553988  0.89589787  1  0.083778  0  0.08602  0.084777  0  1.058652  0
H  H49  1  0.13459254  0.05446329  0.39589769  1  0.083827  0  0.086047  0.08481  0  1.058607  0
H  H50  1  0.63459288  0.05446006  0.10410140  1  0.083791  0  0.086044  0.084838  0  1.058548  0
H  H51  1  0.86540751  0.94553937  0.60410063  1  0.083795  0  0.086046  0.084831  0  1.058572  0
H  H52  1  0.16070713  0.76685869  0.86489337  1  0.021891  0  0.086993  0.116334  0  0.994927  0
H  H53  1  0.33929437  0.23314347  0.36489239  1  0.021949  0  0.086972  0.116324  0  0.994951  0
H  H54  1  0.83929424  0.23314307  0.13510778  1  0.021937  0  0.086961  0.116306  0  0.994966  0
H  H55  1  0.66070747  0.76685738  0.63510782  1  0.021951  0  0.086974  0.116331  0  0.99494  0
H  H56  1  0.12339233  0.72679286  0.94561972  1  0.003258  0  0.084619  0.109724  0  1.019296  0
H  H57  1  0.37661309  0.27321232  0.44561876  1  0.003219  0  0.084621  0.109744  0  1.019227  0
H  H58  1  0.87661282  0.27321173  0.05438143  1  0.003229  0  0.084632  0.109765  0  1.019227  0
H  H59  1  0.62338702  0.72678849  0.55438097  1  0.003233  0  0.084618  0.109746  0  1.019243  0
H  H60  1  0.13033722  0.86903502  0.91576661  1  0.014179  0  0.086492  0.117171  0  1.019674  0
H  H61  1  0.36966517  0.13096911  0.41576557  1  0.014207  0  0.08649  0.117179  0  1.019729  0
H  H62  1  0.86966535  0.13096953  0.08423454  1  0.014204  0  0.086501  0.117237  0  1.019739  0
H  H63  1  0.63033369  0.86903075  0.58423463  1  0.014206  0  0.086516  0.117242  0  1.019715  0
H  H64  1  0.68598824  0.96497574  0.29573517  1  0.093666  0  0.125585  0.089509  0  1.007073  0
H  H65  1  0.81400957  0.03502133  0.79573344  1  0.093687  0  0.125589  0.089532  0  1.007052  0
H  H66  1  0.31400941  0.03502133  0.70426645  1  0.093688  0  0.125581  0.089528  0  1.007032  0
H  H67  1  0.18598855  0.96497483  0.20426489  1  0.093653  0  0.125588  0.089514  0  1.00708  0
H  H68  1  0.83443878  0.74653816  0.12213032  1  0.032946  0  0.095271  0.101952  0  1.006432  0
H  H69  1  0.66555952  0.25346035  0.62212914  1  0.032824  0  0.095268  0.101929  0  1.006483  0
H  H70  1  0.16555927  0.25345985  0.87787083  1  0.032836  0  0.09526  0.101934  0  1.006506  0
H  H71  1  0.33443933  0.74653952  0.37786965  1  0.03294  0  0.095275  0.101948  0  1.006494  0
H  H72  1  0.94132256  0.80842506  0.18581379  1  0.052108  0  0.089862  0.085402  0  1.032463  0
H  H73  1  0.55867499  0.19157358  0.68581256  1  0.052143  0  0.089854  0.085399  0  1.032424  0
H  H74  1  0.05867463  0.19157293  0.81418783  1  0.052147  0  0.089849  0.085386  0  1.032464  0
H  H75  1  0.44132260  0.80842534  0.31418623  1  0.052122  0  0.089851  0.085375  0  1.032483  0
H  H76  1  0.04860466  0.90357011  0.08386316  1  0.02817  0  0.086321  0.122242  0  1.000469  0
H  H77  1  0.45139561  0.09642766  0.58386196  1  0.027811  0  0.086359  0.122249  0  1.000443  0
H  H78  1  0.95139597  0.09642795  0.91613799  1  0.027812  0  0.086361  0.122255  0  1.000439  0
H  H79  1  0.54860503  0.90357039  0.41613730  1  0.02816  0  0.086314  0.122232  0  1.00047  0
H  H80  1  0.03547658  0.02002841  0.13175940  1  0.005934  0  0.083574  0.108283  0  1.02034  0
H  H81  1  0.46452331  0.97997039  0.63175821  1  0.005941  0  0.083572  0.108289  0  1.020313  0
H  H82  1  0.96452359  0.97997056  0.86824175  1  0.005942  0  0.083572  0.108292  0  1.020335  0
H  H83  1  0.53547686  0.02002857  0.36824106  1  0.005946  0  0.083555  0.10825  0  1.020338  0
H  H84  1  0.92983359  0.95488825  0.06758788  1  0.036118  0  0.081454  0.104858  0  1.03566  0
H  H85  1  0.57016720  0.04511017  0.56758704  1  0.03619  0  0.081475  0.104871  0  1.035808  0
H  H86  1  0.07016745  0.04511073  0.93241280  1  0.036195  0  0.081475  0.104884  0  1.035795  0
H  H87  1  0.42983297  0.95488880  0.43241222  1  0.036104  0  0.081487  0.104903  0  1.035763  0
H  H88  1  0.60374192  0.36859279  0.10165512  1  0.099096  0  0.125707  0.088083  0  0.99859  0
H  H89  1  0.89625291  0.63140561  0.60165420  1  0.099053  0  0.125738  0.08817  0  0.998686  0
H  H90  1  0.39625309  0.63140608  0.89834603  1  0.099052  0  0.12574  0.088168  0  0.998698  0
H  H91  1  0.10374170  0.36859234  0.39834507  1  0.099082  0  0.125755  0.088108  0  0.998594  0
H  H92  1  0.66873648  0.56705610  0.89674688  1  0.075611  0  0.087956  0.088627  0  1.048497  0
H  H93  1  0.83126098  0.43294397  0.39674694  1  0.075615  0  0.087949  0.088601  0  1.048486  0
H  H94  1  0.33126065  0.43294374  0.10325333  1  0.075599  0  0.087957  0.088638  0  1.048491  0
H  H95  1  0.16873615  0.56705587  0.60325326  1  0.075603  0  0.087944  0.088602  0  1.048487  0
H  H96  1  0.66286493  0.70276879  0.92706586  1  0.018206  0  0.088579  0.081081  0  1.019145  0
H  H97  1  0.83713477  0.29723047  0.42706585  1  0.018205  0  0.088573  0.081081  0  1.019122  0
H  H98  1  0.33713518  0.29723202  0.07293482  1  0.018195  0  0.088589  0.081086  0  1.019153  0
H  H99  1  0.16286541  0.70276850  0.57293436  1  0.018221  0  0.088551  0.081048  0  1.019163  0
H  H100  1  0.87929011  0.75082622  0.88159597  1  0.040665  0  0.087616  0.117753  0  0.997423  0
H  H101  1  0.62070825  0.24917198  0.38159589  1  0.040636  0  0.087611  0.117739  0  0.997431  0
H  H102  1  0.12070794  0.24917178  0.11840424  1  0.04063  0  0.087606  0.117725  0  0.997443  0
H  H103  1  0.37929067  0.75082604  0.61840432  1  0.040696  0  0.087595  0.117732  0  0.997462  0
H  H104  1  0.89489525  0.64448657  0.93540063  1  0.010828  0  0.085943  0.113546  0  1.024352  0
H  H105  1  0.60510280  0.35551083  0.43540013  1  0.010921  0  0.085946  0.113568  0  1.024369  0
H  H106  1  0.10510280  0.35551143  0.06460005  1  0.010927  0  0.08595  0.113571  0  1.024361  0
H  H107  1  0.39489572  0.64448626  0.56460008  1  0.010908  0  0.085938  0.11354  0  1.024381  0
H  H108  1  0.88977820  0.78244610  0.96392998  1  0.035363  0  0.08482  0.112148  0  1.012752  0
H  H109  1  0.61021991  0.21755137  0.46392988  1  0.035356  0  0.084822  0.112151  0  1.012755  0
H  H110  1  0.11022072  0.21755192  0.03607023  1  0.035361  0  0.08482  0.112154  0  1.012744  0
H  H111  1  0.38977901  0.78244665  0.53607032  1  0.035381  0  0.084843  0.11219  0  1.012725  0
C  C112  1  0.18317674  0.62463999  0.18163944  1  0.969542  0  0.200951  0.318223  0  3.978815  0
C  C113  1  0.31682484  0.37536265  0.68163837  1  0.969538  0  0.20096  0.318142  0  3.978808  0
C  C114  1  0.81682463  0.37536176  0.81836171  1  0.969525  0  0.200961  0.318187  0  3.978748  0
C  C115  1  0.68317687  0.62464189  0.31836090  1  0.969527  0  0.200946  0.318169  0  3.978855  0
C  C116  1  0.27281548  0.56227947  0.25167614  1  0.97136  0  0.118652  0.115478  0  4.047731  0
C  C117  1  0.22718508  0.43771870  0.75167508  1  0.971444  0  0.118691  0.11554  0  4.047792  0
C  C118  1  0.72718429  0.43771856  0.74832548  1  0.971431  0  0.118706  0.115582  0  4.047734  0
C  C119  1  0.77281423  0.56228025  0.24832371  1  0.97136  0  0.11865  0.115492  0  4.047601  0
C  C120  1  0.09182848  0.66041905  0.14828012  1  0.033534  0  -0.161356  -0.191913  0  3.971667  0
C  C121  1  0.40817350  0.33958260  0.64828093  1  0.033603  0  -0.161369  -0.191966  0  3.971793  0
C  C122  1  0.90817336  0.33958180  0.85171914  1  0.033595  0  -0.161409  -0.192011  0  3.971797  0
C  C123  1  0.59182741  0.66042008  0.35172022  1  0.032442  0  -0.161344  -0.191851  0  3.971645  0
C  C124  1  0.00180502  0.55936392  0.10361964  1  -0.083658  0  -0.243364  -0.339738  0  3.936186  0
C  C125  1  0.49819654  0.44063484  0.60362005  1  -0.083729  0  -0.24334  -0.339647  0  3.936179  0
C  C126  1  0.99819601  0.44063506  0.89637962  1  -0.083724  0  -0.243325  -0.33959  0  3.936223  0
C  C127  1  0.50180489  0.55936507  0.39638016  1  -0.082612  0  -0.243311  -0.339628  0  3.936173  0
C  C128  1  0.33819719  0.92388327  0.99451338  1  0.972728  0  0.206763  0.323986  0  3.960239  0
C  C129  1  0.16180367  0.07611919  0.49451322  1  0.972672  0  0.20676  0.324001  0  3.960166  0
C  C130  1  0.66180716  0.07611947  0.00548635  1  0.972452  0  0.206742  0.323916  0  3.960174  0
C  C131  1  0.83819346  0.92388065  0.50548604  1  0.972706  0  0.206753  0.323955  0  3.960053  0
C  C132  1  0.36200021  0.04157754  0.07410065  1  0.983723  0  0.120027  0.108858  0  4.059554  0
C  C133  1  0.13800290  0.95842487  0.57409796  1  0.984028  0  0.119987  0.108741  0  4.059867  0
C  C134  1  0.63800454  0.95842612  0.92590050  1  0.983681  0  0.120036  0.108953  0  4.059764  0
C  C135  1  0.86199980  0.04157599  0.42589847  1  0.983411  0  0.120048  0.108979  0  4.059532  0
C  C136  1  0.31531711  0.87038765  0.92980075  1  -0.018453  0  -0.162468  -0.190087  0  3.985126  0
C  C137  1  0.18468702  0.12961655  0.42980062  1  -0.018597  0  -0.162459  -0.19007  0  3.985128  0
C  C138  1  0.68468810  0.12961510  0.07019899  1  -0.018463  0  -0.162498  -0.190161  0  3.985119  0
C  C139  1  0.81531389  0.87038612  0.57019865  1  -0.018522  0  -0.162493  -0.190123  0  3.985021  0
C  C140  1  0.17408534  0.80435731  0.91308499  1  -0.002595  0  -0.241915  -0.335215  0  3.933872  0
C  C141  1  0.32591670  0.19564404  0.41308445  1  -0.002712  0  -0.241917  -0.33528  0  3.933922  0
C  C142  1  0.82591775  0.19564448  0.08691616  1  -0.002726  0  -0.241913  -0.335315  0  3.934008  0
C  C143  1  0.67408427  0.80435678  0.58691576  1  -0.002686  0  -0.241917  -0.335327  0  3.933941  0
C  C144  1  0.79714780  0.86804874  0.18223926  1  0.970726  0  0.200337  0.316743  0  3.979766  0
C  C145  1  0.70285227  0.13195179  0.68223803  1  0.970621  0  0.200346  0.316719  0  3.979744  0
C  C146  1  0.20285192  0.13195114  0.81776189  1  0.970643  0  0.200331  0.316709  0  3.979796  0
C  C147  1  0.29714784  0.86804903  0.31776077  1  0.970706  0  0.200326  0.316723  0  3.979907  0
C  C148  1  0.70777575  0.93157664  0.25185968  1  0.989199  0  0.120338  0.118559  0  4.042116  0
C  C149  1  0.79222238  0.06842125  0.75185938  1  0.989196  0  0.120315  0.118514  0  4.042057  0
C  C150  1  0.29222231  0.06842137  0.74814053  1  0.989195  0  0.120295  0.118506  0  4.042066  0
C  C151  1  0.20777613  0.93157584  0.24813989  1  0.989204  0  0.12028  0.118498  0  4.042192  0
C  C152  1  0.88860276  0.83182730  0.14927690  1  0.020226  0  -0.161958  -0.192377  0  3.97234  0
C  C153  1  0.61139605  0.16817036  0.64927519  1  0.020353  0  -0.161966  -0.19238  0  3.972497  0
C  C154  1  0.11139575  0.16816979  0.85072472  1  0.020343  0  -0.161957  -0.192373  0  3.972564  0
C  C155  1  0.38860240  0.83182858  0.35072360  1  0.020239  0  -0.16199  -0.192384  0  3.972535  0
C  C156  1  0.98107068  0.93339388  0.10564189  1  -0.057493  0  -0.243248  -0.343264  0  3.944165  0
C  C157  1  0.51893018  0.06660463  0.60564059  1  -0.057272  0  -0.243307  -0.343287  0  3.944347  0
C  C158  1  0.01893035  0.06660510  0.89435926  1  -0.057279  0  -0.243306  -0.343302  0  3.944359  0
C  C159  1  0.48107046  0.93339342  0.39435868  1  -0.057497  0  -0.243232  -0.343238  0  3.944269  0
C  C160  1  0.66492022  0.57700342  0.99617943  1  0.990793  0  0.206159  0.32227  0  3.963871  0
C  C161  1  0.83507873  0.42299600  0.49617855  1  0.990852  0  0.206159  0.322245  0  3.963831  0
C  C162  1  0.33507863  0.42299645  0.00382219  1  0.990852  0  0.206152  0.322295  0  3.963744  0
C  C163  1  0.16492058  0.57700296  0.50382072  1  0.991009  0  0.206159  0.322255  0  3.96387  0
C  C164  1  0.62073397  0.45013534  0.07338041  1  0.959231  0  0.120373  0.107324  0  4.060081  0
C  C165  1  0.87926280  0.54986765  0.57338133  1  0.959087  0  0.120353  0.107188  0  4.060059  0
C  C166  1  0.37926217  0.54986818  0.92661932  1  0.959082  0  0.120359  0.107197  0  4.060089  0
C  C167  1  0.12073341  0.45013402  0.42661982  1  0.959237  0  0.12034  0.107308  0  4.060038  0
C  C168  1  0.70631920  0.63834824  0.93375430  1  -0.002671  0  -0.162705  -0.193343  0  3.990922  0
C  C169  1  0.79367965  0.36165103  0.43375385  1  -0.002894  0  -0.162714  -0.193335  0  3.990871  0
C  C170  1  0.29368051  0.36165165  0.06624685  1  -0.002902  0  -0.162744  -0.193408  0  3.990934  0
C  C171  1  0.20631966  0.63834793  0.56624636  1  -0.002679  0  -0.162672  -0.193264  0  3.990897  0
C  C172  1  0.85102406  0.70824796  0.92840244  1  -0.054049  0  -0.241322  -0.334783  0  3.93388  0
C  C173  1  0.64897478  0.29175129  0.42840192  1  -0.053923  0  -0.241337  -0.334821  0  3.933906  0
C  C174  1  0.14897525  0.29175100  0.07159824  1  -0.053914  0  -0.241327  -0.334791  0  3.933907  0
C  C175  1  0.35102414  0.70824673  0.57159829  1  -0.054186  0  -0.241322  -0.334815  0  3.933918  0
N  N176  1  0.28897267  0.62859975  0.15538488  1  -0.748591  0  -0.274734  -0.246727  0  3.446981  0
N  N177  1  0.21102892  0.37140098  0.65538425  1  -0.748671  0  -0.274728  -0.246635  0  3.447078  0
N  N178  1  0.71102916  0.37140109  0.84461626  1  -0.748685  0  -0.274764  -0.246702  0  3.447137  0
N  N179  1  0.78897245  0.62860077  0.34461548  1  -0.74867  0  -0.274755  -0.246783  0  3.447034  0
N  N180  1  0.34680627  0.58813396  0.20063935  1  -0.752757  0  -0.287268  -0.187566  0  3.641873  0
N  N181  1  0.15319627  0.41186690  0.70063826  1  -0.752769  0  -0.287268  -0.187631  0  3.641949  0
N  N182  1  0.65319603  0.41186597  0.79936227  1  -0.752779  0  -0.287268  -0.187651  0  3.642003  0
N  N183  1  0.84680471  0.58813393  0.29936148  1  -0.752714  0  -0.287255  -0.187491  0  3.641802  0
N  N184  1  0.16951846  0.58321767  0.24221131  1  -1.201888  0  -0.376968  -0.353095  0  3.530757  0
N  N185  1  0.33048030  0.41678230  0.74221167  1  -1.201932  0  -0.376998  -0.353118  0  3.530767  0
N  N186  1  0.83047999  0.41678127  0.75778843  1  -1.20188  0  -0.376982  -0.353123  0  3.530692  0
N  N187  1  0.66951848  0.58321942  0.25778901  1  -1.201883  0  -0.376955  -0.35309  0  3.530682  0
N  N188  1  0.35367922  0.86498985  0.04515668  1  -0.735197  0  -0.280069  -0.229983  0  3.529566  0
N  N189  1  0.14632211  0.13501246  0.54515685  1  -0.73524  0  -0.280097  -0.230051  0  3.529558  0
N  N190  1  0.64632553  0.13501381  0.95484353  1  -0.735235  0  -0.280037  -0.22986  0  3.529455  0
N  N191  1  0.85367462  0.86498645  0.45484288  1  -0.735349  0  -0.280035  -0.229884  0  3.529474  0
N  N192  1  0.36892590  0.94047967  0.09645092  1  -0.750554  0  -0.274932  -0.190497  0  3.529946  0
N  N193  1  0.13107440  0.05951812  0.59644963  1  -0.750724  0  -0.274891  -0.190399  0  3.530024  0
N  N194  1  0.63107806  0.05952213  0.90354976  1  -0.750651  0  -0.27496  -0.19061  0  3.530095  0
N  N195  1  0.86892544  0.94047807  0.40354869  1  -0.750538  0  -0.274988  -0.190663  0  3.530152  0
N  N196  1  0.34303153  0.03603437  0.01088347  1  -1.206087  0  -0.384155  -0.3461  0  3.59083  0
N  N197  1  0.15697015  0.96396879  0.51088220  1  -1.20615  0  -0.384123  -0.345988  0  3.590866  0
N  N198  1  0.65697368  0.96396837  0.98911627  1  -1.205943  0  -0.38413  -0.346071  0  3.591015  0
N  N199  1  0.84302950  0.03603294  0.48911565  1  -1.206005  0  -0.384151  -0.346111  0  3.590818  0
N  N200  1  0.69100789  0.86309398  0.15596063  1  -0.740015  0  -0.274193  -0.246246  0  3.446982  0
N  N201  1  0.80899253  0.13690742  0.65595989  1  -0.739651  0  -0.27424  -0.246303  0  3.446913  0
N  N202  1  0.30899262  0.13690776  0.84404005  1  -0.739644  0  -0.274206  -0.246261  0  3.446965  0
N  N203  1  0.19100798  0.86309432  0.34403890  1  -0.739933  0  -0.274225  -0.246314  0  3.44702  0
N  N204  1  0.63340919  0.90435625  0.20090536  1  -0.75992  0  -0.287665  -0.186359  0  3.644422  0
N  N205  1  0.86658799  0.09564151  0.70090368  1  -0.760228  0  -0.287653  -0.186345  0  3.644188  0
N  N206  1  0.36658840  0.09564268  0.79909626  1  -0.760226  0  -0.287626  -0.186336  0  3.644243  0
N  N207  1  0.13340840  0.90435462  0.29909417  1  -0.759862  0  -0.287614  -0.18626  0  3.644291  0
N  N208  1  0.81108747  0.91071255  0.24254336  1  -1.212892  0  -0.379158  -0.354338  0  3.539532  0
N  N209  1  0.68890979  0.08928530  0.74254211  1  -1.212865  0  -0.37911  -0.35425  0  3.539487  0
N  N210  1  0.18890933  0.08928451  0.75745779  1  -1.212892  0  -0.379129  -0.354284  0  3.539498  0
N  N211  1  0.31108906  0.91071456  0.25745716  1  -1.21291  0  -0.37912  -0.354308  0  3.539616  0
N  N212  1  0.63632264  0.63003022  0.04550033  1  -0.745886  0  -0.278863  -0.226919  0  3.526762  0
N  N213  1  0.86367420  0.36996900  0.54550020  1  -0.746048  0  -0.278758  -0.226776  0  3.526658  0
N  N214  1  0.36367363  0.36996960  0.95449987  1  -0.745991  0  -0.278794  -0.226873  0  3.526708  0
N  N215  1  0.13632339  0.63002992  0.45450000  1  -0.746068  0  -0.278865  -0.226963  0  3.526785  0
N  N216  1  0.60804836  0.54866201  0.09527693  1  -0.742058  0  -0.273074  -0.184884  0  3.532079  0
N  N217  1  0.89194817  0.45133641  0.59527732  1  -0.741957  0  -0.273086  -0.184904  0  3.532021  0
N  N218  1  0.39194751  0.45133688  0.90472328  1  -0.741891  0  -0.273055  -0.184807  0  3.531884  0
N  N219  1  0.10804902  0.54866158  0.40472289  1  -0.74204  0  -0.273037  -0.184812  0  3.53197  0
N  N220  1  0.65599194  0.46304113  0.01190524  1  -1.20449  0  -0.384557  -0.34843  0  3.599375  0
N  N221  1  0.84400444  0.53695709  0.51190426  1  -1.204261  0  -0.384598  -0.3484  0  3.599248  0
N  N222  1  0.34400432  0.53695870  0.98809591  1  -1.204296  0  -0.384611  -0.348462  0  3.599248  0
N  N223  1  0.15599149  0.46303996  0.48809501  1  -1.204513  0  -0.384594  -0.348458  0  3.599383  0
