# generated using pymatgen
data_DyZnH10C15NO10
_symmetry_space_group_name_H-M   'P 1'
_cell_length_a   7.78759438
_cell_length_b   10.16491798
_cell_length_c   11.55888847
_cell_angle_alpha   69.78183828
_cell_angle_beta   74.69052433
_cell_angle_gamma   79.62974800
_symmetry_Int_Tables_number   1
_chemical_formula_structural   DyZnH10C15NO10
_chemical_formula_sum   'Dy2 Zn2 H20 C30 N2 O20'
_cell_volume   824.16389600
_cell_formula_units_Z   2
loop_
 _symmetry_equiv_pos_site_id
 _symmetry_equiv_pos_as_xyz
  1  'x, y, z'
loop_
 _atom_site_type_symbol
 _atom_site_label
 _atom_site_symmetry_multiplicity
 _atom_site_fract_x
 _atom_site_fract_y
 _atom_site_fract_z
 _atom_site_occupancy
 _atom_site_hle17_bader_spin_density
 _atom_site_hle17_ddec_charge
 _atom_site_hle17_ddec_spin_density
 _atom_site_hle17_ddec_sum_bond_order
 _atom_site_hle17_magmom
 _atom_site_hse06_10hf_bader_spin_density
 _atom_site_hse06_10hf_ddec_charge
 _atom_site_hse06_10hf_ddec_spin_density
 _atom_site_hse06_10hf_ddec_sum_bond_order
 _atom_site_hse06_10hf_magmom
 _atom_site_hse06_bader_spin_density
 _atom_site_hse06_ddec_charge
 _atom_site_hse06_ddec_spin_density
 _atom_site_hse06_ddec_sum_bond_order
 _atom_site_hse06_magmom
 _atom_site_pbe_bader_spin_density
 _atom_site_pbe_cm5_charge
 _atom_site_pbe_ddec_charge
 _atom_site_pbe_ddec_spin_density
 _atom_site_pbe_ddec_sum_bond_order
 _atom_site_pbe_magmom
Dy  Dy0  1  0.36531204  0.94988702  0.17675849  1  0  2.277928  0  1.649887  0  0  2.146094  0  2.108681  0  0  2.267724  0  1.930582  0  0  1.491562  2.10991  0  2.142114  0
Dy  Dy1  1  0.63468336  0.05010811  0.82323465  1  0  2.277957  0  1.649838  0  0  2.146164  0  2.108576  0  0  2.267762  0  1.930525  0  0  1.491582  2.109962  0  2.142027  0
Zn  Zn2  1  0.34172490  0.74610341  0.96552097  1  0  1.124479  0  1.766916  0  0  0.94756  0  2.233464  0  0  0.996273  0  2.177483  0  0  0.704117  0.913438  0  2.275147  0
Zn  Zn3  1  0.65827508  0.25389901  0.03448298  1  0  1.124585  0  1.766829  0  0  0.947608  0  2.23347  0  0  0.996322  0  2.177455  0  0  0.704134  0.913488  0  2.275149  0
H  H4  1  0.27811732  0.98686867  0.94506075  1  0  0.426645  0  0.865496  0  0  0.405057  0  0.916031  0  0  0.413847  0  0.903808  0  0  0.305366  0.398248  0  0.926189  0
H  H5  1  0.72189867  0.01313385  0.05494279  1  0  0.426529  0  0.86547  0  0  0.404898  0  0.916165  0  0  0.413682  0  0.903959  0  0  0.305312  0.398089  0  0.926325  0
H  H6  1  0.54091747  0.75036782  0.38188595  1  0  0.424116  0  0.852266  0  0  0.397118  0  0.924202  0  0  0.404758  0  0.913704  0  0  0.310954  0.391924  0  0.931552  0
H  H7  1  0.45909648  0.24963996  0.61811640  1  0  0.424081  0  0.852408  0  0  0.397111  0  0.924211  0  0  0.404748  0  0.913716  0  0  0.310946  0.391911  0  0.93157  0
H  H8  1  0.42266004  0.87236419  0.42792840  1  0  0.438597  0  0.814686  0  0  0.416247  0  0.876357  0  0  0.424671  0  0.867786  0  0  0.323738  0.410534  0  0.882834  0
H  H9  1  0.57732517  0.12763817  0.57207139  1  0  0.438503  0  0.81474  0  0  0.416136  0  0.876454  0  0  0.424554  0  0.867884  0  0  0.323648  0.410423  0  0.882934  0
H  H10  1  0.95397116  0.60148256  0.33432007  1  0  0.097055  0  0.981298  0  0  0.104543  0  1.048527  0  0  0.106825  0  1.048408  0  0  0.100867  0.102943  0  1.048485  0
H  H11  1  0.04603683  0.39849140  0.66569696  1  0  0.097147  0  0.981352  0  0  0.104604  0  1.048596  0  0  0.106881  0  1.048486  0  0  0.100851  0.103001  0  1.048552  0
H  H12  1  0.71840635  0.45773055  0.49907636  1  0  0.105129  0  0.942046  0  0  0.11622  0  0.997319  0  0  0.119379  0  0.996569  0  0  0.10502  0.11389  0  0.99803  0
H  H13  1  0.28159780  0.54225381  0.50095125  1  0  0.105178  0  0.942033  0  0  0.116246  0  0.997338  0  0  0.119404  0  0.996594  0  0  0.104994  0.113919  0  0.998044  0
H  H14  1  0.53840666  0.54722137  0.67353963  1  0  0.10066  0  0.956259  0  0  0.109945  0  1.019519  0  0  0.112969  0  1.017272  0  0  0.10719  0.10784  0  1.020964  0
H  H15  1  0.46158681  0.45277242  0.32648369  1  0  0.100764  0  0.956314  0  0  0.110021  0  1.019604  0  0  0.113044  0  1.017359  0  0  0.107227  0.107916  0  1.021051  0
H  H16  1  0.82462006  0.91760032  0.51997741  1  0  0.130888  0  0.934385  0  0  0.137634  0  0.998453  0  0  0.142752  0  0.993093  0  0  0.115727  0.134002  0  1.002016  0
H  H17  1  0.17535898  0.08239683  0.48001297  1  0  0.130914  0  0.934162  0  0  0.137711  0  0.998206  0  0  0.142833  0  0.992841  0  0  0.115732  0.134076  0  1.001772  0
H  H18  1  0.73838232  0.40238309  0.24264903  1  0  0.112425  0  0.959216  0  0  0.122305  0  1.018953  0  0  0.125998  0  1.016035  0  0  0.112299  0.11959  0  1.021193  0
H  H19  1  0.26161990  0.59763300  0.75735648  1  0  0.112458  0  0.959179  0  0  0.122342  0  1.018913  0  0  0.126035  0  1.015997  0  0  0.112318  0.119618  0  1.021162  0
H  H20  1  0.04752891  0.30180420  0.27180757  1  0  0.121846  0  0.931242  0  0  0.134426  0  0.981539  0  0  0.137196  0  0.981709  0  0  0.119831  0.132451  0  0.981581  0
H  H21  1  0.95246580  0.69820865  0.72820204  1  0  0.12181  0  0.931216  0  0  0.134442  0  0.981438  0  0  0.137214  0  0.981604  0  0  0.119819  0.13246  0  0.981494  0
H  H22  1  0.30280962  0.45382499  0.15358366  1  0  0.094782  0  0.971603  0  0  0.097571  0  1.043372  0  0  0.10056  0  1.040688  0  0  0.120651  0.095417  0  1.045358  0
H  H23  1  0.69718849  0.54618161  0.84642112  1  0  0.094749  0  0.971623  0  0  0.097555  0  1.043383  0  0  0.10055  0  1.040686  0  0  0.120627  0.095387  0  1.045379  0
C  C24  1  0.05220585  0.84542725  0.32405264  1  0  0.645694  0  3.935737  0  0  0.602245  0  4.224751  0  0  0.635559  0  4.224548  0  0  0.18623  0.578918  0  4.229742  0
C  C25  1  0.94779053  0.15456249  0.67595491  1  0  0.645605  0  3.936368  0  0  0.602203  0  4.225288  0  0  0.63552  0  4.225087  0  0  0.186217  0.578889  0  4.23025  0
C  C26  1  0.90026258  0.76835673  0.41612277  1  0  -0.057107  0  3.736673  0  0  -0.028012  0  3.961582  0  0  -0.036815  0  3.982667  0  0  -0.012209  -0.022287  0  3.946911  0
C  C27  1  0.09971788  0.23164336  0.58389243  1  0  -0.056947  0  3.736822  0  0  -0.027835  0  3.961683  0  0  -0.036646  0  3.982786  0  0  -0.012099  -0.022116  0  3.947009  0
C  C28  1  0.86970505  0.63954687  0.40984829  1  0  -0.052959  0  3.715484  0  0  -0.080563  0  3.96156  0  0  -0.077239  0  3.979948  0  0  -0.075318  -0.082118  0  3.948353  0
C  C29  1  0.13029067  0.36043960  0.59017247  1  0  -0.053074  0  3.715749  0  0  -0.080689  0  3.961866  0  0  -0.07736  0  3.980258  0  0  -0.075348  -0.082241  0  3.948645  0
C  C30  1  0.73865792  0.56011250  0.50157685  1  0  -0.092105  0  3.762204  0  0  -0.098905  0  4.012731  0  0  -0.104284  0  4.033021  0  0  -0.090207  -0.09537  0  3.998649  0
C  C31  1  0.26134463  0.43988245  0.49844011  1  0  -0.092128  0  3.761713  0  0  -0.098897  0  4.012223  0  0  -0.104277  0  4.032506  0  0  -0.090164  -0.095364  0  3.998144  0
C  C32  1  0.63691468  0.61029091  0.59936095  1  0  -0.055294  0  3.725625  0  0  -0.083935  0  3.977802  0  0  -0.08034  0  3.995276  0  0  -0.078357  -0.08576  0  3.965498  0
C  C33  1  0.36308199  0.38970524  0.40063598  1  0  -0.05538  0  3.725479  0  0  -0.084023  0  3.977663  0  0  -0.080427  0  3.995134  0  0  -0.078406  -0.08585  0  3.965365  0
C  C34  1  0.66314691  0.74121836  0.60468520  1  0  -0.110255  0  3.784912  0  0  -0.083974  0  4.022025  0  0  -0.0947  0  4.045272  0  0  -0.025454  -0.077131  0  4.005758  0
C  C35  1  0.33684335  0.25878615  0.39531388  1  0  -0.110304  0  3.78505  0  0  -0.083969  0  4.022162  0  0  -0.094701  0  4.045412  0  0  -0.025458  -0.077122  0  4.0059  0
C  C36  1  0.55875461  0.79217960  0.71282842  1  0  0.697069  0  3.865862  0  0  0.645874  0  4.156117  0  0  0.681949  0  4.148357  0  0  0.230546  0.621937  0  4.161488  0
C  C37  1  0.44123166  0.20783438  0.28716684  1  0  0.697031  0  3.866379  0  0  0.645728  0  4.156757  0  0  0.681806  0  4.148987  0  0  0.230288  0.621776  0  4.16215  0
C  C38  1  0.79633719  0.81956822  0.51317658  1  0  -0.063603  0  3.669727  0  0  -0.099848  0  3.913713  0  0  -0.095474  0  3.929108  0  0  -0.069876  -0.102136  0  3.902573  0
C  C39  1  0.20364420  0.18044354  0.48682804  1  0  -0.063711  0  3.669378  0  0  -0.10002  0  3.913394  0  0  -0.095645  0  3.928797  0  0  -0.069901  -0.102303  0  3.902247  0
C  C40  1  0.96369254  0.81839815  0.94797315  1  0  0.660345  0  3.900477  0  0  0.610682  0  4.196054  0  0  0.645067  0  4.18862  0  0  0.228166  0.587473  0  4.201648  0
C  C41  1  0.03631968  0.18160127  0.05202164  1  0  0.660231  0  3.901013  0  0  0.610582  0  4.196531  0  0  0.644968  0  4.189104  0  0  0.228126  0.587376  0  4.202117  0
C  C42  1  0.97408238  0.67616761  0.04809277  1  0  0.078918  0  3.70627  0  0  0.071903  0  3.943008  0  0  0.074692  0  3.960389  0  0  0.119295  0.070056  0  3.930746  0
C  C43  1  0.02592074  0.32382967  0.95190003  1  0  0.078738  0  3.70631  0  0  0.071827  0  3.942895  0  0  0.074613  0  3.960281  0  0  0.119257  0.069985  0  3.930615  0
C  C44  1  0.82357304  0.60320211  0.11521871  1  0  -0.077001  0  3.659217  0  0  -0.060891  0  3.896099  0  0  -0.06772  0  3.913846  0  0  0.008379  -0.056444  0  3.883739  0
C  C45  1  0.17643371  0.39679734  0.88476930  1  0  -0.076993  0  3.659199  0  0  -0.060904  0  3.896156  0  0  -0.067741  0  3.913905  0  0  0.008443  -0.056454  0  3.883779  0
C  C46  1  0.63558903  0.67042400  0.10673472  1  0  0.726868  0  3.867474  0  0  0.66972  0  4.170813  0  0  0.707612  0  4.159154  0  0  0.235319  0.644165  0  4.178841  0
C  C47  1  0.36441309  0.32956916  0.89324738  1  0  0.727013  0  3.867612  0  0  0.66967  0  4.171271  0  0  0.707576  0  4.159589  0  0  0.235362  0.6441  0  4.179315  0
C  C48  1  0.85118362  0.46537364  0.19515099  1  0  -0.021206  0  3.661566  0  0  -0.051492  0  3.915998  0  0  -0.048117  0  3.931787  0  0  -0.060322  -0.053739  0  3.905457  0
C  C49  1  0.14881590  0.53463195  0.80485037  1  0  -0.021287  0  3.661659  0  0  -0.051578  0  3.916137  0  0  -0.048205  0  3.931927  0  0  -0.060381  -0.053815  0  3.905581  0
C  C50  1  0.02325236  0.40885741  0.21062484  1  0  -0.098772  0  3.68346  0  0  -0.11252  0  3.940863  0  0  -0.118482  0  3.960303  0  0  -0.072425  -0.108664  0  3.928043  0
C  C51  1  0.97675233  0.59114927  0.78937523  1  0  -0.09869  0  3.683424  0  0  -0.112473  0  3.940782  0  0  -0.118433  0  3.96022  0  0  -0.072372  -0.108611  0  3.927956  0
C  C52  1  0.16528576  0.49101900  0.14547912  1  0  0.148398  0  3.660612  0  0  0.109546  0  3.925473  0  0  0.11829  0  3.939831  0  0  0.057141  0.103713  0  3.915907  0
C  C53  1  0.83471641  0.50898661  0.85452174  1  0  0.148426  0  3.660552  0  0  0.109566  0  3.92537  0  0  0.118308  0  3.939732  0  0  0.057155  0.103741  0  3.915799  0
N  N54  1  0.13957939  0.62049409  0.06519848  1  0  -0.334004  0  3.334324  0  0  -0.25711  0  3.61085  0  0  -0.274727  0  3.62371  0  0  -0.317584  -0.244903  0  3.601936  0
N  N55  1  0.86042676  0.37951057  0.93479414  1  0  -0.334004  0  3.334385  0  0  -0.257111  0  3.610843  0  0  -0.274732  0  3.623712  0  0  -0.317605  -0.244906  0  3.601922  0
O  O56  1  0.09504354  0.95211624  0.33952884  1  0  -0.672448  0  1.951414  0  0  -0.630595  0  2.184783  0  0  -0.661967  0  2.174859  0  0  -0.376379  -0.613622  0  2.190736  0
O  O57  1  0.90496327  0.04786517  0.66047754  1  0  -0.672406  0  1.95142  0  0  -0.630572  0  2.18476  0  0  -0.661946  0  2.174835  0  0  -0.376372  -0.613605  0  2.190706  0
O  O58  1  0.14250350  0.79736467  0.23398158  1  0  -0.724539  0  1.954664  0  0  -0.684487  0  2.204133  0  0  -0.718223  0  2.193508  0  0  -0.408172  -0.667095  0  2.210257  0
O  O59  1  0.85750313  0.20262731  0.76601820  1  0  -0.724511  0  1.954947  0  0  -0.684503  0  2.204433  0  0  -0.718218  0  2.193782  0  0  -0.408192  -0.66712  0  2.210553  0
O  O60  1  0.58201327  0.91259965  0.71277612  1  0  -0.755869  0  2.075688  0  0  -0.700788  0  2.331529  0  0  -0.736314  0  2.314973  0  0  -0.399575  -0.683709  0  2.340048  0
O  O61  1  0.41796450  0.08742697  0.28721088  1  0  -0.75571  0  2.075987  0  0  -0.700587  0  2.331846  0  0  -0.736124  0  2.315298  0  0  -0.399392  -0.683504  0  2.340366  0
O  O62  1  0.45490175  0.70799425  0.80069784  1  0  -0.626182  0  2.077141  0  0  -0.552693  0  2.344072  0  0  -0.580848  0  2.328474  0  0  -0.302009  -0.532954  0  2.353779  0
O  O63  1  0.54509100  0.29201035  0.19929209  1  0  -0.626304  0  2.077166  0  0  -0.55274  0  2.344111  0  0  -0.580863  0  2.328475  0  0  -0.301975  -0.533  0  2.353828  0
O  O64  1  0.10461067  0.87895328  0.89645289  1  0  -0.589991  0  1.976006  0  0  -0.534405  0  2.213275  0  0  -0.558221  0  2.200502  0  0  -0.291861  -0.517067  0  2.221608  0
O  O65  1  0.89539645  0.12105353  0.10353545  1  0  -0.589886  0  1.976103  0  0  -0.534373  0  2.213394  0  0  -0.558189  0  2.200621  0  0  -0.291827  -0.51704  0  2.221727  0
O  O66  1  0.80991858  0.86415695  0.92292968  1  0  -0.727537  0  2.102199  0  0  -0.673268  0  2.362169  0  0  -0.712103  0  2.351236  0  0  -0.401595  -0.653552  0  2.36716  0
O  O67  1  0.19009073  0.13584454  0.07706676  1  0  -0.727439  0  2.102564  0  0  -0.673124  0  2.362419  0  0  -0.711969  0  2.351491  0  0  -0.401572  -0.653417  0  2.367406  0
O  O68  1  0.57323740  0.75696509  0.16844101  1  0  -0.74169  0  2.044551  0  0  -0.687274  0  2.300519  0  0  -0.72513  0  2.286579  0  0  -0.400796  -0.66799  0  2.307424  0
O  O69  1  0.42673570  0.24300774  0.83156035  1  0  -0.741828  0  2.044765  0  0  -0.68733  0  2.300765  0  0  -0.725175  0  2.286791  0  0  -0.400858  -0.668035  0  2.307668  0
O  O70  1  0.55268077  0.62888325  0.04724335  1  0  -0.613684  0  2.020591  0  0  -0.545722  0  2.285042  0  0  -0.573718  0  2.27005  0  0  -0.291138  -0.525832  0  2.294624  0
O  O71  1  0.44735693  0.37111985  0.95271099  1  0  -0.613709  0  2.020388  0  0  -0.545672  0  2.284953  0  0  -0.573669  0  2.269949  0  0  -0.291222  -0.525783  0  2.294546  0
O  O72  1  0.38580064  0.93210816  0.97136956  1  0  -1.139903  0  1.913154  0  0  -1.065393  0  2.178358  0  0  -1.113141  0  2.142228  0  0  -0.702238  -1.045581  0  2.200975  0
O  O73  1  0.61420995  0.06788485  0.02863523  1  0  -1.139856  0  1.912958  0  0  -1.06521  0  2.178467  0  0  -1.112966  0  2.142344  0  0  -0.702192  -1.045397  0  2.201069  0
O  O74  1  0.42309788  0.80388228  0.38593772  1  0  -0.857697  0  1.896076  0  0  -0.812881  0  2.086877  0  0  -0.838625  0  2.060353  0  0  -0.606831  -0.800541  0  2.102526  0
O  O75  1  0.57691634  0.19613092  0.61404652  1  0  -0.857547  0  1.896233  0  0  -0.812733  0  2.087  0  0  -0.838464  0  2.060488  0  0  -0.606752  -0.800385  0  2.102648  0
