# generated using pymatgen
data_CuH7C7N5O2
_symmetry_space_group_name_H-M   'P 1'
_cell_length_a   15.24873207
_cell_length_b   15.25850805
_cell_length_c   15.51837749
_cell_angle_alpha   119.29976600
_cell_angle_beta   119.50653930
_cell_angle_gamma   90.04720399
_symmetry_Int_Tables_number   1
_chemical_formula_structural   CuH7C7N5O2
_chemical_formula_sum   'Cu8 H56 C56 N40 O16'
_cell_volume   2597.53006254
_cell_formula_units_Z   8
loop_
 _symmetry_equiv_pos_site_id
 _symmetry_equiv_pos_as_xyz
  1  'x, y, z'
loop_
 _atom_site_type_symbol
 _atom_site_label
 _atom_site_symmetry_multiplicity
 _atom_site_fract_x
 _atom_site_fract_y
 _atom_site_fract_z
 _atom_site_occupancy
 _atom_site_pbe_bader_charge
 _atom_site_pbe_bader_spin_density
 _atom_site_pbe_cm5_charge
 _atom_site_pbe_ddec_charge
 _atom_site_pbe_ddec_spin_density
 _atom_site_pbe_ddec_sum_bond_order
 _atom_site_pbe_magmom
Cu  Cu0  1  0.42819943  0.48716688  0.89058762  1  1.017  -0.545192  0.732866  0.673065  -0.702408  2.443059  -0.546
Cu  Cu1  1  0.96223378  0.40332427  0.89041888  1  1.025128  -0.533186  0.737214  0.682293  -0.684827  2.456767  -0.53
Cu  Cu2  1  0.98705742  0.46253240  0.39081021  1  1.017836  0.558153  0.73354  0.674357  0.732014  2.445611  0.558
Cu  Cu3  1  0.90337644  0.92815145  0.39063328  1  1.024459  -0.57252  0.73518  0.678159  -0.737628  2.446814  -0.573
Cu  Cu4  1  0.57182175  0.51282028  0.10943600  1  1.017413  -0.545165  0.732721  0.673335  -0.702371  2.442021  -0.546
Cu  Cu5  1  0.03809650  0.59708866  0.11006274  1  1.019955  0.505  0.734024  0.676108  0.660167  2.45699  0.502
Cu  Cu6  1  0.01297582  0.53764320  0.60949537  1  1.017633  0.554925  0.73262  0.673364  0.727928  2.443786  0.555
Cu  Cu7  1  0.09657494  0.07183976  0.60931955  1  1.024181  -0.573306  0.735037  0.678258  -0.738643  2.445946  -0.573
H  H8  1  0.44639026  0.62645575  0.80128321  1  0.118232  -0.000821  0.125176  0.075477  -0.000364  0.978988  -0.001
H  H9  1  0.85512054  0.17516401  0.80235408  1  0.092483  -0.000829  0.125455  0.075725  -0.000363  0.978204  0.0
H  H10  1  0.12636158  0.35549548  0.30202964  1  0.119078  0.000835  0.125019  0.074863  0.000378  0.980104  0.001
H  H11  1  0.67416401  0.94601160  0.30103562  1  0.116908  -0.000833  0.125122  0.075553  -0.000365  0.978028  -0.001
H  H12  1  0.55367029  0.37348608  0.19867669  1  0.118163  -0.000824  0.125205  0.075472  -0.000372  0.978818  -0.001
H  H13  1  0.14499044  0.82541606  0.19812428  1  0.091698  0.000789  0.125286  0.075578  0.000354  0.978059  0.0
H  H14  1  0.87355259  0.64458137  0.69815667  1  0.118179  0.000832  0.124788  0.074828  0.000378  0.979758  0.001
H  H15  1  0.32575913  0.05385021  0.69880087  1  0.117015  -0.000833  0.125184  0.075546  -0.000365  0.977947  -0.001
H  H16  1  0.80790954  0.94235481  0.17631652  1  0.53065  -6.4e-05  0.298291  0.320221  -0.000142  1.001537  0.0
H  H17  1  0.86834077  0.23415125  0.17711791  1  0.517879  4.4e-05  0.298411  0.320709  0.000172  1.000819  0.0
H  H18  1  0.44286505  0.36821043  0.67675216  1  0.527761  -8e-06  0.297743  0.319933  -0.000115  1.003046  0.0
H  H19  1  0.73338054  0.30680214  0.67507106  1  0.528415  -0.000138  0.299378  0.320188  -0.000181  0.999782  0.0
H  H20  1  0.19208619  0.05764682  0.82369189  1  0.531211  -6.5e-05  0.298265  0.320259  -0.000143  1.001551  0.0
H  H21  1  0.13184002  0.76623658  0.82331869  1  0.526832  6e-05  0.298412  0.320839  0.000107  1.000541  0.0
H  H22  1  0.55711813  0.63181632  0.32333976  1  0.517957  -1.6e-05  0.297717  0.320117  -0.000139  1.0026  0.0
H  H23  1  0.26645964  0.69304040  0.32468148  1  0.526656  4.1e-05  0.299657  0.320292  0.000118  0.998898  0.0
H  H24  1  0.71744939  0.92101278  0.03540240  1  0.435392  -0.000294  0.318303  0.313307  -0.000183  0.927514  0.0
H  H25  1  0.81817092  0.11487667  0.03656086  1  0.443991  7e-06  0.318874  0.313592  -1.5e-05  0.927619  0.0
H  H26  1  0.42086469  0.31792290  0.53570397  1  0.46201  0.000223  0.317933  0.312679  0.000153  0.928378  0.0
H  H27  1  0.61354435  0.21689716  0.53459432  1  0.465694  -0.000289  0.318496  0.313824  -0.000189  0.925005  0.0
H  H28  1  0.28256521  0.07897259  0.96459953  1  0.435129  -0.000288  0.318364  0.313393  -0.000182  0.927474  0.0
H  H29  1  0.18202419  0.88558348  0.96382884  1  0.474669  2.7e-05  0.318518  0.312994  4e-05  0.92823  0.0
H  H30  1  0.57904606  0.68210847  0.46436616  1  0.461564  0.000216  0.317772  0.312433  0.000139  0.928563  0.0
H  H31  1  0.38625440  0.78289268  0.46511912  1  0.466745  -0.00025  0.31859  0.313814  -0.000166  0.925538  0.0
H  H32  1  0.78027753  0.72008145  0.32266097  1  0.141918  -0.000391  0.129412  0.099551  -0.000174  1.014704  0.0
H  H33  1  0.04241810  0.60189130  0.32261164  1  0.173661  0.000392  0.129422  0.100227  0.000163  1.013864  0.0
H  H34  1  0.22082692  0.54264430  0.82305789  1  0.172513  8.7e-05  0.129599  0.100494  -1.8e-05  1.014752  0.0
H  H35  1  0.10187696  0.27986554  0.82154023  1  0.162519  -0.00033  0.128893  0.098654  -0.000125  1.014008  0.0
H  H36  1  0.21968818  0.27993742  0.67736022  1  0.141519  -0.000389  0.129425  0.09966  -0.000172  1.014447  0.0
H  H37  1  0.95786670  0.39854320  0.67795462  1  0.157836  -0.000103  0.129229  0.100616  3.9e-05  1.013877  0.0
H  H38  1  0.77927815  0.45749206  0.17721174  1  0.173526  6.8e-05  0.129432  0.100242  -4e-05  1.014268  0.0
H  H39  1  0.89795947  0.72011427  0.17826239  1  0.181481  -3e-05  0.129124  0.098797  6.9e-05  1.013256  0.0
H  H40  1  0.59981524  0.27027251  0.74511236  1  0.063657  -0.001766  0.091527  0.14355  -0.000866  1.001398  -0.001
H  H41  1  0.64721718  0.47428871  0.74677022  1  0.05014  0.002154  0.093859  0.146745  0.001047  0.999229  0.001
H  H42  1  0.77041213  0.14567461  0.24542808  1  0.069584  0.001816  0.091791  0.144205  0.000903  1.000489  0.001
H  H43  1  0.97455837  0.09957735  0.24548151  1  0.029593  -0.002149  0.092181  0.144806  -0.001019  1.000162  -0.001
H  H44  1  0.40020626  0.72972923  0.25494812  1  0.062814  -0.001731  0.09152  0.14347  -0.000837  1.001173  -0.001
H  H45  1  0.35251897  0.52423388  0.25183580  1  0.057505  -0.002323  0.093864  0.146966  -0.001125  0.999441  -0.001
H  H46  1  0.22971852  0.85451604  0.75459703  1  0.071122  0.00182  0.091784  0.144233  0.000905  1.000474  0.001
H  H47  1  0.02545402  0.90043104  0.75451025  1  0.02979  -0.002162  0.092134  0.144818  -0.001036  1.000125  -0.001
H  H48  1  0.72205182  0.34263137  0.89006998  1  0.095895  -0.000147  0.098058  0.15838  -2e-05  1.013343  0.0
H  H49  1  0.67066148  0.54612713  0.89182778  1  0.066833  -0.000627  0.100068  0.162316  -0.000273  1.007957  0.0
H  H50  1  0.84326546  0.16819286  0.39026325  1  0.064352  0.000297  0.098698  0.159762  0.000119  1.011512  0.0
H  H51  1  0.04658453  0.22152055  0.39013705  1  0.076801  -0.000316  0.099147  0.160718  -0.000124  1.009681  0.0
H  H52  1  0.27798837  0.65736214  0.10998541  1  0.095543  -0.000227  0.097915  0.158256  -6.9e-05  1.013324  0.0
H  H53  1  0.32881954  0.45257792  0.10666198  1  0.06367  0.000765  0.100468  0.162751  0.000389  1.007597  0.0
H  H54  1  0.15672985  0.83177910  0.60965581  1  0.06557  0.000284  0.098654  0.159725  0.000113  1.011404  0.0
H  H55  1  0.95342673  0.77849034  0.60985436  1  0.076701  -0.00032  0.099109  0.160746  -0.000124  1.009642  0.0
H  H56  1  0.63208243  0.23409908  0.84853211  1  0.055639  -0.000835  0.10398  0.163548  -0.000334  0.973485  0.0
H  H57  1  0.71845897  0.61354489  0.85010855  1  0.06046  -0.001312  0.105369  0.165124  -0.000654  0.970557  -0.001
H  H58  1  0.73428141  0.21619185  0.34868267  1  0.052961  0.000837  0.103884  0.163644  0.000345  0.97365  0.0
H  H59  1  0.11426852  0.13229328  0.34919272  1  0.059424  -0.00091  0.104377  0.164434  -0.000371  0.9721  0.0
H  H60  1  0.36797558  0.76588793  0.15151813  1  0.055905  -0.000821  0.103973  0.163582  -0.000338  0.973309  0.0
H  H61  1  0.28086423  0.38504520  0.14817464  1  0.074702  0.001297  0.105206  0.165542  0.000671  0.97082  0.001
H  H62  1  0.26572607  0.78379968  0.65125571  1  0.052524  0.000819  0.103858  0.163621  0.000336  0.973855  0.0
H  H63  1  0.88574181  0.86772136  0.65079059  1  0.059299  -0.000939  0.104349  0.164381  -0.000389  0.972128  0.0
C  C64  1  0.51680985  0.66559802  0.89264304  1  1.070203  0.002501  0.163538  0.246882  0.000974  4.046469  0.001
C  C65  1  0.87605478  0.22712301  0.89358492  1  1.101559  0.001688  0.163869  0.24698  0.000311  4.049919  0.001
C  C66  1  0.16576392  0.37643575  0.39338982  1  1.075828  -0.002575  0.163797  0.248056  -0.000986  4.04665  -0.001
C  C67  1  0.72633397  0.01633148  0.39224307  1  1.070681  0.002627  0.164041  0.247308  0.001022  4.045178  0.001
C  C68  1  0.48324769  0.33433905  0.10732020  1  1.070419  0.002585  0.163563  0.247234  0.00107  4.045956  0.001
C  C69  1  0.12410303  0.77339333  0.10692142  1  1.089241  -0.001835  0.163832  0.246671  -0.000402  4.048186  0.0
C  C70  1  0.83418840  0.62363991  0.60679979  1  1.067132  -0.002571  0.163678  0.247305  -0.001  4.047037  -0.001
C  C71  1  0.27356966  0.98354232  0.60759530  1  1.071558  0.002579  0.164131  0.247745  0.000999  4.044644  0.001
C  C72  1  0.61496170  0.66909015  0.06160294  1  0.978573  -0.004033  0.200203  0.28373  -0.004139  4.124367  -0.004
C  C73  1  0.94680754  0.39245402  0.06201280  1  0.977929  0.000726  0.199984  0.282572  0.000626  4.126277  0.001
C  C74  1  0.16952896  0.44706618  0.56218250  1  0.97507  0.002682  0.200691  0.28447  0.00331  4.122395  0.003
C  C75  1  0.89181539  0.11453945  0.56097167  1  0.945587  -0.003886  0.20073  0.285312  -0.003997  4.126906  -0.004
C  C76  1  0.38505998  0.33087017  0.93837911  1  0.977386  -0.004022  0.200298  0.283283  -0.004128  4.125692  -0.004
C  C77  1  0.05346867  0.60810842  0.93856455  1  0.937243  0.000507  0.200314  0.283471  0.000271  4.126465  0.0
C  C78  1  0.83046977  0.55304015  0.43803852  1  0.973427  0.002649  0.200593  0.284007  0.003287  4.122374  0.003
C  C79  1  0.10806636  0.88541098  0.43889470  1  0.940179  -0.00309  0.200499  0.285135  -0.003448  4.126388  -0.003
C  C80  1  0.68858387  0.76677546  0.11966442  1  0.420735  -0.009013  0.071988  -0.041235  -0.006774  4.030416  -0.008
C  C81  1  0.93111786  0.35288904  0.12018611  1  0.408426  -0.001336  0.073298  -0.038414  -0.000498  4.023136  -0.001
C  C82  1  0.26729588  0.43141612  0.62030309  1  0.443575  0.007289  0.072572  -0.040583  0.005136  4.025905  0.006
C  C83  1  0.85211153  0.18803391  0.61873335  1  0.463071  -0.008793  0.072054  -0.040365  -0.006672  4.031904  -0.008
C  C84  1  0.31143249  0.23318710  0.88031469  1  0.423161  -0.009025  0.071868  -0.040983  -0.006789  4.030409  -0.008
C  C85  1  0.06913081  0.64761523  0.88036528  1  0.443482  0.002865  0.07299  -0.039115  0.002276  4.023582  0.003
C  C86  1  0.73269419  0.56866863  0.37989101  1  0.442146  0.007248  0.072756  -0.039873  0.005116  4.025465  0.006
C  C87  1  0.14774632  0.81191095  0.38112019  1  0.468299  -0.007908  0.072102  -0.040823  -0.005652  4.032257  -0.007
C  C88  1  0.67145990  0.80959756  0.05201359  1  1.062761  0.000617  0.235  0.409826  0.000518  4.149445  0.001
C  C89  1  0.88075766  0.24254985  0.05286084  1  1.074321  0.00194  0.235416  0.409679  0.001247  4.147229  0.002
C  C90  1  0.31003219  0.38098859  0.55275028  1  1.051263  -0.001114  0.234615  0.408978  -0.000722  4.148759  -0.001
C  C91  1  0.74156693  0.17069439  0.55108149  1  1.055758  0.000745  0.234731  0.408392  0.000592  4.148859  0.001
C  C92  1  0.32856914  0.19036453  0.94796949  1  1.062673  0.000633  0.235096  0.409729  0.000538  4.149446  0.001
C  C93  1  0.11946247  0.75794504  0.94763492  1  1.028036  -0.001572  0.235484  0.409132  -0.001095  4.148514  -0.001
C  C94  1  0.68992332  0.61907276  0.44740442  1  1.054141  -0.001111  0.234505  0.408474  -0.000717  4.148685  -0.001
C  C95  1  0.25827291  0.82916975  0.44871754  1  1.054847  0.001085  0.234883  0.409097  0.000742  4.14915  0.001
C  C96  1  0.73598691  0.71890236  0.24174509  1  0.974095  0.002238  0.139958  0.197421  0.000899  3.934678  0.0
C  C97  1  0.00575502  0.52235874  0.24188381  1  0.957662  -0.002823  0.140638  0.197779  -0.001341  3.932081  -0.001
C  C98  1  0.21942489  0.50601166  0.74215799  1  0.968779  0.000167  0.140939  0.19738  0.000641  3.932868  0.001
C  C99  1  0.02207239  0.23559630  0.74077742  1  0.981869  0.002026  0.139799  0.197478  0.000715  3.937918  0.0
C  C100  1  0.26399200  0.28109748  0.75826235  1  0.974646  0.00224  0.139985  0.197435  0.000899  3.934213  0.0
C  C101  1  0.99450181  0.47811498  0.75865276  1  0.962581  0.000279  0.14042  0.19634  -0.000178  3.934811  0.0
C  C102  1  0.78061934  0.49410803  0.25807925  1  0.967654  0.000151  0.141278  0.197985  0.000631  3.932585  0.001
C  C103  1  0.97775920  0.76438854  0.25905054  1  0.960741  0.000235  0.140139  0.197865  -0.000443  3.937108  -0.001
C  C104  1  0.58668934  0.37502867  0.89324637  1  1.558939  0.001484  0.212386  0.688075  -0.000256  4.115373  0.004
C  C105  1  0.80919251  0.51750164  0.89457194  1  1.564187  0.000585  0.216933  0.689927  0.00055  4.099748  0.001
C  C106  1  0.87528251  0.30690797  0.39365046  1  1.556559  -0.001349  0.213032  0.688527  0.000492  4.112488  -0.004
C  C107  1  0.01811592  0.08635036  0.39382381  1  1.561739  0.001081  0.214344  0.688986  -0.000619  4.109714  0.004
C  C108  1  0.41335855  0.62495936  0.10682789  1  1.56126  0.001488  0.212671  0.688559  -0.00025  4.115045  0.004
C  C109  1  0.19063456  0.48175157  0.10450247  1  1.570276  -0.000693  0.216254  0.689319  -0.000587  4.101906  -0.001
C  C110  1  0.12480046  0.69323880  0.60656601  1  1.552708  -0.001329  0.212809  0.688491  0.000477  4.11249  -0.004
C  C111  1  0.98189722  0.91365627  0.60616314  1  1.560968  0.001071  0.214347  0.688863  -0.000621  4.109757  0.004
C  C112  1  0.63735332  0.30057482  0.83951181  1  -0.104942  -0.020117  -0.243443  -0.507807  -0.014392  3.869684  -0.016
C  C113  1  0.70437316  0.53805938  0.84109806  1  -0.058275  -0.001668  -0.240063  -0.506421  -0.001106  3.859572  -0.001
C  C114  1  0.80087646  0.20231585  0.33980166  1  -0.074306  0.020018  -0.243446  -0.508852  0.01462  3.868062  0.016
C  C115  1  0.03860742  0.13716175  0.33995715  1  -0.043548  -0.019661  -0.242476  -0.508779  -0.014236  3.865957  -0.015
C  C116  1  0.36269067  0.69941819  0.16054581  1  -0.104235  -0.020132  -0.243448  -0.507822  -0.014396  3.869024  -0.016
C  C117  1  0.29519921  0.46063441  0.15747062  1  -0.08011  0.001193  -0.240526  -0.507775  0.000856  3.859956  0.001
C  C118  1  0.19918714  0.79775953  0.66022467  1  -0.073846  0.019978  -0.243556  -0.509054  0.014612  3.868033  0.016
C  C119  1  0.96140674  0.86285090  0.66003319  1  -0.042937  -0.019666  -0.242314  -0.508693  -0.014252  3.865788  -0.015
N  N120  1  0.58350957  0.75597958  0.93775104  1  -1.22859  -0.012255  -0.357603  -0.443443  -0.007896  3.262838  -0.009
N  N121  1  0.85462392  0.18189544  0.93884162  1  -1.224751  -0.012938  -0.357361  -0.442991  -0.008331  3.264471  -0.009
N  N122  1  0.25623472  0.35486312  0.43854667  1  -1.221472  0.012381  -0.357761  -0.444249  0.008121  3.264662  0.009
N  N123  1  0.68091048  0.08282394  0.43711068  1  -1.236421  -0.012486  -0.357641  -0.442831  -0.008036  3.261869  -0.009
N  N124  1  0.41654531  0.24396500  0.06221668  1  -1.228724  -0.012093  -0.357576  -0.443527  -0.007789  3.262772  -0.009
N  N125  1  0.14554644  0.81858631  0.06162967  1  -1.188225  0.011956  -0.357277  -0.442534  0.007861  3.26408  0.009
N  N126  1  0.74370520  0.64520071  0.56160987  1  -1.220166  0.012295  -0.357789  -0.443973  0.008079  3.263947  0.009
N  N127  1  0.31896230  0.91702348  0.56269202  1  -1.236072  -0.012658  -0.357472  -0.442969  -0.008152  3.26215  -0.009
N  N128  1  0.52727149  0.61694058  0.94811414  1  -1.246951  -0.082016  -0.373344  -0.359452  -0.054625  3.645332  -0.07
N  N129  1  0.92089015  0.33104159  0.94873346  1  -1.227535  -0.080612  -0.37205  -0.361172  -0.053697  3.642224  -0.068
N  N130  1  0.11720569  0.42136833  0.44877662  1  -1.24865  0.082287  -0.373489  -0.36024  0.055834  3.645259  0.07
N  N131  1  0.83053923  0.02696247  0.44776772  1  -1.226733  -0.084651  -0.372701  -0.361207  -0.056352  3.643565  -0.072
N  N132  1  0.47277003  0.38300624  0.05185686  1  -1.246587  -0.081873  -0.373454  -0.359803  -0.054524  3.646205  -0.07
N  N133  1  0.07928852  0.66948265  0.05185416  1  -1.227545  0.079286  -0.371995  -0.360122  0.053772  3.641217  0.067
N  N134  1  0.88276959  0.57869790  0.55144636  1  -1.244963  0.08172  -0.373101  -0.359489  0.055469  3.644687  0.07
N  N135  1  0.16936784  0.97296823  0.55210660  1  -1.223912  -0.084026  -0.372246  -0.361025  -0.055968  3.642451  -0.072
N  N136  1  0.73659302  0.90049392  0.09387368  1  -1.289165  0.000168  -0.565101  -0.606211  0.000109  3.337452  0.0
N  N137  1  0.85757023  0.19368069  0.09494584  1  -1.286699  0.001152  -0.564878  -0.605568  0.000733  3.337636  0.001
N  N138  1  0.40099244  0.35765580  0.59454081  1  -1.314877  -0.000541  -0.564941  -0.605424  -0.000314  3.337846  0.0
N  N139  1  0.69254002  0.23572293  0.59291983  1  -1.305367  -7.8e-05  -0.565292  -0.606337  -4.2e-05  3.336077  0.0
N  N140  1  0.26341466  0.09949195  0.90612767  1  -1.289971  0.000168  -0.56514  -0.606365  0.000105  3.337691  0.0
N  N141  1  0.14266030  0.80677361  0.90551751  1  -1.309455  -0.00091  -0.564419  -0.604686  -0.000562  3.337892  0.0
N  N142  1  0.59896044  0.64239371  0.40556677  1  -1.304863  -0.000786  -0.564451  -0.604822  -0.000491  3.337362  0.0
N  N143  1  0.30724984  0.76408198  0.40683950  1  -1.304795  0.000479  -0.564979  -0.605962  0.0003  3.336428  0.0
N  N144  1  0.76487464  0.79753586  0.23531948  1  -1.204843  -0.032559  -0.36907  -0.341304  -0.021831  3.491482  -0.028
N  N145  1  0.97033134  0.43749154  0.23563345  1  -1.178258  0.026821  -0.369698  -0.341459  0.018642  3.492544  0.024
N  N146  1  0.29805372  0.47065674  0.73584665  1  -1.20117  -0.011075  -0.368708  -0.338032  -0.008465  3.494753  -0.012
N  N147  1  0.93694256  0.26439928  0.73417813  1  -1.226031  -0.026796  -0.369153  -0.345075  -0.017627  3.486229  -0.023
N  N148  1  0.23511316  0.20244746  0.76467306  1  -1.204964  -0.032444  -0.368992  -0.34135  -0.021756  3.491034  -0.028
N  N149  1  0.02991094  0.56295382  0.76486791  1  -1.17688  0.01972  -0.369071  -0.34003  0.014187  3.490356  0.018
N  N150  1  0.70196491  0.52942530  0.26434828  1  -1.200417  -0.010874  -0.368799  -0.338687  -0.008333  3.49437  -0.012
N  N151  1  0.06289245  0.73559687  0.26567706  1  -1.22545  -0.002602  -0.369434  -0.343857  -0.000745  3.490202  0.001
N  N152  1  0.64644763  0.63898502  0.13895391  1  -1.169793  -0.083291  -0.39188  -0.383585  -0.055516  3.609842  -0.071
N  N153  1  0.99275527  0.49964711  0.13926014  1  -1.229448  0.078199  -0.390891  -0.384841  0.053162  3.602142  0.066
N  N154  1  0.13947097  0.49287731  0.63937575  1  -1.209474  0.082559  -0.391417  -0.382522  0.056079  3.607169  0.07
N  N155  1  0.99931046  0.14609487  0.63832501  1  -1.205818  -0.086522  -0.391544  -0.385091  -0.057558  3.607017  -0.074
N  N156  1  0.35354929  0.36099983  0.86104777  1  -1.170965  -0.083389  -0.391866  -0.383416  -0.05558  3.609996  -0.071
N  N157  1  0.00754153  0.50091609  0.86129256  1  -1.207861  -0.078385  -0.390701  -0.385347  -0.052433  3.602724  -0.066
N  N158  1  0.86055697  0.50725941  0.36088247  1  -1.205085  0.082946  -0.391601  -0.382708  0.056319  3.608081  0.071
N  N159  1  0.00056609  0.85387780  0.36152581  1  -1.205312  -0.085531  -0.391362  -0.384781  -0.056909  3.60717  -0.073
O  O160  1  0.51205594  0.39652297  0.82681052  1  -1.156781  -0.087383  -0.316695  -0.560144  -0.056771  2.338338  -0.081
O  O161  1  0.81714333  0.42995964  0.82778538  1  -1.13993  -0.085303  -0.311955  -0.54924  -0.055893  2.347643  -0.078
O  O162  1  0.89662795  0.31533443  0.32730429  1  -1.142653  0.088783  -0.316109  -0.558564  0.058775  2.340987  0.082
O  O163  1  0.93034721  0.01157877  0.32742184  1  -1.15754  -0.092403  -0.315218  -0.556481  -0.060096  2.343303  -0.086
O  O164  1  0.48795874  0.60342643  0.17324875  1  -1.158536  -0.087518  -0.316826  -0.560331  -0.056862  2.337607  -0.081
O  O165  1  0.18315395  0.56938599  0.17148079  1  -1.144108  0.082836  -0.311482  -0.549335  0.055339  2.350251  0.076
O  O166  1  0.10345618  0.68494462  0.67296799  1  -1.144567  0.087853  -0.316354  -0.559223  0.058135  2.33979  0.082
O  O167  1  0.06965052  0.98845716  0.67258298  1  -1.156862  -0.092687  -0.315232  -0.556375  -0.060277  2.343185  -0.086
O  O168  1  0.62254976  0.41133601  0.00128585  1  -1.140259  -0.074685  -0.315699  -0.545992  -0.048496  2.289228  -0.069
O  O169  1  0.88160706  0.58920544  0.00251192  1  -1.139174  0.069487  -0.311056  -0.535299  0.046453  2.308984  0.063
O  O170  1  0.91168959  0.37902565  0.50162114  1  -1.151601  0.075268  -0.315463  -0.544886  0.049818  2.289866  0.07
O  O171  1  0.08992525  0.12218257  0.50197938  1  -1.14467  -0.079284  -0.31451  -0.542019  -0.051509  2.298177  -0.073
O  O172  1  0.37754179  0.58868992  0.99880671  1  -1.141125  -0.074461  -0.315788  -0.546302  -0.04835  2.289898  -0.069
O  O173  1  0.11788845  0.41013225  0.99648094  1  -1.13742  -0.072368  -0.310688  -0.533977  -0.04747  2.31093  -0.066
O  O174  1  0.08841246  0.62103330  0.49862173  1  -1.149924  0.075159  -0.315432  -0.544869  0.049749  2.290991  0.07
O  O175  1  0.91011333  0.87780757  0.49799974  1  -1.145134  -0.078957  -0.314486  -0.541917  -0.051297  2.298444  -0.073
