# generated using pymatgen
data_Cu4H26C40N12O19
_symmetry_space_group_name_H-M   'P 1'
_cell_length_a   10.40856297
_cell_length_b   12.22228975
_cell_length_c   18.98121912
_cell_angle_alpha   107.03967739
_cell_angle_beta   93.88943930
_cell_angle_gamma   94.89253682
_symmetry_Int_Tables_number   1
_chemical_formula_structural   Cu4H26C40N12O19
_chemical_formula_sum   'Cu8 H52 C80 N24 O38'
_cell_volume   2289.36399059
_cell_formula_units_Z   2
loop_
 _symmetry_equiv_pos_site_id
 _symmetry_equiv_pos_as_xyz
  1  'x, y, z'
loop_
 _atom_site_type_symbol
 _atom_site_label
 _atom_site_symmetry_multiplicity
 _atom_site_fract_x
 _atom_site_fract_y
 _atom_site_fract_z
 _atom_site_occupancy
 _atom_site_pbe_bader_charge
 _atom_site_pbe_bader_spin_density
 _atom_site_pbe_cm5_charge
 _atom_site_pbe_ddec_charge
 _atom_site_pbe_ddec_spin_density
 _atom_site_pbe_ddec_sum_bond_order
 _atom_site_pbe_magmom
Cu  Cu0  1  0.10986695  0.47530460  0.22635742  1  1.073866  0.552183  0.69408  0.765781  0.711215  2.408087  0.549
Cu  Cu1  1  0.89016182  0.52471570  0.77365031  1  1.074448  -0.552582  0.694292  0.766013  -0.710664  2.408075  -0.55
Cu  Cu2  1  0.34065819  0.54817703  0.29011139  1  1.075536  -0.54774  0.696883  0.760096  -0.705537  2.437857  -0.545
Cu  Cu3  1  0.65933037  0.45180434  0.70988759  1  1.075406  0.548036  0.697013  0.760542  0.706861  2.437252  0.545
Cu  Cu4  1  0.58936530  0.20858755  0.39197189  1  1.10802  0.596256  0.71729  0.861892  0.768593  2.217617  0.596
Cu  Cu5  1  0.41063386  0.79139468  0.60800550  1  1.108013  0.596542  0.717377  0.862265  0.768948  2.217615  0.596
Cu  Cu6  1  0.88383044  0.82798383  0.03239070  1  1.093765  -0.584077  0.730296  0.856495  -0.761681  2.146649  -0.585
Cu  Cu7  1  0.11618200  0.17201229  0.96761296  1  1.093625  -0.584112  0.730302  0.856687  -0.761726  2.146785  -0.585
H  H8  1  0.02818655  0.27274832  0.58269604  1  0.102443  8.9e-05  0.111551  0.122078  2.6e-05  1.010573  0.0
H  H9  1  0.97179856  0.72725283  0.41730706  1  0.102705  4.7e-05  0.111619  0.122163  -5e-06  1.010391  0.0
H  H10  1  0.50764721  0.66335238  0.91647316  1  0.109035  -0.000668  0.110476  0.123567  -0.000566  1.016926  0.0
H  H11  1  0.49235879  0.33664630  0.08353181  1  0.108924  -0.000628  0.110525  0.123646  -0.000536  1.016676  0.0
H  H12  1  0.21611472  0.18240289  0.60817391  1  0.154529  -1.8e-05  0.142186  0.146749  -1.2e-05  0.976637  0.0
H  H13  1  0.78385568  0.81758786  0.39182776  1  0.154045  2.2e-05  0.142237  0.146697  -0.0  0.976703  0.0
H  H14  1  0.17175586  0.51873196  0.99436823  1  0.12508  -7.9e-05  0.122978  0.141797  -0.000109  0.981884  0.0
H  H15  1  0.82824410  0.48126491  0.00561880  1  0.124754  -0.000562  0.123029  0.141905  -0.000501  0.981749  0.0
H  H16  1  0.13496457  0.11780994  0.13561930  1  0.097329  0.000254  0.108035  0.109959  0.000235  1.042417  0.0
H  H17  1  0.86503366  0.88219643  0.86438156  1  0.097323  -0.000324  0.108076  0.110032  -0.000302  1.042309  0.0
H  H18  1  0.32549899  0.44776897  0.49239351  1  0.139694  -0.000122  0.1187  0.136792  -0.000107  1.003302  0.0
H  H19  1  0.67448610  0.55223995  0.50761947  1  0.139847  0.000335  0.118681  0.136812  0.000364  1.003438  0.0
H  H20  1  0.05790703  0.15004066  0.31878684  1  0.130848  7.1e-05  0.117114  0.132301  7e-06  1.003814  0.0
H  H21  1  0.94211454  0.84995121  0.68121635  1  0.131074  7.1e-05  0.117132  0.132445  1.7e-05  1.00362  0.0
H  H22  1  0.52619805  0.64409312  0.13834390  1  0.155993  -0.000203  0.106986  0.117781  -0.000194  1.020407  0.0
H  H23  1  0.47378498  0.35591491  0.86166042  1  0.155786  0.000183  0.107036  0.117909  0.000218  1.02029  0.0
H  H24  1  0.42621196  0.89559363  0.05539411  1  0.135092  -4e-05  0.113835  0.124804  6e-06  1.026145  0.0
H  H25  1  0.57376864  0.10439374  0.94460940  1  0.135539  -5.4e-05  0.113856  0.124887  -3e-06  1.025987  0.0
H  H26  1  0.44825600  0.23521679  0.70283411  1  0.152557  -2.7e-05  0.131419  0.131009  -3.2e-05  0.991744  0.0
H  H27  1  0.55172745  0.76476279  0.29714591  1  0.152624  1.7e-05  0.131303  0.130862  1.1e-05  0.991774  0.0
H  H28  1  0.93353573  0.37653184  0.39033588  1  0.135618  0.000597  0.109003  0.119829  0.000557  1.013525  0.0
H  H29  1  0.06645176  0.62348137  0.60966904  1  0.135551  4e-06  0.108961  0.119811  2e-06  1.01344  0.0
H  H30  1  0.40530991  0.53763790  0.80090150  1  0.177333  2e-05  0.133931  0.147268  1.3e-05  1.020023  0.0
H  H31  1  0.59470644  0.46235907  0.19908982  1  0.17777  -4.3e-05  0.133916  0.147259  -0.0  1.020101  0.0
H  H32  1  0.53735253  0.96641362  0.25796702  1  0.152213  0.000125  0.130938  0.137778  4.9e-05  0.990632  0.0
H  H33  1  0.46267694  0.03358777  0.74204668  1  0.152693  0.000127  0.130917  0.137768  4.4e-05  0.990493  0.0
H  H34  1  0.18341994  0.53202237  0.70540328  1  0.091994  -2e-05  0.127279  0.128249  -2e-05  1.005616  0.0
H  H35  1  0.81657948  0.46798574  0.29460480  1  0.092085  -4e-06  0.127274  0.128285  -1.2e-05  1.005515  0.0
H  H36  1  0.74941829  0.84600863  0.20809458  1  0.235732  0.00044  0.133022  0.160634  0.000237  1.038592  0.0
H  H37  1  0.25059722  0.15399699  0.79191519  1  0.235483  0.000439  0.133017  0.160576  0.000246  1.038702  0.0
H  H38  1  0.93235862  0.78727333  0.27675862  1  0.10039  0.000275  0.1134  0.125224  0.000249  1.009825  0.0
H  H39  1  0.06766661  0.21272461  0.72325744  1  0.100586  -0.000259  0.113367  0.125107  -0.000242  1.009805  0.0
H  H40  1  0.33609563  0.91365879  0.33112469  1  0.133529  -2e-06  0.114284  0.127482  -6e-06  0.995475  0.0
H  H41  1  0.66392993  0.08634254  0.66887357  1  0.133977  0.000549  0.11431  0.127429  0.000478  0.995508  0.0
H  H42  1  0.63419682  0.20361487  0.52252681  1  0.638338  6.8e-05  0.284326  0.383538  0.000188  0.953406  0.0
H  H43  1  0.36578866  0.79637336  0.47746650  1  0.638136  6.8e-05  0.28432  0.383663  0.000178  0.953262  0.0
H  H44  1  0.54303811  0.29905708  0.52689383  1  0.577572  -0.00033  0.304743  0.389494  -0.000126  0.904454  0.0
H  H45  1  0.45693791  0.70091566  0.47311309  1  0.577324  -0.000311  0.304748  0.389319  -9.9e-05  0.904545  0.0
H  H46  1  0.53457731  0.24796792  0.19340644  1  0.085404  -0.000495  0.109338  0.109741  -0.000451  1.042751  0.0
H  H47  1  0.46543149  0.75203071  0.80657438  1  0.085042  0.000192  0.109396  0.109776  0.000166  1.042864  0.0
H  H48  1  0.73251533  0.21427420  0.18853946  1  0.154228  -0.000558  0.133336  0.133142  -0.000302  1.014918  0.0
H  H49  1  0.26747271  0.78572857  0.81142506  1  0.15399  -0.000553  0.133283  0.133014  -0.000323  1.015287  0.0
H  H50  1  0.92677760  0.63147765  0.94835883  1  0.65635  -0.00066  0.307674  0.40463  -0.001026  0.915113  -0.001
H  H51  1  0.07327063  0.36853667  0.05163216  1  0.656429  -0.000622  0.307717  0.404702  -0.000893  0.915024  -0.001
H  H52  1  0.06064473  0.71543248  0.98699796  1  0.658205  -0.000384  0.288803  0.372401  -0.000768  0.983337  0.0
H  H53  1  0.93938479  0.28460244  0.01300992  1  0.658528  -0.000371  0.288822  0.372327  -0.000758  0.983468  0.0
H  H54  1  0.41597392  0.33063457  0.37853740  1  0.662125  0.000156  0.286229  0.378301  0.000309  0.971567  0.0
H  H55  1  0.58400281  0.66939324  0.62147989  1  0.662602  0.000135  0.286212  0.378246  0.000302  0.971664  0.0
H  H56  1  0.54419970  0.42348480  0.39195019  1  0.625804  0.000932  0.293971  0.361186  0.000963  0.97894  0.001
H  H57  1  0.45576554  0.57653523  0.60806996  1  0.626688  0.000912  0.294035  0.361396  0.00093  0.978678  0.001
H  H58  1  0.94237947  0.09548402  0.13862317  1  0.124496  -0.000128  0.13478  0.14202  -4.5e-05  0.997166  0.0
H  H59  1  0.05759137  0.90450322  0.86134729  1  0.124421  -0.000175  0.134688  0.141912  -6.7e-05  0.997266  0.0
C  C60  1  0.05867172  0.31362031  0.54176753  1  -0.033616  0.00187  -0.071824  -0.153418  0.001178  3.913418  0.001
C  C61  1  0.94130183  0.68638079  0.45823514  1  -0.032987  0.002035  -0.071992  -0.153467  0.001306  3.91358  0.001
C  C62  1  0.46129941  0.63856170  0.96006762  1  0.017664  -4.9e-05  -0.071953  -0.152754  -0.000197  3.910448  0.0
C  C63  1  0.53871958  0.36144909  0.03994008  1  0.018803  -0.00049  -0.071944  -0.152589  -0.000484  3.910141  0.0
C  C64  1  0.33319292  0.58929409  0.94918575  1  0.232613  -0.00079  0.10397  0.142799  -0.000461  4.007061  -0.001
C  C65  1  0.66682347  0.41071148  0.05080561  1  0.232114  0.000355  0.103959  0.142629  0.000313  4.007245  0.0
C  C66  1  0.18651217  0.35996487  0.54309941  1  0.243958  0.001765  0.096319  0.123775  0.001158  4.011242  0.001
C  C67  1  0.81346438  0.64003711  0.45690616  1  0.243897  0.000496  0.096411  0.123655  0.000289  4.011772  0.0
C  C68  1  0.28826110  0.25663513  0.62472453  1  0.33246  0.000326  0.038105  -0.092957  0.000247  3.880378  0.0
C  C69  1  0.71171682  0.74335395  0.37527920  1  0.332838  -7.4e-05  0.038118  -0.092841  -6.2e-05  3.880317  0.0
C  C70  1  0.16966718  0.46758945  0.37583767  1  1.558567  0.000746  0.220736  0.58739  0.000801  4.138877  0.001
C  C71  1  0.83033429  0.53239543  0.62416086  1  1.557886  -0.000572  0.220679  0.587549  -0.000673  4.138752  -0.001
C  C72  1  0.53091194  0.65762933  0.02887110  1  -0.011985  -0.008508  -0.013429  -0.012457  -0.005936  3.997965  -0.007
C  C73  1  0.46911557  0.34237203  0.97113409  1  -0.01249  -0.009497  -0.013402  -0.012845  -0.006668  3.998157  -0.007
C  C74  1  0.27155352  0.55851034  0.00487649  1  0.051987  -0.000619  -0.06088  -0.1293  -0.000424  3.871337  -0.001
C  C75  1  0.72845339  0.44148829  0.99511322  1  0.052861  0.00123  -0.060933  -0.129346  0.000722  3.871296  0.001
C  C76  1  0.23602170  0.10319471  0.13280402  1  -0.022625  -1.6e-05  -0.071014  -0.104156  0.000116  3.929919  0.0
C  C77  1  0.76396694  0.89677117  0.86718995  1  -0.02263  0.001679  -0.071151  -0.104355  0.001118  3.929453  0.001
C  C78  1  0.82925783  0.26992359  0.48148488  1  1.580122  4e-05  0.202724  0.556775  0.001709  4.230451  -0.002
C  C79  1  0.17069740  0.73008519  0.51852858  1  1.58142  0.000352  0.202927  0.557111  0.001939  4.230289  -0.002
C  C80  1  0.22495213  0.41471353  0.49179707  1  0.067055  0.00182  -0.062697  -0.124215  0.001214  3.877376  0.001
C  C81  1  0.77502858  0.58529106  0.50821072  1  0.066687  2.3e-05  -0.06268  -0.124254  0.000106  3.877666  0.0
C  C82  1  0.96721992  0.32084197  0.48648150  1  0.058123  0.010043  -0.011772  -0.010955  0.006991  3.976955  0.008
C  C83  1  0.03273575  0.67916250  0.51352748  1  0.057207  0.011377  -0.01162  -0.01083  0.007968  3.977034  0.009
C  C84  1  0.07956739  0.06263831  0.31393409  1  0.014432  0.00038  -0.067016  -0.151768  0.000242  3.906594  0.0
C  C85  1  0.92046803  0.93736481  0.68607277  1  0.014369  0.000925  -0.067067  -0.152173  0.000603  3.906364  0.001
C  C86  1  0.98115416  0.97138257  0.29844870  1  0.199441  0.000873  0.096217  0.131688  0.000614  4.023001  0.001
C  C87  1  0.01887108  0.02862395  0.70156107  1  0.198744  0.002041  0.096085  0.131649  0.001426  4.022885  0.002
C  C88  1  0.47082844  0.62876226  0.08510849  1  -0.032725  -3.9e-05  -0.074805  -0.104367  -2.7e-05  3.925038  0.0
C  C89  1  0.52917572  0.37125360  0.91489331  1  -0.032337  -0.001401  -0.074835  -0.104441  -0.000865  3.925256  -0.001
C  C90  1  0.40000392  0.97867371  0.08755352  1  -0.002124  -0.000467  -0.071293  -0.156515  -0.000319  3.905173  -0.001
C  C91  1  0.59997518  0.02130933  0.91244122  1  -0.002231  -0.000318  -0.071526  -0.157002  -0.000213  3.905439  0.0
C  C92  1  0.28750508  0.54750372  0.13677177  1  1.541977  -0.00137  0.220173  0.587666  -0.001343  4.128669  -0.002
C  C93  1  0.71246244  0.45251972  0.86323487  1  1.542308  0.000935  0.220279  0.58816  0.001013  4.128423  0.001
C  C94  1  0.31555668  0.13805553  0.33989048  1  1.564961  0.000294  0.213185  0.57658  0.001576  4.178763  -0.001
C  C95  1  0.68444968  0.86197147  0.66009348  1  1.564467  -5.4e-05  0.213189  0.576354  0.001338  4.178613  -0.001
C  C96  1  0.40254456  0.28295185  0.67023070  1  0.461361  -0.000288  0.02532  -0.030134  -0.000124  3.987521  0.0
C  C97  1  0.59744341  0.71703294  0.32976258  1  0.461521  0.000578  0.025452  -0.029918  0.000418  3.987426  0.0
C  C98  1  0.00467719  0.37353404  0.43406928  1  -0.076455  4e-06  -0.069193  -0.096155  0.000146  3.915811  -0.001
C  C99  1  0.99529962  0.62646192  0.56593570  1  -0.076051  0.001913  -0.069213  -0.096355  0.001305  3.916599  0.001
C  C100  1  0.13234754  0.42052988  0.43668847  1  0.042525  0.001949  -0.007011  -0.006468  0.001284  3.95777  0.001
C  C101  1  0.86763338  0.57947643  0.56331913  1  0.042704  -0.001883  -0.00688  -0.006239  -0.001306  3.958175  -0.002
C  C102  1  0.20822013  0.04076924  0.32401483  1  0.060325  0.009202  -0.008461  -0.008503  0.006482  3.951029  0.007
C  C103  1  0.79181746  0.95924420  0.67598825  1  0.060877  0.007622  -0.008415  -0.008283  0.005335  3.950405  0.006
C  C104  1  0.30557941  0.55069415  0.81101677  1  0.315119  -0.000256  0.025741  -0.114182  -0.000166  3.881453  0.0
C  C105  1  0.69442474  0.44931393  0.18896987  1  0.314606  8e-05  0.025614  -0.114361  7.1e-05  3.881847  0.0
C  C106  1  0.64015093  0.98600720  0.27522755  1  0.411951  0.001004  0.014928  -0.045374  0.001384  3.980516  0.002
C  C107  1  0.35986618  0.01400360  0.72478905  1  0.410596  0.001008  0.014964  -0.045313  0.001385  3.980425  0.002
C  C108  1  0.19626122  0.54760507  0.76474999  1  0.474883  0.000394  0.014118  -0.047148  0.000227  3.975521  0.0
C  C109  1  0.80372570  0.45239522  0.23524774  1  0.475191  -0.000571  0.014009  -0.047433  -0.000374  3.975657  0.0
C  C110  1  0.66920011  0.70958457  0.04418210  1  1.580009  0.001964  0.19142  0.544101  0.000341  4.258662  0.004
C  C111  1  0.33081166  0.29042190  0.95583297  1  1.580539  0.001706  0.19162  0.544769  0.000148  4.258099  0.004
C  C112  1  0.16863742  0.71843496  0.29403578  1  1.564954  0.000502  0.216761  0.576578  0.00036  4.159577  0.001
C  C113  1  0.83138654  0.28155262  0.70596670  1  1.565115  -0.000389  0.217087  0.577292  -0.000263  4.159173  -0.001
C  C114  1  0.49517045  0.06985101  0.12336075  1  0.269598  -0.00082  0.099201  0.134915  -0.000595  3.997265  -0.001
C  C115  1  0.50482392  0.93013121  0.87662280  1  0.269073  -0.00188  0.09942  0.135185  -0.001347  3.99743  -0.002
C  C116  1  0.74339507  0.92581221  0.25188198  1  0.311323  0.003465  0.025761  -0.111038  0.002354  3.860678  0.002
C  C117  1  0.25661882  0.07419599  0.74812980  1  0.312052  0.003443  0.025788  -0.110974  0.002355  3.861102  0.002
C  C118  1  0.13744434  0.83875440  0.30270229  1  0.076347  0.000131  -0.004473  0.006856  6.3e-05  3.952309  0.0
C  C119  1  0.86258702  0.16125475  0.69731663  1  0.075769  0.00042  -0.004592  0.006087  0.000229  3.953249  0.0
C  C120  1  0.00866513  0.85906965  0.29078791  1  0.005185  -0.001787  -0.072932  -0.163379  -0.001079  3.919372  -0.001
C  C121  1  0.99135971  0.14093343  0.70922172  1  0.004696  0.000789  -0.07288  -0.163035  0.000478  3.919347  0.001
C  C122  1  0.23651755  0.92954227  0.32035137  1  -0.062078  0.000612  -0.064891  -0.087571  0.000414  3.877735  0.001
C  C123  1  0.76351392  0.07046855  0.67964467  1  -0.062009  -0.00136  -0.064776  -0.087138  -0.000814  3.877535  -0.001
C  C124  1  0.34192932  0.57907956  0.07354267  1  0.018637  -0.001324  -0.011039  -0.012525  -0.00091  3.954238  -0.001
C  C125  1  0.65807051  0.42092422  0.92645355  1  0.018222  -0.000496  -0.011071  -0.012498  -0.000253  3.954456  -0.001
C  C126  1  0.33130770  0.19331710  0.16822259  1  0.064535  -0.00071  -0.003906  0.010083  -0.000523  3.951041  -0.001
C  C127  1  0.66868538  0.80666251  0.83175462  1  0.063753  2.6e-05  -0.003924  0.010071  7.8e-05  3.951191  0.0
C  C128  1  0.16360703  0.90067125  0.05404949  1  1.560232  -0.000489  0.212054  0.585385  -0.001562  4.162071  0.001
C  C129  1  0.83638174  0.09931186  0.94595298  1  1.560108  -0.000218  0.211782  0.585268  -0.001374  4.161956  0.001
C  C130  1  0.29251606  0.30943576  0.20638920  1  1.560552  0.00034  0.217419  0.587498  0.000367  4.152249  0.001
C  C131  1  0.70749526  0.69056724  0.79361203  1  1.561285  -0.000391  0.217282  0.587507  -0.000397  4.152428  -0.001
C  C132  1  0.26933791  0.99583656  0.09303130  1  0.003556  -0.008278  -0.011159  -0.011165  -0.005831  3.956041  -0.006
C  C133  1  0.73064196  0.00413699  0.90695167  1  0.003902  -0.007041  -0.010927  -0.010845  -0.004932  3.955267  -0.005
C  C134  1  0.46198408  0.17650972  0.16465586  1  0.034466  0.001116  -0.074987  -0.162921  0.000581  3.924297  0.001
C  C135  1  0.53802092  0.82347257  0.83533440  1  0.035396  -0.000322  -0.074957  -0.162829  -0.00027  3.92426  -0.001
C  C136  1  0.73632107  0.12895918  0.15111252  1  0.290133  -0.003796  0.034695  -0.082068  -0.002498  3.857718  -0.003
C  C137  1  0.26368267  0.87102909  0.84886723  1  0.289647  -0.003788  0.034819  -0.081936  -0.002506  3.85797  -0.003
C  C138  1  0.83937734  0.07010060  0.12653807  1  0.540624  -0.001679  0.028499  -0.019626  -0.001915  3.94488  -0.003
C  C139  1  0.16060986  0.92987812  0.87343877  1  0.541851  -0.001699  0.028642  -0.019423  -0.001931  3.944853  -0.003
N  N140  1  0.38715496  0.42501839  0.62270181  1  -0.118596  -9.4e-05  -0.075152  -0.098691  -2.9e-05  3.132317  0.0
N  N141  1  0.61284233  0.57497165  0.37730438  1  -0.118562  0.00155  -0.07507  -0.098533  0.000956  3.132465  0.001
N  N142  1  0.09470533  0.56718861  0.80713534  1  -0.64725  0.001394  -0.223106  -0.156786  0.000712  3.511356  0.0
N  N143  1  0.90528284  0.43281425  0.19286028  1  -0.647635  -0.001733  -0.223013  -0.156666  -0.000866  3.511056  0.0
N  N144  1  0.28218928  0.34647887  0.59637720  1  -0.818093  0.000113  -0.104529  0.155116  5e-05  3.77658  0.0
N  N145  1  0.71779396  0.65351454  0.40362754  1  -0.818716  0.000491  -0.104648  0.155126  0.000274  3.776911  0.0
N  N146  1  0.79014066  0.96478333  0.07991971  1  -0.595009  -0.070035  -0.22831  -0.172842  -0.048926  3.625124  -0.062
N  N147  1  0.20985725  0.03518775  0.92007294  1  -0.595554  -0.070095  -0.228323  -0.172998  -0.048962  3.625857  -0.062
N  N148  1  0.26244669  0.57218210  0.87959539  1  -0.819163  8.2e-05  -0.106292  0.156135  8.8e-05  3.76281  0.0
N  N149  1  0.73755808  0.42781480  0.12039181  1  -0.819606  -0.000433  -0.106245  0.156274  -0.000208  3.763245  0.0
N  N150  1  0.68807061  0.08549521  0.32895469  1  -0.670629  0.063219  -0.230605  -0.181507  0.043913  3.639378  0.058
N  N151  1  0.31194736  0.91451474  0.67106336  1  -0.670876  0.063259  -0.230486  -0.18172  0.043937  3.639489  0.058
N  N152  1  0.84884902  0.99387126  0.29378268  1  -0.820025  0.002372  -0.104212  0.149357  0.001477  3.76753  0.002
N  N153  1  0.15116799  0.00613869  0.70623692  1  -0.820032  0.002661  -0.104363  0.149386  0.001672  3.767304  0.002
N  N154  1  0.13434683  0.58187584  0.87652717  1  -0.058563  -0.001189  -0.070977  -0.069641  -0.000907  3.118152  -0.001
N  N155  1  0.86565340  0.41813139  0.12346760  1  -0.058156  -0.003185  -0.07082  -0.069436  -0.002162  3.118282  -0.002
N  N156  1  0.81477460  0.09086112  0.34039631  1  -0.036045  -0.000904  -0.074645  -0.074014  -0.000453  3.116259  -0.001
N  N157  1  0.18524660  0.90914367  0.65961667  1  -0.035364  -0.000838  -0.074563  -0.073903  -0.000404  3.115988  -0.001
N  N158  1  0.45953964  0.38551760  0.66729339  1  -0.645871  -0.0013  -0.222113  -0.162317  -0.000611  3.520396  0.0
N  N159  1  0.54046756  0.61445869  0.33270109  1  -0.645348  0.001962  -0.222136  -0.162471  0.001065  3.520461  0.0
N  N160  1  0.66263672  0.95502978  0.07418032  1  -0.090429  -0.000152  -0.070995  -0.069577  -0.000175  3.122115  0.001
N  N161  1  0.33735712  0.04494733  0.92582121  1  -0.090324  -0.00021  -0.070882  -0.069407  -0.000211  3.121935  0.0
N  N162  1  0.62916766  0.05455622  0.11745457  1  -0.825552  -0.003102  -0.098025  0.153651  -0.001916  3.758878  -0.003
N  N163  1  0.37083539  0.94542605  0.88253246  1  -0.825426  -0.003362  -0.098233  0.153492  -0.002096  3.758655  -0.003
O  O164  1  0.17286864  0.32157070  0.19678911  1  -1.105605  0.079949  -0.311961  -0.514845  0.052356  2.366649  0.072
O  O165  1  0.82713550  0.67843657  0.80321845  1  -1.105995  -0.0799  -0.311846  -0.514794  -0.052167  2.366821  -0.072
O  O166  1  0.75210884  0.30022330  0.43562601  1  -1.101598  0.127477  -0.335652  -0.558637  0.081995  2.39693  0.113
O  O167  1  0.24791135  0.69983907  0.56437246  1  -1.101859  0.127263  -0.335904  -0.558883  0.081884  2.397883  0.113
O  O168  1  0.71831896  0.73650456  0.98969134  1  -1.089143  -0.134864  -0.32706  -0.527669  -0.086799  2.319533  -0.12
O  O169  1  0.28166418  0.26344751  0.01029562  1  -1.089466  -0.135051  -0.32732  -0.528109  -0.086914  2.319868  -0.12
O  O170  1  0.36646102  0.57595261  0.19521242  1  -1.107707  -0.080502  -0.316222  -0.528808  -0.052679  2.446493  -0.073
O  O171  1  0.63352918  0.42408383  0.80478906  1  -1.107699  0.0803  -0.316442  -0.529212  0.052616  2.446724  0.073
O  O172  1  0.07970283  0.63915783  0.25865203  1  -1.103327  0.086492  -0.313853  -0.515895  0.056472  2.370797  0.078
O  O173  1  0.92031323  0.36084514  0.74133145  1  -1.103456  -0.086394  -0.314065  -0.516189  -0.056327  2.370775  -0.078
O  O174  1  0.07954022  0.45948222  0.32515677  1  -1.107305  0.093191  -0.309722  -0.520084  0.060637  2.393002  0.084
O  O175  1  0.92043516  0.54055850  0.67486499  1  -1.107196  -0.092792  -0.309827  -0.520181  -0.060378  2.393069  -0.084
O  O176  1  0.28017637  0.70538773  0.31988920  1  -1.089943  -0.09257  -0.302219  -0.498917  -0.060151  2.36202  -0.084
O  O177  1  0.71981849  0.29460497  0.68015323  1  -1.089544  0.093344  -0.302257  -0.499146  0.060774  2.361442  0.084
O  O178  1  0.28723051  0.50884772  0.37807234  1  -1.101076  -0.083  -0.308355  -0.498944  -0.053989  2.353819  -0.075
O  O179  1  0.71279299  0.49108733  0.62190814  1  -1.10124  0.08462  -0.308316  -0.499173  0.055242  2.353622  0.076
O  O180  1  0.04790194  0.92483904  0.06957666  1  -1.123162  -0.086514  -0.339877  -0.58082  -0.056367  2.379521  -0.079
O  O181  1  0.95209652  0.07516906  0.93043033  1  -1.122937  -0.086466  -0.339862  -0.581015  -0.0563  2.379649  -0.078
O  O182  1  0.43075456  0.10815262  0.34641059  1  -1.12259  0.095771  -0.33281  -0.564354  0.062073  2.39186  0.086
O  O183  1  0.56926014  0.89186404  0.65355170  1  -1.122513  0.095749  -0.33279  -0.564216  0.062022  2.391776  0.086
O  O184  1  0.17272937  0.49731490  0.12980031  1  -1.119327  0.076736  -0.297592  -0.509247  0.050488  2.320886  0.07
O  O185  1  0.82724431  0.50267152  0.87018328  1  -1.119751  -0.07832  -0.297678  -0.509665  -0.051393  2.320961  -0.071
O  O186  1  0.72948496  0.72605078  0.10651662  1  -1.174499  -0.001424  -0.329272  -0.56984  -0.000643  2.165871  -0.002
O  O187  1  0.27049492  0.27394611  0.89350761  1  -1.17507  -0.00144  -0.329316  -0.570069  -0.000678  2.166096  -0.002
O  O188  1  0.28706449  0.23769873  0.34507086  1  -1.169914  0.00237  -0.298316  -0.514982  0.001178  2.219259  0.002
O  O189  1  0.71291496  0.76231961  0.65493895  1  -1.169431  0.000944  -0.298394  -0.515088  0.000259  2.219084  0.001
O  O190  1  0.38264691  0.38641659  0.24278843  1  -1.116702  -0.084509  -0.312043  -0.524549  -0.055194  2.368139  -0.077
O  O191  1  0.61738488  0.61359760  0.75718561  1  -1.117176  0.08468  -0.311957  -0.524586  0.055377  2.367906  0.077
O  O192  1  0.79908080  0.20513617  0.51950769  1  -1.1547  0.00419  -0.314474  -0.533821  0.002269  2.145525  0.004
O  O193  1  0.20091563  0.79487884  0.48051264  1  -1.155417  0.005034  -0.314685  -0.534228  0.002764  2.145315  0.004
O  O194  1  0.19293188  0.80926469  0.01061092  1  -1.168468  -3.7e-05  -0.307176  -0.531274  0.000364  2.201306  0.0
O  O195  1  0.80709044  0.19074179  0.98938978  1  -1.168396  0.000573  -0.307144  -0.531216  0.000753  2.201286  0.001
O  O196  1  0.54322282  0.21574394  0.50771265  1  -1.180237  0.026093  -0.591902  -0.745535  0.01728  1.993557  0.023
O  O197  1  0.45676145  0.78423396  0.49228078  1  -1.179733  0.02622  -0.591847  -0.745355  0.017355  1.993785  0.023
O  O198  1  0.96906460  0.68859895  0.99388992  1  -1.212797  -0.089928  -0.576033  -0.74422  -0.059302  2.240574  -0.08
O  O199  1  0.03096608  0.31140500  0.00611165  1  -1.21312  -0.089469  -0.576105  -0.744267  -0.058972  2.240344  -0.079
O  O200  1  0.50378790  0.35938331  0.40722029  1  -1.237996  0.047095  -0.586062  -0.759477  0.031079  2.224138  0.042
O  O201  1  0.49618430  0.64063849  0.59280519  1  -1.239463  0.047478  -0.586196  -0.759729  0.031352  2.224136  0.042
