# generated using pymatgen
data_ZnH4C6(SN5)2
_symmetry_space_group_name_H-M   'P 1'
_cell_length_a   7.73584078
_cell_length_b   7.65598099
_cell_length_c   11.88848363
_cell_angle_alpha   74.11529440
_cell_angle_beta   81.38535449
_cell_angle_gamma   81.46573638
_symmetry_Int_Tables_number   1
_chemical_formula_structural   ZnH4C6(SN5)2
_chemical_formula_sum   'Zn2 H8 C12 S4 N20'
_cell_volume   665.28984315
_cell_formula_units_Z   2
loop_
 _symmetry_equiv_pos_site_id
 _symmetry_equiv_pos_as_xyz
  1  'x, y, z'
loop_
 _atom_site_type_symbol
 _atom_site_label
 _atom_site_symmetry_multiplicity
 _atom_site_fract_x
 _atom_site_fract_y
 _atom_site_fract_z
 _atom_site_occupancy
 _atom_site_hle17_bader_spin_density
 _atom_site_hle17_ddec_charge
 _atom_site_hle17_ddec_spin_density
 _atom_site_hle17_ddec_sum_bond_order
 _atom_site_hle17_magmom
 _atom_site_hse06_10hf_bader_spin_density
 _atom_site_hse06_10hf_ddec_charge
 _atom_site_hse06_10hf_ddec_spin_density
 _atom_site_hse06_10hf_ddec_sum_bond_order
 _atom_site_hse06_10hf_magmom
 _atom_site_hse06_bader_spin_density
 _atom_site_hse06_ddec_charge
 _atom_site_hse06_ddec_spin_density
 _atom_site_hse06_ddec_sum_bond_order
 _atom_site_hse06_magmom
 _atom_site_pbe_bader_spin_density
 _atom_site_pbe_cm5_charge
 _atom_site_pbe_ddec_charge
 _atom_site_pbe_ddec_spin_density
 _atom_site_pbe_ddec_sum_bond_order
 _atom_site_pbe_magmom
Zn  Zn0  1  0.25581207  0.72197485  0.15024007  1  0  0.996721  0  2.100705  0  0  0.800404  0  2.619293  0  0  0.840728  0  2.567981  0  0  0.754521  0.773023  0  2.653776  0
Zn  Zn1  1  0.74418756  0.27802322  0.84976366  1  0  0.996765  0  2.10084  0  0  0.800451  0  2.619421  0  0  0.840773  0  2.568109  0  0  0.754527  0.773063  0  2.65393  0
H  H2  1  0.46122105  0.22467782  0.28568192  1  0  0.1157  0  0.991821  0  0  0.111823  0  1.072694  0  0  0.115049  0  1.068632  0  0  0.139486  0.109011  0  1.075833  0
H  H3  1  0.53878231  0.77532288  0.71431848  1  0  0.115711  0  0.991828  0  0  0.111771  0  1.072816  0  0  0.114996  0  1.068754  0  0  0.139461  0.108978  0  1.075893  0
H  H4  1  0.32555098  0.68100845  0.42555586  1  0  0.134355  0  0.897295  0  0  0.144685  0  0.953295  0  0  0.146954  0  0.949933  0  0  0.158204  0.142505  0  0.955876  0
H  H5  1  0.67445257  0.31898959  0.57444754  1  0  0.134351  0  0.89736  0  0  0.144688  0  0.953353  0  0  0.146959  0  0.949991  0  0  0.15819  0.14251  0  0.955934  0
H  H6  1  0.84616224  0.31521252  0.21096062  1  0  0.126271  0  0.939375  0  0  0.127889  0  1.00982  0  0  0.130382  0  1.007317  0  0  0.145078  0.126253  0  1.012052  0
H  H7  1  0.15383618  0.68478547  0.78903985  1  0  0.126293  0  0.939355  0  0  0.127935  0  1.009779  0  0  0.130427  0  1.007277  0  0  0.145079  0.126298  0  1.012014  0
H  H8  1  0.63297885  0.77531836  0.95664532  1  0  0.125159  0  0.974172  0  0  0.123182  0  1.04878  0  0  0.127908  0  1.043717  0  0  0.14562  0.119886  0  1.052977  0
H  H9  1  0.36702501  0.22468925  0.04335712  1  0  0.125061  0  0.974256  0  0  0.123177  0  1.048746  0  0  0.12789  0  1.043696  0  0  0.145629  0.119886  0  1.052942  0
C  C10  1  0.41483497  0.09432918  0.29217177  1  0  0.149243  0  3.635361  0  0  0.083773  0  3.919519  0  0  0.097665  0  3.930929  0  0  0.167663  0.076396  0  3.910922  0
C  C11  1  0.58516605  0.90566880  0.70782933  1  0  0.14927  0  3.63525  0  0  0.083783  0  3.919383  0  0  0.097669  0  3.930797  0  0  0.167692  0.076413  0  3.910798  0
C  C12  1  0.34634744  0.81224061  0.36461710  1  0  0.18913  0  3.587673  0  0  0.113591  0  3.861888  0  0  0.131635  0  3.86951  0  0  0.18623  0.103415  0  3.855846  0
C  C13  1  0.65365614  0.18775740  0.63538546  1  0  0.189144  0  3.587799  0  0  0.113548  0  3.861971  0  0  0.131586  0  3.869597  0  0  0.18623  0.103371  0  3.855931  0
C  C14  1  0.75297571  0.42394759  0.16748941  1  0  0.159748  0  3.610951  0  0  0.096756  0  3.891422  0  0  0.108619  0  3.904319  0  0  0.173557  0.079062  0  3.879502  0
C  C15  1  0.24702617  0.57605451  0.83251169  1  0  0.159753  0  3.611045  0  0  0.096708  0  3.891535  0  0  0.108572  0  3.904434  0  0  0.173558  0.078964  0  3.879606  0
C  C16  1  0.64088916  0.66214998  0.03608189  1  0  0.183893  0  3.575827  0  0  0.118034  0  3.844586  0  0  0.131335  0  3.855252  0  0  0.180523  0.099623  0  3.833992  0
C  C17  1  0.35911228  0.33785624  0.96391933  1  0  0.183899  0  3.576073  0  0  0.118013  0  3.844737  0  0  0.131326  0  3.855413  0  0  0.18051  0.099553  0  3.834123  0
C  C18  1  0.19267211  0.96635234  0.90251282  1  0  0.325536  0  4.084259  0  0  0.306634  0  4.381193  0  0  0.330038  0  4.397135  0  0  0.144326  0.290848  0  4.369082  0
C  C19  1  0.80732534  0.03364287  0.09748657  1  0  0.32545  0  4.083934  0  0  0.306553  0  4.380877  0  0  0.329956  0  4.396821  0  0  0.144299  0.290765  0  4.368762  0
C  C20  1  0.09115192  0.40003887  0.32683027  1  0  0.318688  0  4.093624  0  0  0.303226  0  4.386098  0  0  0.327189  0  4.400861  0  0  0.142202  0.286966  0  4.374863  0
C  C21  1  0.90884135  0.59997394  0.67315948  1  0  0.31862  0  4.093195  0  0  0.303162  0  4.385675  0  0  0.327129  0  4.400437  0  0  0.142195  0.286903  0  4.374437  0
S  S22  1  0.16502800  0.10245809  0.77561621  1  0  -0.328126  0  2.016785  0  0  -0.317358  0  2.301393  0  0  -0.334286  0  2.301897  0  0  -0.169077  -0.304585  0  2.300313  0
S  S23  1  0.83497320  0.89753723  0.22438789  1  0  -0.328135  0  2.016613  0  0  -0.317371  0  2.301242  0  0  -0.334298  0  2.301745  0  0  -0.169117  -0.304596  0  2.30016  0
S  S24  1  0.02198253  0.23893361  0.43476914  1  0  -0.340587  0  2.01614  0  0  -0.332352  0  2.294412  0  0  -0.350444  0  2.293528  0  0  -0.183583  -0.318613  0  2.294027  0
S  S25  1  0.97799620  0.76104614  0.56521368  1  0  -0.340353  0  2.016647  0  0  -0.332105  0  2.294905  0  0  -0.350204  0  2.294043  0  0  -0.183449  -0.318377  0  2.29452  0
N  N26  1  0.30958582  0.87088641  0.25533469  1  0  -0.247466  0  3.240183  0  0  -0.177124  0  3.550743  0  0  -0.193454  0  3.562065  0  0  -0.232545  -0.166885  0  3.543147  0
N  N27  1  0.69041524  0.12911028  0.74466917  1  0  -0.247542  0  3.240295  0  0  -0.177141  0  3.550788  0  0  -0.193468  0  3.562112  0  0  -0.232558  -0.1669  0  3.54319  0
N  N28  1  0.35259376  0.04817399  0.20926905  1  0  -0.187515  0  2.926982  0  0  -0.163064  0  3.201111  0  0  -0.173725  0  3.216163  0  0  -0.201811  -0.156595  0  3.190891  0
N  N29  1  0.64740736  0.95182266  0.79073313  1  0  -0.187535  0  2.926998  0  0  -0.163074  0  3.201095  0  0  -0.173737  0  3.216155  0  0  -0.201801  -0.156608  0  3.190876  0
N  N30  1  0.41363456  0.94921726  0.39155683  1  0  -0.022693  0  3.615587  0  0  0.06732  0  3.848261  0  0  0.044864  0  3.873917  0  0  -0.105572  0.079051  0  3.831816  0
N  N31  1  0.58636890  0.05078209  0.60844465  1  0  -0.022635  0  3.615519  0  0  0.067486  0  3.848031  0  0  0.045045  0  3.873684  0  0  -0.105507  0.079217  0  3.831585  0
N  N32  1  0.46961451  0.92902304  0.49864479  1  0  0.003399  0  2.898759  0  0  -0.009446  0  3.197743  0  0  0.001806  0  3.197836  0  0  -0.008029  -0.016855  0  3.197955  0
N  N33  1  0.53039291  0.07097626  0.50135552  1  0  0.003405  0  2.898772  0  0  -0.009425  0  3.19771  0  0  0.001816  0  3.197808  0  0  -0.008011  -0.016833  0  3.197927  0
N  N34  1  0.51708158  0.60865376  0.12211834  1  0  -0.262976  0  3.198984  0  0  -0.198499  0  3.505547  0  0  -0.214417  0  3.519245  0  0  -0.235342  -0.188323  0  3.49998  0
N  N35  1  0.48291872  0.39135108  0.87788239  1  0  -0.262946  0  3.19896  0  0  -0.198493  0  3.505524  0  0  -0.214412  0  3.51922  0  0  -0.235359  -0.188319  0  3.499977  0
N  N36  1  0.58743919  0.46019678  0.20579952  1  0  -0.20325  0  2.928875  0  0  -0.181298  0  3.208425  0  0  -0.190735  0  3.223283  0  0  -0.212574  -0.175219  0  3.202135  0
N  N37  1  0.41255997  0.53980669  0.79420072  1  0  -0.20326  0  2.928951  0  0  -0.181276  0  3.208507  0  0  -0.190712  0  3.223365  0  0  -0.212556  -0.175203  0  3.202234  0
N  N38  1  0.79168577  0.54782570  0.06061554  1  0  -0.022371  0  3.579433  0  0  0.06365  0  3.813501  0  0  0.045992  0  3.837815  0  0  -0.104993  0.105387  0  3.760094  0
N  N39  1  0.20831475  0.45217646  0.93938735  1  0  -0.022317  0  3.579599  0  0  0.063714  0  3.813642  0  0  0.046052  0  3.83796  0  0  -0.104932  0.105593  0  3.760077  0
N  N40  1  0.94290534  0.56591606  0.98376518  1  0  0.016384  0  2.888019  0  0  0.007958  0  3.18568  0  0  0.015015  0  3.191665  0  0  -0.001675  -0.008523  0  3.183971  0
N  N41  1  0.05709493  0.43408880  0.01623639  1  0  0.016478  0  2.888074  0  0  0.00805  0  3.185732  0  0  0.015107  0  3.191719  0  0  -0.001652  -0.008479  0  3.183987  0
N  N42  1  0.21247216  0.86218183  0.99561424  1  0  -0.611909  0  3.056353  0  0  -0.540384  0  3.376553  0  0  -0.564704  0  3.375588  0  0  -0.439626  -0.523354  0  3.376326  0
N  N43  1  0.78752703  0.13782161  0.00438516  1  0  -0.611787  0  3.056171  0  0  -0.540261  0  3.376367  0  0  -0.564579  0  3.375403  0  0  -0.439564  -0.523239  0  3.376159  0
N  N44  1  0.14275336  0.51559142  0.24424427  1  0  -0.617421  0  3.065911  0  0  -0.549547  0  3.387439  0  0  -0.573551  0  3.385644  0  0  -0.442663  -0.532617  0  3.38767  0
N  N45  1  0.85723899  0.48440122  0.75576024  1  0  -0.617606  0  3.06507  0  0  -0.549746  0  3.386655  0  0  -0.573755  0  3.384856  0  0  -0.442784  -0.532814  0  3.386891  0
