# generated using pymatgen
data_GdH8C6O7
_symmetry_space_group_name_H-M   'P 1'
_cell_length_a   7.71137615
_cell_length_b   10.75253876
_cell_length_c   12.68658151
_cell_angle_alpha   71.86798881
_cell_angle_beta   72.31442743
_cell_angle_gamma   68.98709864
_symmetry_Int_Tables_number   1
_chemical_formula_structural   GdH8C6O7
_chemical_formula_sum   'Gd4 H32 C24 O28'
_cell_volume   911.05007777
_cell_formula_units_Z   4
loop_
 _symmetry_equiv_pos_site_id
 _symmetry_equiv_pos_as_xyz
  1  'x, y, z'
loop_
 _atom_site_type_symbol
 _atom_site_label
 _atom_site_symmetry_multiplicity
 _atom_site_fract_x
 _atom_site_fract_y
 _atom_site_fract_z
 _atom_site_occupancy
 _atom_site_hle17_bader_spin_density
 _atom_site_hle17_ddec_charge
 _atom_site_hle17_ddec_spin_density
 _atom_site_hle17_ddec_sum_bond_order
 _atom_site_hle17_magmom
 _atom_site_hse06_10hf_bader_spin_density
 _atom_site_hse06_10hf_ddec_charge
 _atom_site_hse06_10hf_ddec_spin_density
 _atom_site_hse06_10hf_ddec_sum_bond_order
 _atom_site_hse06_10hf_magmom
 _atom_site_hse06_bader_spin_density
 _atom_site_hse06_ddec_charge
 _atom_site_hse06_ddec_spin_density
 _atom_site_hse06_ddec_sum_bond_order
 _atom_site_hse06_magmom
 _atom_site_pbe_bader_spin_density
 _atom_site_pbe_cm5_charge
 _atom_site_pbe_ddec_charge
 _atom_site_pbe_ddec_spin_density
 _atom_site_pbe_ddec_sum_bond_order
 _atom_site_pbe_magmom
Gd  Gd0  1  0.01587814  0.30984447  0.22915689  1  0  2.203863  0  1.775935  0  0  2.113277  0  2.124908  0  0  2.168531  0  2.071099  0  0  1.4857  2.070083  0  2.168825  0
Gd  Gd1  1  0.55494445  0.19011826  0.27083845  1  0  2.203421  0  1.77747  0  0  2.11366  0  2.125153  0  0  2.16876  0  2.071588  0  0  1.486269  2.071425  0  2.167416  0
Gd  Gd2  1  0.98412116  0.69015597  0.77084188  1  0  2.203871  0  1.775896  0  0  2.113272  0  2.12487  0  0  2.16852  0  2.071077  0  0  1.485697  2.070081  0  2.168776  0
Gd  Gd3  1  0.44505591  0.80988116  0.72916259  1  0  2.203407  0  1.77752  0  0  2.113622  0  2.12522  0  0  2.168725  0  2.07165  0  0  1.48626  2.071386  0  2.167479  0
H  H4  1  0.82581539  0.58020689  0.08780120  1  0  0.450196  0  0.842542  0  0  0.419763  0  0.904572  0  0  0.431047  0  0.888011  0  0  0.303529  0.41176  0  0.916298  0
H  H5  1  0.49383467  0.91977390  0.41214328  1  0  0.450228  0  0.842636  0  0  0.419681  0  0.904897  0  0  0.430975  0  0.888326  0  0  0.303402  0.411698  0  0.91657  0
H  H6  1  0.17418696  0.41979151  0.91219846  1  0  0.45024  0  0.8425  0  0  0.419814  0  0.904503  0  0  0.431094  0  0.887948  0  0  0.303568  0.411813  0  0.916228  0
H  H7  1  0.50616647  0.08022553  0.58785698  1  0  0.45025  0  0.842605  0  0  0.419701  0  0.90487  0  0  0.430994  0  0.8883  0  0  0.303404  0.411718  0  0.916543  0
H  H8  1  0.66442683  0.49841753  0.14577284  1  0  0.433457  0  0.861695  0  0  0.404675  0  0.921858  0  0  0.415454  0  0.906163  0  0  0.300031  0.39696  0  0.93306  0
H  H9  1  0.30866278  0.00157627  0.35410832  1  0  0.432742  0  0.862668  0  0  0.403632  0  0.923312  0  0  0.414406  0  0.907643  0  0  0.30006  0.395899  0  0.934545  0
H  H10  1  0.33557510  0.50158189  0.85422663  1  0  0.433507  0  0.861631  0  0  0.404725  0  0.921792  0  0  0.415503  0  0.906099  0  0  0.300073  0.397012  0  0.932994  0
H  H11  1  0.69133878  0.99842213  0.64589213  1  0  0.432773  0  0.862624  0  0  0.40367  0  0.923255  0  0  0.414443  0  0.907588  0  0  0.30008  0.395937  0  0.934489  0
H  H12  1  0.09510078  0.83296264  0.48559138  1  0  0.113248  0  0.939314  0  0  0.125684  0  1.002684  0  0  0.128211  0  1.002184  0  0  0.11203  0.12392  0  1.003086  0
H  H13  1  0.41363102  0.66699303  0.01446139  1  0  0.113214  0  0.939666  0  0  0.126053  0  1.002759  0  0  0.128609  0  1.002194  0  0  0.112044  0.124275  0  1.003159  0
H  H14  1  0.90489989  0.16703678  0.51441071  1  0  0.113272  0  0.939279  0  0  0.12569  0  1.002688  0  0  0.128212  0  1.002189  0  0  0.112062  0.123926  0  1.003089  0
H  H15  1  0.58636892  0.33300741  0.98553947  1  0  0.113239  0  0.939674  0  0  0.126099  0  1.002743  0  0  0.128657  0  1.002177  0  0  0.112054  0.124321  0  1.003143  0
H  H16  1  0.19036448  0.79688197  0.35034274  1  0  0.104005  0  0.913707  0  0  0.123762  0  0.963929  0  0  0.125824  0  0.963255  0  0  0.106411  0.122265  0  0.96458  0
H  H17  1  0.33771848  0.70299578  0.14970767  1  0  0.103733  0  0.914504  0  0  0.123952  0  0.964497  0  0  0.126032  0  0.963792  0  0  0.106865  0.122435  0  0.965133  0
H  H18  1  0.80963786  0.20311643  0.64965692  1  0  0.104021  0  0.913709  0  0  0.123772  0  0.963941  0  0  0.125837  0  0.963267  0  0  0.106414  0.122273  0  0.964592  0
H  H19  1  0.66228224  0.29700467  0.85029240  1  0  0.103736  0  0.914495  0  0  0.123963  0  0.964487  0  0  0.126043  0  0.963783  0  0  0.106865  0.122446  0  0.965123  0
H  H20  1  0.87096698  0.75893280  0.36095053  1  0  0.116458  0  0.91424  0  0  0.132282  0  0.966551  0  0  0.134908  0  0.965043  0  0  0.110523  0.13035  0  0.9678  0
H  H21  1  0.99095512  0.74103448  0.13910951  1  0  0.115692  0  0.913757  0  0  0.131998  0  0.96589  0  0  0.13464  0  0.964345  0  0  0.110055  0.130058  0  0.967155  0
H  H22  1  0.12903537  0.24106560  0.63904913  1  0  0.116455  0  0.914235  0  0  0.132283  0  0.966557  0  0  0.134911  0  0.965047  0  0  0.110518  0.13035  0  0.967805  0
H  H23  1  0.00904492  0.25896494  0.86089049  1  0  0.115671  0  0.913696  0  0  0.131979  0  0.965833  0  0  0.13462  0  0.964288  0  0  0.110035  0.13004  0  0.967097  0
H  H24  1  0.01187639  0.63661674  0.45782458  1  0  0.123497  0  0.916942  0  0  0.138564  0  0.972664  0  0  0.141194  0  0.97122  0  0  0.111924  0.136646  0  0.973843  0
H  H25  1  0.10644694  0.86329157  0.04218593  1  0  0.123114  0  0.916592  0  0  0.138358  0  0.972496  0  0  0.140965  0  0.971073  0  0  0.112283  0.136466  0  0.973626  0
H  H26  1  0.98812165  0.36338371  0.54217681  1  0  0.1235  0  0.916922  0  0  0.138586  0  0.972635  0  0  0.14121  0  0.971199  0  0  0.111918  0.136666  0  0.973814  0
H  H27  1  0.89355510  0.13670683  0.95781269  1  0  0.123122  0  0.916586  0  0  0.138362  0  0.972488  0  0  0.140969  0  0.971065  0  0  0.11228  0.136471  0  0.973618  0
H  H28  1  0.34369299  0.13560914  0.97013727  1  0  0.123209  0  0.923989  0  0  0.139079  0  0.976894  0  0  0.141946  0  0.97569  0  0  0.112216  0.137004  0  0.977916  0
H  H29  1  0.44936190  0.36444904  0.52967733  1  0  0.12396  0  0.923626  0  0  0.139372  0  0.977131  0  0  0.142114  0  0.975996  0  0  0.112077  0.137401  0  0.978022  0
H  H30  1  0.65630742  0.86439130  0.02986175  1  0  0.123261  0  0.923992  0  0  0.139061  0  0.976955  0  0  0.141931  0  0.975745  0  0  0.112198  0.136986  0  0.977979  0
H  H31  1  0.55063847  0.63555346  0.47032053  1  0  0.123982  0  0.923564  0  0  0.139338  0  0.977143  0  0  0.142068  0  0.976023  0  0  0.112093  0.137402  0  0.977995  0
H  H32  1  0.30648168  0.99987761  0.08389064  1  0  0.110592  0  0.901862  0  0  0.128463  0  0.954106  0  0  0.130405  0  0.953877  0  0  0.111462  0.127015  0  0.954518  0
H  H33  1  0.39018275  0.50035360  0.41603689  1  0  0.111813  0  0.902941  0  0  0.130045  0  0.954804  0  0  0.131874  0  0.954623  0  0  0.112889  0.128618  0  0.95522  0
H  H34  1  0.69352015  0.00012284  0.91610968  1  0  0.110596  0  0.901892  0  0  0.128453  0  0.954129  0  0  0.130396  0  0.953902  0  0  0.11144  0.127006  0  0.95454  0
H  H35  1  0.60982031  0.49964889  0.58395963  1  0  0.111853  0  0.902908  0  0  0.130079  0  0.954755  0  0  0.131907  0  0.954572  0  0  0.112935  0.128649  0  0.95518  0
C  C36  1  0.96762659  0.98450787  0.35466252  1  0  0.757252  0  3.788204  0  0  0.713355  0  4.090246  0  0  0.747221  0  4.081199  0  0  0.238493  0.690275  0  4.095539  0
C  C37  1  0.30684621  0.51542009  0.14533874  1  0  0.755254  0  3.792813  0  0  0.712725  0  4.093031  0  0  0.746498  0  4.084126  0  0  0.238749  0.689633  0  4.098334  0
C  C38  1  0.03237497  0.01549052  0.64533793  1  0  0.757146  0  3.788428  0  0  0.713288  0  4.09041  0  0  0.747159  0  4.081363  0  0  0.238463  0.690206  0  4.095701  0
C  C39  1  0.69315452  0.48458036  0.85466132  1  0  0.755269  0  3.792788  0  0  0.712742  0  4.09302  0  0  0.746514  0  4.084117  0  0  0.238757  0.689649  0  4.098322  0
C  C40  1  0.05547733  0.83545207  0.40851929  1  0  -0.239266  0  3.641887  0  0  -0.279767  0  3.893355  0  0  -0.28499  0  3.901106  0  0  -0.153742  -0.276267  0  3.888237  0
C  C41  1  0.29946621  0.66447438  0.09153515  1  0  -0.239142  0  3.642574  0  0  -0.280762  0  3.894637  0  0  -0.285951  0  3.902398  0  0  -0.154079  -0.277185  0  3.889393  0
C  C42  1  0.94452107  0.16454632  0.59148431  1  0  -0.239236  0  3.641895  0  0  -0.279747  0  3.893409  0  0  -0.284973  0  3.901165  0  0  -0.153756  -0.276242  0  3.888283  0
C  C43  1  0.70053303  0.33552504  0.90846564  1  0  -0.23917  0  3.6426  0  0  -0.280828  0  3.894691  0  0  -0.286018  0  3.902452  0  0  -0.154086  -0.277251  0  3.889446  0
C  C44  1  0.92699286  0.74389731  0.43519495  1  0  -0.237008  0  3.643385  0  0  -0.278511  0  3.893327  0  0  -0.283131  0  3.899696  0  0  -0.155536  -0.27536  0  3.889179  0
C  C45  1  0.10614148  0.75604415  0.06485038  1  0  -0.234176  0  3.639674  0  0  -0.27657  0  3.891532  0  0  -0.281143  0  3.897802  0  0  -0.155596  -0.273469  0  3.887319  0
C  C46  1  0.07300718  0.25610211  0.56480505  1  0  -0.236999  0  3.643415  0  0  -0.278556  0  3.893361  0  0  -0.283169  0  3.899733  0  0  -0.155541  -0.275401  0  3.889207  0
C  C47  1  0.89385786  0.24395425  0.93514956  1  0  -0.23418  0  3.639645  0  0  -0.276571  0  3.891499  0  0  -0.281141  0  3.897765  0  0  -0.155586  -0.273472  0  3.887286  0
C  C48  1  0.76150467  0.76783346  0.53508540  1  0  0.754536  0  3.753305  0  0  0.710615  0  4.053141  0  0  0.744898  0  4.043489  0  0  0.231147  0.687245  0  4.05877  0
C  C49  1  0.06443465  0.73211118  0.96496827  1  0  0.753616  0  3.753317  0  0  0.708595  0  4.055319  0  0  0.742872  0  4.045708  0  0  0.229772  0.685272  0  4.060854  0
C  C50  1  0.23849176  0.23216391  0.46491397  1  0  0.754451  0  3.753376  0  0  0.710616  0  4.053082  0  0  0.744897  0  4.043431  0  0  0.231166  0.687245  0  4.058712  0
C  C51  1  0.93556539  0.26788824  0.03503173  1  0  0.753631  0  3.753293  0  0  0.708632  0  4.055262  0  0  0.742907  0  4.045651  0  0  0.229782  0.685314  0  4.060794  0
C  C52  1  0.47275190  0.10561200  0.10525229  1  0  0.731597  0  3.816189  0  0  0.686706  0  4.121596  0  0  0.720324  0  4.113134  0  0  0.209611  0.663913  0  4.126319  0
C  C53  1  0.68355110  0.39447205  0.39467504  1  0  0.737345  0  3.809567  0  0  0.693952  0  4.112606  0  0  0.727512  0  4.103977  0  0  0.213856  0.671159  0  4.117411  0
C  C54  1  0.52724652  0.89438947  0.89474812  1  0  0.731533  0  3.816143  0  0  0.686663  0  4.121506  0  0  0.720283  0  4.113042  0  0  0.209581  0.663865  0  4.126237  0
C  C55  1  0.31645232  0.60552839  0.60532370  1  0  0.737285  0  3.809689  0  0  0.693888  0  4.112693  0  0  0.727449  0  4.104061  0  0  0.213813  0.671093  0  4.117505  0
C  C56  1  0.41664089  0.04933369  0.03029713  1  0  -0.234246  0  3.687692  0  0  -0.273359  0  3.937139  0  0  -0.278677  0  3.945418  0  0  -0.156231  -0.269774  0  3.931516  0
C  C57  1  0.49621969  0.45075576  0.46962686  1  0  -0.236752  0  3.688789  0  0  -0.276314  0  3.93886  0  0  -0.281348  0  3.946645  0  0  -0.157805  -0.27289  0  3.933495  0
C  C58  1  0.58336015  0.95066675  0.96970397  1  0  -0.234319  0  3.687741  0  0  -0.273344  0  3.937125  0  0  -0.278667  0  3.945409  0  0  -0.156149  -0.269758  0  3.931504  0
C  C59  1  0.50378068  0.54924673  0.53037099  1  0  -0.236717  0  3.688729  0  0  -0.276212  0  3.938822  0  0  -0.281234  0  3.946599  0  0  -0.157828  -0.272813  0  3.933436  0
O  O60  1  0.77942374  0.51222128  0.15391429  1  0  -0.91166  0  1.874678  0  0  -0.870145  0  2.053925  0  0  -0.890014  0  2.022106  0  0  -0.642916  -0.85566  0  2.076423  0
O  O61  1  0.44560646  0.98775530  0.34601878  1  0  -0.911162  0  1.875495  0  0  -0.869349  0  2.055058  0  0  -0.889205  0  2.023223  0  0  -0.642836  -0.854984  0  2.077419  0
O  O62  1  0.22057782  0.48777712  0.84608616  1  0  -0.91177  0  1.874595  0  0  -0.870252  0  2.053873  0  0  -0.890116  0  2.022058  0  0  -0.643007  -0.855771  0  2.076368  0
O  O63  1  0.55439389  0.01224412  0.65398227  1  0  -0.911207  0  1.875462  0  0  -0.8694  0  2.055029  0  0  -0.889255  0  2.023194  0  0  -0.642847  -0.855037  0  2.077391  0
O  O64  1  0.06850392  0.06660378  0.32736602  1  0  -0.734322  0  2.021092  0  0  -0.687152  0  2.264516  0  0  -0.71405  0  2.254735  0  0  -0.360127  -0.667837  0  2.270742  0
O  O65  1  0.46262595  0.43329402  0.17249350  1  0  -0.734308  0  2.023875  0  0  -0.688173  0  2.26726  0  0  -0.715054  0  2.257578  0  0  -0.361324  -0.668974  0  2.273393  0
O  O66  1  0.93149681  0.93339666  0.67263405  1  0  -0.734281  0  2.021125  0  0  -0.687148  0  2.264542  0  0  -0.714045  0  2.25476  0  0  -0.360138  -0.667835  0  2.270766  0
O  O67  1  0.53737367  0.56670642  0.82750631  1  0  -0.734326  0  2.023845  0  0  -0.688197  0  2.267239  0  0  -0.715077  0  2.257557  0  0  -0.361339  -0.669  0  2.273373  0
O  O68  1  0.80037557  0.01799619  0.34048823  1  0  -0.694413  0  2.04813  0  0  -0.64703  0  2.295956  0  0  -0.67306  0  2.285999  0  0  -0.391548  -0.628427  0  2.302218  0
O  O69  1  0.15886016  0.48194534  0.15959646  1  0  -0.692713  0  2.050299  0  0  -0.645319  0  2.297223  0  0  -0.67138  0  2.287372  0  0  -0.390553  -0.626647  0  2.303553  0
O  O70  1  0.19962599  0.98200221  0.65951222  1  0  -0.694405  0  2.048296  0  0  -0.646983  0  2.29606  0  0  -0.673016  0  2.286104  0  0  -0.391527  -0.628379  0  2.30232  0
O  O71  1  0.84113950  0.51805306  0.84040452  1  0  -0.692691  0  2.050323  0  0  -0.645286  0  2.297218  0  0  -0.671345  0  2.28737  0  0  -0.39054  -0.626615  0  2.303547  0
O  O72  1  0.59016516  0.81599729  0.52336247  1  0  -0.682616  0  2.044007  0  0  -0.632937  0  2.276795  0  0  -0.658851  0  2.267165  0  0  -0.339652  -0.614728  0  2.28286  0
O  O73  1  0.92960822  0.68391524  0.97662214  1  0  -0.683159  0  2.042764  0  0  -0.632709  0  2.275774  0  0  -0.658686  0  2.266233  0  0  -0.338648  -0.614431  0  2.281952  0
O  O74  1  0.40982952  0.18400520  0.47663699  1  0  -0.682604  0  2.044038  0  0  -0.632949  0  2.276791  0  0  -0.658864  0  2.267164  0  0  -0.339658  -0.614736  0  2.282851  0
O  O75  1  0.07039112  0.31608316  0.02337781  1  0  -0.683137  0  2.042742  0  0  -0.632719  0  2.275765  0  0  -0.658689  0  2.26622  0  0  -0.338638  -0.61445  0  2.281946  0
O  O76  1  0.79116324  0.73578645  0.63591320  1  0  -0.808814  0  2.134269  0  0  -0.76585  0  2.391039  0  0  -0.793977  0  2.382135  0  0  -0.426242  -0.745416  0  2.396477  0
O  O77  1  0.16291025  0.76420401  0.86415169  1  0  -0.808039  0  2.134548  0  0  -0.764685  0  2.391822  0  0  -0.792805  0  2.382936  0  0  -0.425447  -0.744299  0  2.397274  0
O  O78  1  0.20883343  0.26421502  0.36408487  1  0  -0.808772  0  2.134137  0  0  -0.765854  0  2.390905  0  0  -0.793981  0  2.382001  0  0  -0.426263  -0.745428  0  2.396363  0
O  O79  1  0.83708816  0.23579746  0.13584872  1  0  -0.80805  0  2.134521  0  0  -0.764702  0  2.391778  0  0  -0.792822  0  2.38289  0  0  -0.425456  -0.744315  0  2.397229  0
O  O80  1  0.34379264  0.19512652  0.15846631  1  0  -0.830523  0  2.158226  0  0  -0.792328  0  2.427958  0  0  -0.819667  0  2.417958  0  0  -0.456016  -0.772279  0  2.433908  0
O  O81  1  0.69734308  0.30486546  0.34154092  1  0  -0.832652  0  2.158545  0  0  -0.794482  0  2.426831  0  0  -0.821817  0  2.416819  0  0  -0.456888  -0.774507  0  2.43295  0
O  O82  1  0.65620656  0.80487495  0.84153331  1  0  -0.83051  0  2.158221  0  0  -0.792299  0  2.427893  0  0  -0.819637  0  2.417889  0  0  -0.456022  -0.77225  0  2.433845  0
O  O83  1  0.30265803  0.69513601  0.65845816  1  0  -0.832661  0  2.15857  0  0  -0.794492  0  2.426861  0  0  -0.821829  0  2.416853  0  0  -0.45688  -0.774515  0  2.432977  0
O  O84  1  0.64167352  0.06806478  0.11741256  1  0  -0.648614  0  1.949496  0  0  -0.609138  0  2.180633  0  0  -0.633435  0  2.172724  0  0  -0.351382  -0.592077  0  2.185585  0
O  O85  1  0.82710155  0.43201017  0.38250415  1  0  -0.65245  0  1.946288  0  0  -0.613644  0  2.177264  0  0  -0.637958  0  2.169273  0  0  -0.354808  -0.596538  0  2.182359  0
O  O86  1  0.35832680  0.93193669  0.88258731  1  0  -0.648593  0  1.949521  0  0  -0.609143  0  2.18068  0  0  -0.633441  0  2.172772  0  0  -0.351397  -0.592081  0  2.185634  0
O  O87  1  0.17290066  0.56799130  0.61749519  1  0  -0.652447  0  1.946327  0  0  -0.613638  0  2.177295  0  0  -0.637952  0  2.169308  0  0  -0.354819  -0.596533  0  2.182388  0
