# generated using pymatgen
data_CdH7C8I2N5
_symmetry_space_group_name_H-M   'P 1'
_cell_length_a   6.18586964
_cell_length_b   11.47799330
_cell_length_c   19.34991735
_cell_angle_alpha   90.00006881
_cell_angle_beta   90.00005933
_cell_angle_gamma   90.00023942
_symmetry_Int_Tables_number   1
_chemical_formula_structural   CdH7C8I2N5
_chemical_formula_sum   'Cd4 H28 C32 I8 N20'
_cell_volume   1373.87064797
_cell_formula_units_Z   4
loop_
 _symmetry_equiv_pos_site_id
 _symmetry_equiv_pos_as_xyz
  1  'x, y, z'
loop_
 _atom_site_type_symbol
 _atom_site_label
 _atom_site_symmetry_multiplicity
 _atom_site_fract_x
 _atom_site_fract_y
 _atom_site_fract_z
 _atom_site_occupancy
 _atom_site_hle17_bader_spin_density
 _atom_site_hle17_ddec_charge
 _atom_site_hle17_ddec_spin_density
 _atom_site_hle17_ddec_sum_bond_order
 _atom_site_hle17_magmom
 _atom_site_hse06_10hf_bader_spin_density
 _atom_site_hse06_10hf_ddec_charge
 _atom_site_hse06_10hf_ddec_spin_density
 _atom_site_hse06_10hf_ddec_sum_bond_order
 _atom_site_hse06_10hf_magmom
 _atom_site_hse06_bader_spin_density
 _atom_site_hse06_ddec_charge
 _atom_site_hse06_ddec_spin_density
 _atom_site_hse06_ddec_sum_bond_order
 _atom_site_hse06_magmom
 _atom_site_pbe_bader_spin_density
 _atom_site_pbe_cm5_charge
 _atom_site_pbe_ddec_charge
 _atom_site_pbe_ddec_spin_density
 _atom_site_pbe_ddec_sum_bond_order
 _atom_site_pbe_magmom
Cd  Cd0  1  0.55953565  0.04198568  0.35853962  1  0  0.773032  0  2.090101  0  0  0.603089  0  2.565585  0  0  0.64915  0  2.528837  0  0  0.531446  0.571512  0  2.589691  0
Cd  Cd1  1  0.94045977  0.95801606  0.85853957  1  0  0.773018  0  2.090108  0  0  0.603078  0  2.565596  0  0  0.649141  0  2.528847  0  0  0.531426  0.571504  0  2.589699  0
Cd  Cd2  1  0.44045778  0.54198649  0.14146082  1  0  0.773029  0  2.090187  0  0  0.603109  0  2.565666  0  0  0.649172  0  2.528914  0  0  0.531449  0.571534  0  2.589771  0
Cd  Cd3  1  0.05953850  0.45801369  0.64146028  1  0  0.773025  0  2.090086  0  0  0.603089  0  2.56556  0  0  0.649151  0  2.528812  0  0  0.531441  0.571514  0  2.589664  0
H  H4  1  0.94490902  0.95513852  0.11494673  1  0  0.11969  0  0.945243  0  0  0.126379  0  1.00897  0  0  0.13025  0  1.00691  0  0  0.105558  0.12346  0  1.010883  0
H  H5  1  0.55509369  0.04485577  0.61494589  1  0  0.119719  0  0.945214  0  0  0.126404  0  1.008943  0  0  0.130273  0  1.006887  0  0  0.105588  0.123486  0  1.010855  0
H  H6  1  0.05509892  0.45514446  0.38505557  1  0  0.119759  0  0.945314  0  0  0.126445  0  1.009023  0  0  0.130315  0  1.006965  0  0  0.105613  0.123527  0  1.010936  0
H  H7  1  0.44490946  0.54485707  0.88505366  1  0  0.119747  0  0.945229  0  0  0.126435  0  1.008953  0  0  0.130304  0  1.006895  0  0  0.105594  0.123516  0  1.010866  0
H  H8  1  0.66842413  0.93730940  0.20870419  1  0  0.068184  0  0.979364  0  0  0.071975  0  1.055186  0  0  0.074895  0  1.052606  0  0  0.094887  0.06973  0  1.057291  0
H  H9  1  0.83157565  0.06268507  0.70870448  1  0  0.068157  0  0.979476  0  0  0.07195  0  1.055279  0  0  0.07487  0  1.052701  0  0  0.09489  0.069684  0  1.057398  0
H  H10  1  0.33157398  0.43731230  0.29129603  1  0  0.068174  0  0.979389  0  0  0.071963  0  1.055206  0  0  0.074883  0  1.052627  0  0  0.094888  0.069693  0  1.057322  0
H  H11  1  0.16842763  0.56268905  0.79129457  1  0  0.068212  0  0.979363  0  0  0.071996  0  1.055185  0  0  0.074916  0  1.052606  0  0  0.0949  0.069739  0  1.05729  0
H  H12  1  0.96414705  0.19731726  0.32495511  1  0  0.07402  0  0.944545  0  0  0.082346  0  1.010163  0  0  0.084668  0  1.00784  0  0  0.105196  0.080575  0  1.011992  0
H  H13  1  0.53584502  0.80268441  0.82495636  1  0  0.073992  0  0.944558  0  0  0.082309  0  1.010193  0  0  0.08463  0  1.007869  0  0  0.105199  0.080544  0  1.012022  0
H  H14  1  0.03584596  0.69731287  0.17504545  1  0  0.074107  0  0.944512  0  0  0.082409  0  1.010164  0  0  0.08473  0  1.007841  0  0  0.10523  0.080639  0  1.011985  0
H  H15  1  0.46415042  0.30268389  0.67504441  1  0  0.074087  0  0.944522  0  0  0.082406  0  1.010136  0  0  0.084727  0  1.007812  0  0  0.105223  0.080637  0  1.011967  0
H  H16  1  0.25432442  0.22366941  0.23718460  1  0  0.104479  0  0.967665  0  0  0.110496  0  1.036957  0  0  0.113756  0  1.036051  0  0  0.09793  0.108054  0  1.037944  0
H  H17  1  0.24566893  0.77633270  0.73718538  1  0  0.104478  0  0.9676  0  0  0.110487  0  1.03692  0  0  0.113748  0  1.036016  0  0  0.097913  0.108043  0  1.037917  0
H  H18  1  0.74567203  0.72366767  0.26281546  1  0  0.104428  0  0.967567  0  0  0.110445  0  1.036861  0  0  0.113705  0  1.035956  0  0  0.0979  0.108  0  1.037856  0
H  H19  1  0.75432955  0.27633127  0.76281330  1  0  0.104453  0  0.967608  0  0  0.110483  0  1.036899  0  0  0.113743  0  1.035995  0  0  0.097917  0.108039  0  1.037894  0
H  H20  1  0.41195428  0.17596950  0.12869991  1  0  0.071934  0  0.9824  0  0  0.076251  0  1.060474  0  0  0.080223  0  1.055502  0  0  0.105017  0.073522  0  1.063725  0
H  H21  1  0.08804518  0.82403065  0.62869861  1  0  0.071885  0  0.982439  0  0  0.07621  0  1.060502  0  0  0.08018  0  1.055533  0  0  0.105002  0.073481  0  1.063753  0
H  H22  1  0.58804988  0.67597024  0.37130115  1  0  0.071809  0  0.982451  0  0  0.076117  0  1.060537  0  0  0.080087  0  1.055571  0  0  0.104968  0.073385  0  1.063793  0
H  H23  1  0.91195528  0.32402804  0.87129908  1  0  0.071949  0  0.982402  0  0  0.076238  0  1.060485  0  0  0.080209  0  1.055513  0  0  0.105009  0.073509  0  1.063736  0
H  H24  1  0.57980793  0.24394752  0.04063964  1  0  0.105894  0  0.988524  0  0  0.103264  0  1.072675  0  0  0.1071  0  1.067742  0  0  0.126184  0.100232  0  1.076389  0
H  H25  1  0.92018808  0.75605272  0.54063840  1  0  0.10592  0  0.988533  0  0  0.103291  0  1.072687  0  0  0.107125  0  1.067754  0  0  0.126206  0.100259  0  1.0764  0
H  H26  1  0.42019192  0.74395066  0.45936406  1  0  0.10588  0  0.988515  0  0  0.10327  0  1.072651  0  0  0.107107  0  1.067721  0  0  0.126198  0.100238  0  1.076366  0
H  H27  1  0.07981185  0.25605102  0.95936079  1  0  0.105875  0  0.988557  0  0  0.103228  0  1.072726  0  0  0.10706  0  1.067797  0  0  0.126165  0.100197  0  1.076437  0
H  H28  1  0.45155515  0.90656324  0.96056213  1  0  0.113146  0  0.958564  0  0  0.118295  0  1.03182  0  0  0.121475  0  1.027202  0  0  0.126524  0.115729  0  1.035213  0
H  H29  1  0.04844539  0.09343758  0.46056222  1  0  0.113146  0  0.958577  0  0  0.11829  0  1.031831  0  0  0.121467  0  1.027214  0  0  0.126515  0.115724  0  1.035223  0
H  H30  1  0.54844595  0.40656525  0.53943769  1  0  0.113163  0  0.958563  0  0  0.118311  0  1.031832  0  0  0.121491  0  1.027216  0  0  0.126561  0.115744  0  1.035226  0
H  H31  1  0.95156137  0.59343585  0.03943879  1  0  0.113156  0  0.958606  0  0  0.118314  0  1.031858  0  0  0.121492  0  1.027243  0  0  0.12657  0.115749  0  1.03525  0
C  C32  1  0.95251795  0.01100664  0.16039568  1  0  -0.125738  0  3.662841  0  0  -0.146364  0  3.906489  0  0  -0.15238  0  3.926618  0  0  -0.075022  -0.142593  0  3.893517  0
C  C33  1  0.54748168  0.98899122  0.66039604  1  0  -0.125751  0  3.662743  0  0  -0.14634  0  3.906421  0  0  -0.152357  0  3.92655  0  0  -0.075031  -0.142568  0  3.893443  0
C  C34  1  0.04748494  0.51101045  0.33960578  1  0  -0.125772  0  3.662913  0  0  -0.146373  0  3.906597  0  0  -0.152389  0  3.926724  0  0  -0.075016  -0.142602  0  3.893621  0
C  C35  1  0.45252329  0.48899274  0.83960332  1  0  -0.12581  0  3.66286  0  0  -0.146427  0  3.906533  0  0  -0.152445  0  3.926662  0  0  -0.07504  -0.142656  0  3.893559  0
C  C36  1  0.79964054  0.00077825  0.21240001  1  0  0.122885  0  3.706842  0  0  0.092939  0  3.957481  0  0  0.099039  0  3.976443  0  0  0.036187  0.088934  0  3.944971  0
C  C37  1  0.70035926  0.99921797  0.71240042  1  0  0.122886  0  3.707024  0  0  0.092945  0  3.957667  0  0  0.099046  0  3.97663  0  0  0.036193  0.088964  0  3.945165  0
C  C38  1  0.20035903  0.50078056  0.28760093  1  0  0.122822  0  3.706984  0  0  0.092884  0  3.957615  0  0  0.098983  0  3.97658  0  0  0.036139  0.088908  0  3.945122  0
C  C39  1  0.29964256  0.49921991  0.78759946  1  0  0.122833  0  3.706964  0  0  0.092901  0  3.957601  0  0  0.099002  0  3.976565  0  0  0.036165  0.088914  0  3.945101  0
C  C40  1  0.96466731  0.14523145  0.27777143  1  0  0.137768  0  3.715612  0  0  0.106154  0  3.966692  0  0  0.11392  0  3.98425  0  0  0.040275  0.101133  0  3.955092  0
C  C41  1  0.53532784  0.85476751  0.77777220  1  0  0.137757  0  3.715488  0  0  0.10617  0  3.966566  0  0  0.113936  0  3.984122  0  0  0.04024  0.10114  0  3.954976  0
C  C42  1  0.03532368  0.64522977  0.22222910  1  0  0.137653  0  3.715564  0  0  0.106047  0  3.966621  0  0  0.113813  0  3.984175  0  0  0.040236  0.101029  0  3.955019  0
C  C43  1  0.46467124  0.35476796  0.72222810  1  0  0.137641  0  3.715539  0  0  0.106054  0  3.966617  0  0  0.11382  0  3.984175  0  0  0.040229  0.101029  0  3.955022  0
C  C44  1  0.12581515  0.16026706  0.22844653  1  0  -0.137922  0  3.689556  0  0  -0.153877  0  3.928812  0  0  -0.161242  0  3.949505  0  0  -0.079443  -0.149059  0  3.915348  0
C  C45  1  0.37418141  0.83973155  0.72844586  1  0  -0.137862  0  3.689464  0  0  -0.153808  0  3.928743  0  0  -0.161177  0  3.949439  0  0  -0.079378  -0.148992  0  3.915281  0
C  C46  1  0.87418243  0.66026475  0.27155452  1  0  -0.137824  0  3.689476  0  0  -0.153719  0  3.928705  0  0  -0.161085  0  3.9494  0  0  -0.079365  -0.148904  0  3.915241  0
C  C47  1  0.62581918  0.33973246  0.77155236  1  0  -0.137857  0  3.689598  0  0  -0.153827  0  3.928862  0  0  -0.161194  0  3.94956  0  0  -0.079422  -0.149011  0  3.915403  0
C  C48  1  0.11972349  0.09289546  0.16814289  1  0  0.097303  0  3.773961  0  0  0.114947  0  4.001502  0  0  0.117267  0  4.022919  0  0  0.009584  0.113368  0  3.987072  0
C  C49  1  0.38027610  0.90710303  0.66814278  1  0  0.097332  0  3.773966  0  0  0.114879  0  4.00164  0  0  0.117202  0  4.023052  0  0  0.009553  0.113301  0  3.987209  0
C  C50  1  0.88027680  0.59289764  0.33185863  1  0  0.09725  0  3.773958  0  0  0.114788  0  4.001602  0  0  0.117114  0  4.023008  0  0  0.009513  0.113209  0  3.987171  0
C  C51  1  0.61972662  0.40710317  0.83185600  1  0  0.097328  0  3.77406  0  0  0.114907  0  4.001646  0  0  0.117226  0  4.023062  0  0  0.009567  0.113328  0  3.987217  0
C  C52  1  0.28942152  0.10954224  0.11684038  1  0  0.100855  0  3.643548  0  0  0.064232  0  3.913578  0  0  0.072244  0  3.9222  0  0  0.083974  0.058635  0  3.907321  0
C  C53  1  0.21057791  0.89045877  0.61683865  1  0  0.100849  0  3.643679  0  0  0.064267  0  3.913706  0  0  0.072275  0  3.922331  0  0  0.083968  0.058672  0  3.907444  0
C  C54  1  0.71058051  0.60954240  0.38316270  1  0  0.100992  0  3.643641  0  0  0.064442  0  3.913618  0  0  0.072447  0  3.922259  0  0  0.084051  0.058848  0  3.907355  0
C  C55  1  0.78942630  0.39045765  0.88315908  1  0  0.100832  0  3.643736  0  0  0.064318  0  3.913665  0  0  0.07233  0  3.922283  0  0  0.083994  0.058722  0  3.907403  0
C  C56  1  0.59720690  0.16437175  0.01077437  1  0  0.125466  0  3.635768  0  0  0.060546  0  3.904575  0  0  0.072993  0  3.916234  0  0  0.149526  0.053698  0  3.896977  0
C  C57  1  0.90279063  0.83562843  0.51077473  1  0  0.125417  0  3.635736  0  0  0.060505  0  3.904553  0  0  0.072972  0  3.91621  0  0  0.149467  0.053659  0  3.896955  0
C  C58  1  0.40278909  0.66437317  0.48922514  1  0  0.125483  0  3.635607  0  0  0.060568  0  3.904421  0  0  0.073006  0  3.916077  0  0  0.149528  0.053718  0  3.896827  0
C  C59  1  0.09721154  0.33562770  0.98922555  1  0  0.125337  0  3.635841  0  0  0.060446  0  3.904665  0  0  0.072907  0  3.916323  0  0  0.149474  0.0536  0  3.897066  0
C  C60  1  0.52874916  0.99057628  0.96855704  1  0  0.158522  0  3.628016  0  0  0.08144  0  3.892228  0  0  0.097263  0  3.903338  0  0  0.159297  0.072474  0  3.884883  0
C  C61  1  0.97124984  0.00942481  0.46855720  1  0  0.158476  0  3.628108  0  0  0.081423  0  3.892299  0  0  0.097265  0  3.903408  0  0  0.159297  0.072458  0  3.884953  0
C  C62  1  0.47124935  0.49057723  0.53144335  1  0  0.158451  0  3.62811  0  0  0.081377  0  3.892302  0  0  0.09719  0  3.903412  0  0  0.159246  0.072409  0  3.884959  0
C  C63  1  0.02875465  0.50942273  0.03144270  1  0  0.158467  0  3.628153  0  0  0.081403  0  3.892349  0  0  0.09724  0  3.903458  0  0  0.159234  0.072438  0  3.885003  0
I  I64  1  0.41363466  0.24968912  0.40834402  1  0  -0.496029  0  1.025307  0  0  -0.445338  0  1.343081  0  0  -0.464264  0  1.319444  0  0  -0.253234  -0.431405  0  1.359001  0
I  I65  1  0.08636571  0.75031247  0.90834370  1  0  -0.496036  0  1.02534  0  0  -0.445338  0  1.343111  0  0  -0.464266  0  1.319475  0  0  -0.253227  -0.431405  0  1.359033  0
I  I66  1  0.58636361  0.74968755  0.09165554  1  0  -0.496056  0  1.025372  0  0  -0.445365  0  1.343149  0  0  -0.464292  0  1.319511  0  0  -0.253242  -0.431432  0  1.359075  0
I  I67  1  0.91363417  0.25031105  0.59165548  1  0  -0.496024  0  1.025313  0  0  -0.445336  0  1.343088  0  0  -0.464263  0  1.31945  0  0  -0.253232  -0.431402  0  1.35901  0
I  I68  1  0.30071985  0.86033833  0.32083016  1  0  -0.472185  0  1.079036  0  0  -0.418586  0  1.406708  0  0  -0.439599  0  1.390116  0  0  -0.238482  -0.403474  0  1.41791  0
I  I69  1  0.19927377  0.13966482  0.82083150  1  0  -0.472177  0  1.079078  0  0  -0.418556  0  1.406707  0  0  -0.439572  0  1.390112  0  0  -0.238468  -0.403446  0  1.417908  0
I  I70  1  0.69926472  0.36033660  0.17916897  1  0  -0.472184  0  1.079073  0  0  -0.418578  0  1.406731  0  0  -0.439592  0  1.390136  0  0  -0.238474  -0.40347  0  1.417932  0
I  I71  1  0.80073496  0.63966740  0.67916761  1  0  -0.472176  0  1.079073  0  0  -0.418557  0  1.406703  0  0  -0.439573  0  1.390107  0  0  -0.238461  -0.403448  0  1.417907  0
N  N72  1  0.80464100  0.06730998  0.26994188  1  0  -0.307206  0  3.284252  0  0  -0.225021  0  3.54668  0  0  -0.244476  0  3.566059  0  0  -0.337033  -0.212046  0  3.533295  0
N  N73  1  0.69535575  0.93268810  0.76994224  1  0  -0.307198  0  3.284257  0  0  -0.225036  0  3.54669  0  0  -0.244479  0  3.566041  0  0  -0.33703  -0.21206  0  3.533301  0
N  N74  1  0.19535586  0.56731042  0.23005859  1  0  -0.307108  0  3.284139  0  0  -0.22495  0  3.546598  0  0  -0.2444  0  3.565965  0  0  -0.337009  -0.211975  0  3.533205  0
N  N75  1  0.30464393  0.43268820  0.73005811  1  0  -0.30712  0  3.284234  0  0  -0.224956  0  3.546654  0  0  -0.244401  0  3.56601  0  0  -0.336997  -0.21198  0  3.533264  0
N  N76  1  0.29287098  0.04674375  0.06157862  1  0  -0.174988  0  2.93924  0  0  -0.177174  0  3.207018  0  0  -0.180849  0  3.220222  0  0  -0.190358  -0.173285  0  3.198218  0
N  N77  1  0.20712988  0.95325627  0.56157901  1  0  -0.174929  0  2.939328  0  0  -0.17712  0  3.207112  0  0  -0.18078  0  3.220321  0  0  -0.190313  -0.17323  0  3.198313  0
N  N78  1  0.70712895  0.54674663  0.43842234  1  0  -0.174962  0  2.939342  0  0  -0.17716  0  3.207115  0  0  -0.180846  0  3.220325  0  0  -0.190353  -0.173273  0  3.198313  0
N  N79  1  0.79287643  0.45325527  0.93841929  1  0  -0.175038  0  2.939372  0  0  -0.177254  0  3.207135  0  0  -0.180916  0  3.22034  0  0  -0.190388  -0.173363  0  3.198336  0
N  N80  1  0.46158131  0.06922867  0.01698932  1  0  0.015875  0  3.600704  0  0  0.137429  0  3.780436  0  0  0.119401  0  3.809314  0  0  -0.119987  0.145564  0  3.764796  0
N  N81  1  0.03841779  0.93077301  0.51698860  1  0  0.015912  0  3.600679  0  0  0.137427  0  3.780441  0  0  0.119358  0  3.809359  0  0  -0.119973  0.145553  0  3.764816  0
N  N82  1  0.53841879  0.56922864  0.48301218  1  0  0.015927  0  3.600557  0  0  0.137436  0  3.78035  0  0  0.119432  0  3.809209  0  0  -0.119992  0.145577  0  3.7647  0
N  N83  1  0.96158673  0.43077161  0.98301020  1  0  0.015957  0  3.600605  0  0  0.13747  0  3.780368  0  0  0.119411  0  3.809278  0  0  -0.119965  0.145597  0  3.764742  0
N  N84  1  0.73944058  0.14458891  0.96178568  1  0  -0.229195  0  2.96666  0  0  -0.208011  0  3.251756  0  0  -0.217506  0  3.268319  0  0  -0.22678  -0.201311  0  3.239911  0
N  N85  1  0.76055678  0.85541304  0.46178536  1  0  -0.229254  0  2.966762  0  0  -0.208077  0  3.251861  0  0  -0.217571  0  3.268414  0  0  -0.226791  -0.201374  0  3.240008  0
N  N86  1  0.26055848  0.64458824  0.53821498  1  0  -0.229246  0  2.966843  0  0  -0.20807  0  3.251943  0  0  -0.217564  0  3.268507  0  0  -0.226811  -0.201371  0  3.240099  0
N  N87  1  0.23944069  0.35541174  0.03821377  1  0  -0.229128  0  2.96674  0  0  -0.207931  0  3.251834  0  0  -0.217429  0  3.268394  0  0  -0.226759  -0.201231  0  3.239989  0
N  N88  1  0.69719545  0.03442498  0.93598087  1  0  -0.245806  0  3.207894  0  0  -0.175433  0  3.502135  0  0  -0.19335  0  3.519106  0  0  -0.25127  -0.163469  0  3.489975  0
N  N89  1  0.80280183  0.96557691  0.43598064  1  0  -0.245744  0  3.208047  0  0  -0.175361  0  3.502257  0  0  -0.193279  0  3.519223  0  0  -0.251251  -0.163395  0  3.490095  0
N  N90  1  0.30280438  0.53442533  0.56401971  1  0  -0.245772  0  3.208125  0  0  -0.175389  0  3.502343  0  0  -0.193305  0  3.519317  0  0  -0.251238  -0.163425  0  3.490183  0
N  N91  1  0.19719973  0.46557470  0.06401960  1  0  -0.245727  0  3.207918  0  0  -0.175386  0  3.502172  0  0  -0.193303  0  3.519138  0  0  -0.251212  -0.163421  0  3.490012  0
