# generated using pymatgen
data_BiH8C10I3N2
_symmetry_space_group_name_H-M   'P 1'
_cell_length_a   7.51231154
_cell_length_b   10.30694855
_cell_length_c   10.84933583
_cell_angle_alpha   117.44755247
_cell_angle_beta   90.53304976
_cell_angle_gamma   95.13559542
_symmetry_Int_Tables_number   1
_chemical_formula_structural   BiH8C10I3N2
_chemical_formula_sum   'Bi2 H16 C20 I6 N4'
_cell_volume   741.28254528
_cell_formula_units_Z   2
loop_
 _symmetry_equiv_pos_site_id
 _symmetry_equiv_pos_as_xyz
  1  'x, y, z'
loop_
 _atom_site_type_symbol
 _atom_site_label
 _atom_site_symmetry_multiplicity
 _atom_site_fract_x
 _atom_site_fract_y
 _atom_site_fract_z
 _atom_site_occupancy
 _atom_site_pbe_bader_spin_density
 _atom_site_pbe_cm5_charge
 _atom_site_pbe_ddec_charge
 _atom_site_pbe_ddec_spin_density
 _atom_site_pbe_ddec_sum_bond_order
 _atom_site_pbe_magmom
Bi  Bi0  1  0.45174623  0.39883245  0.26041575  1  0  0.478348  0.791308  0  2.999864  0
Bi  Bi1  1  0.54827799  0.60117172  0.73958070  1  0  0.478393  0.791421  0  2.999842  0
H  H2  1  0.08733940  0.74189798  0.32253588  1  0  0.092218  0.104426  0  1.050128  0
H  H3  1  0.91267310  0.25808751  0.67745606  1  0  0.092244  0.104384  0  1.05029  0
H  H4  1  0.87723359  0.54279924  0.31988670  1  0  0.094777  0.074516  0  1.049591  0
H  H5  1  0.12277482  0.45717406  0.68008518  1  0  0.094809  0.074597  0  1.049755  0
H  H6  1  0.62969462  0.93343652  0.25376982  1  0  0.100625  0.114683  0  1.025229  0
H  H7  1  0.37030405  0.06656663  0.74624160  1  0  0.10064  0.114764  0  1.025458  0
H  H8  1  0.43780162  0.72244198  0.24982080  1  0  0.096638  0.070102  0  1.053364  0
H  H9  1  0.56222031  0.27753236  0.75014245  1  0  0.096675  0.070171  0  1.053141  0
H  H10  1  0.82741723  0.00952409  0.14141164  1  0  0.098648  0.113994  0  1.031391  0
H  H11  1  0.17257337  0.99051105  0.85863289  1  0  0.098616  0.11398  0  1.031166  0
H  H12  1  0.04215194  0.20145196  0.13369146  1  0  0.090364  0.065898  0  1.081013  0
H  H13  1  0.95779310  0.79859200  0.86636748  1  0  0.090307  0.065862  0  1.08072  0
H  H14  1  0.41344653  0.16586739  0.39933848  1  0  0.09362  0.066932  0  1.061137  0
H  H15  1  0.58654116  0.83414218  0.60065348  1  0  0.093548  0.066925  0  1.061001  0
H  H16  1  0.21323557  0.97218600  0.42004726  1  0  0.104986  0.114754  0  1.009697  0
H  H17  1  0.78678187  0.02780599  0.57993280  1  0  0.104952  0.114763  0  1.009512  0
C  C18  1  0.94437937  0.74594790  0.31022690  1  0  -0.085464  -0.156017  0  3.937679  0
C  C19  1  0.05562235  0.25403646  0.68976259  1  0  -0.08546  -0.155804  0  3.937602  0
C  C20  1  0.82716269  0.63238078  0.30731882  1  0  0.039887  0.095688  0  3.956177  0
C  C21  1  0.17282978  0.36760351  0.69266041  1  0  0.039792  0.095515  0  3.955918  0
C  C22  1  0.69113467  0.85101558  0.27113275  1  0  -0.084835  -0.163821  0  3.93478  0
C  C23  1  0.30886735  0.14896114  0.72886082  1  0  -0.084859  -0.163949  0  3.934931  0
C  C24  1  0.87763537  0.85761023  0.28990398  1  0  0.009536  0.103582  0  3.968265  0
C  C25  1  0.12235817  0.14237308  0.71009235  1  0  0.009469  0.103424  0  3.96836  0
C  C26  1  0.58241528  0.73406787  0.26984285  1  0  0.03784  0.086602  0  3.974852  0
C  C27  1  0.41759511  0.26591096  0.73013697  1  0  0.037729  0.086465  0  3.973857  0
C  C28  1  0.00074686  0.97314946  0.28251576  1  0  0.012496  0.111349  0  3.952912  0
C  C29  1  0.99925382  0.02685797  0.71748094  1  0  0.012425  0.111468  0  3.953492  0
C  C30  1  0.95503270  0.04002984  0.20142876  1  0  -0.080781  -0.148742  0  3.907998  0
C  C31  1  0.04493701  0.95999629  0.79858401  1  0  -0.080736  -0.148778  0  3.907966  0
C  C32  1  0.07558744  0.14721881  0.19548697  1  0  0.041265  0.099598  0  3.941236  0
C  C33  1  0.92436601  0.85281617  0.80453867  1  0  0.04152  0.099776  0  3.941456  0
C  C34  1  0.28231422  0.12675042  0.34333003  1  0  0.035995  0.090929  0  3.9574  0
C  C35  1  0.71769790  0.87326367  0.65667611  1  0  0.03596  0.090746  0  3.957618  0
C  C36  1  0.16978697  0.01841191  0.35393799  1  0  -0.082712  -0.155622  0  3.918752  0
C  C37  1  0.83023632  0.98159558  0.64606265  1  0  -0.082641  -0.155569  0  3.918982  0
I  I38  1  0.26219325  0.63152267  0.52635464  1  0  -0.171946  -0.387092  0  1.365495  0
I  I39  1  0.73784185  0.36845306  0.47364898  1  0  -0.171977  -0.38714  0  1.365381  0
I  I40  1  0.19433471  0.44001442  0.08124975  1  0  -0.127514  -0.291427  0  1.474221  0
I  I41  1  0.80567113  0.55999195  0.91875023  1  0  -0.127527  -0.291455  0  1.474255  0
I  I42  1  0.65030810  0.20221757  0.02374737  1  0  -0.186612  -0.367718  0  1.344355  0
I  I43  1  0.34968794  0.79775484  0.97625810  1  0  -0.186663  -0.36776  0  1.344242  0
N  N44  1  0.64917777  0.62620959  0.28705359  1  0  -0.305028  -0.217313  0  3.50521  0
N  N45  1  0.35084272  0.37379557  0.71292666  1  0  -0.304854  -0.217214  0  3.50389  0
N  N46  1  0.23633394  0.19052930  0.26539903  1  0  -0.30234  -0.216618  0  3.474614  0
N  N47  1  0.76364555  0.80949030  0.73461654  1  0  -0.302372  -0.216585  0  3.475082  0
