# generated using pymatgen
data_Zn5P2H16(C4O5)4
_symmetry_space_group_name_H-M   'P 1'
_cell_length_a   7.26545952
_cell_length_b   9.58656493
_cell_length_c   10.96190627
_cell_angle_alpha   67.04540430
_cell_angle_beta   75.75283056
_cell_angle_gamma   73.40207947
_symmetry_Int_Tables_number   1
_chemical_formula_structural   Zn5P2H16(C4O5)4
_chemical_formula_sum   'Zn5 P2 H16 C16 O20'
_cell_volume   665.85731528
_cell_formula_units_Z   1
loop_
 _symmetry_equiv_pos_site_id
 _symmetry_equiv_pos_as_xyz
  1  'x, y, z'
loop_
 _atom_site_type_symbol
 _atom_site_label
 _atom_site_symmetry_multiplicity
 _atom_site_fract_x
 _atom_site_fract_y
 _atom_site_fract_z
 _atom_site_occupancy
 _atom_site_hle17_bader_spin_density
 _atom_site_hle17_ddec_charge
 _atom_site_hle17_ddec_spin_density
 _atom_site_hle17_ddec_sum_bond_order
 _atom_site_hle17_magmom
 _atom_site_hse06_10hf_bader_spin_density
 _atom_site_hse06_10hf_ddec_charge
 _atom_site_hse06_10hf_ddec_spin_density
 _atom_site_hse06_10hf_ddec_sum_bond_order
 _atom_site_hse06_10hf_magmom
 _atom_site_hse06_bader_spin_density
 _atom_site_hse06_ddec_charge
 _atom_site_hse06_ddec_spin_density
 _atom_site_hse06_ddec_sum_bond_order
 _atom_site_hse06_magmom
 _atom_site_pbe_bader_spin_density
 _atom_site_pbe_cm5_charge
 _atom_site_pbe_ddec_charge
 _atom_site_pbe_ddec_spin_density
 _atom_site_pbe_ddec_sum_bond_order
 _atom_site_pbe_magmom
Zn  Zn0  1  0.43696164  0.65552211  0.70685207  1  0  1.195185  0  1.740207  0  0  1.022669  0  2.217854  0  0  1.072202  0  2.1541  0  0  0.689573  0.987345  0  2.262172  0
Zn  Zn1  1  0.56303986  0.34448073  0.29314926  1  0  1.195193  0  1.74022  0  0  1.022677  0  2.217872  0  0  1.072215  0  2.154113  0  0  0.68955  0.98735  0  2.262193  0
Zn  Zn2  1  0.07350413  0.72586630  0.96518066  1  0  1.262097  0  1.671296  0  0  1.110333  0  2.11449  0  0  1.154035  0  2.05524  0  0  0.679835  1.078961  0  2.155186  0
Zn  Zn3  1  0.92650235  0.27413425  0.03481795  1  0  1.262166  0  1.671277  0  0  1.110399  0  2.114495  0  0  1.154118  0  2.055211  0  0  0.679825  1.079  0  2.155224  0
Zn  Zn4  1  0.50000325  0.49999782  0.99999940  1  0  1.217895  0  1.7556  0  0  1.074731  0  2.182865  0  0  1.118452  0  2.124682  0  0  0.66603  1.043488  0  2.223131  0
P  P5  1  0.86255447  0.62178025  0.80343968  1  0  1.480268  0  4.883092  0  0  1.319826  0  5.369043  0  0  1.370285  0  5.333939  0  0  0.332538  1.284691  0  5.392239  0
P  P6  1  0.13744456  0.37822602  0.19656082  1  0  1.480235  0  4.883037  0  0  1.319796  0  5.369015  0  0  1.37025  0  5.333909  0  0  0.332521  1.28465  0  5.392227  0
H  H7  1  0.72190023  0.90492738  0.58612376  1  0  0.107471  0  0.928653  0  0  0.118032  0  0.988633  0  0  0.121643  0  0.985609  0  0  0.111918  0.115377  0  0.991066  0
H  H8  1  0.27809745  0.09507408  0.41387503  1  0  0.10742  0  0.928639  0  0  0.117968  0  0.988643  0  0  0.121588  0  0.985616  0  0  0.111887  0.115315  0  0.991081  0
H  H9  1  0.18586258  0.49652261  0.62857397  1  0  0.107712  0  0.947239  0  0  0.112828  0  1.01783  0  0  0.117077  0  1.013702  0  0  0.106857  0.109771  0  1.020905  0
H  H10  1  0.81412980  0.50347293  0.37142963  1  0  0.107765  0  0.947279  0  0  0.112828  0  1.017925  0  0  0.117078  0  1.013798  0  0  0.106856  0.109772  0  1.020997  0
H  H11  1  0.14664975  0.86108923  0.24569631  1  0  0.105583  0  0.951728  0  0  0.114126  0  1.015715  0  0  0.11838  0  1.011645  0  0  0.109986  0.1112  0  1.018322  0
H  H12  1  0.85334338  0.13890388  0.75430438  1  0  0.105726  0  0.951625  0  0  0.114267  0  1.015597  0  0  0.11852  0  1.011527  0  0  0.110044  0.111338  0  1.018213  0
H  H13  1  0.20763278  0.49839477  0.88502860  1  0  0.425294  0  0.87979  0  0  0.394327  0  0.946313  0  0  0.405083  0  0.930597  0  0  0.288134  0.386457  0  0.957816  0
H  H14  1  0.79236948  0.50160564  0.11496983  1  0  0.425412  0  0.879592  0  0  0.394405  0  0.946213  0  0  0.40516  0  0.9305  0  0  0.288182  0.386535  0  0.957721  0
H  H15  1  0.41829326  0.80841573  0.96296182  1  0  0.450936  0  0.781278  0  0  0.432837  0  0.831299  0  0  0.441499  0  0.821708  0  0  0.333999  0.426404  0  0.838675  0
H  H16  1  0.58171815  0.19158261  0.03703679  1  0  0.450952  0  0.781241  0  0  0.432846  0  0.831272  0  0  0.441508  0  0.821681  0  0  0.334008  0.426409  0  0.838648  0
H  H17  1  0.38586417  0.71176657  0.12126278  1  0  0.446169  0  0.855118  0  0  0.413325  0  0.920487  0  0  0.424382  0  0.904635  0  0  0.298084  0.405477  0  0.931726  0
H  H18  1  0.61413668  0.28823380  0.87873589  1  0  0.446141  0  0.855164  0  0  0.413297  0  0.920536  0  0  0.424354  0  0.904687  0  0  0.298094  0.405445  0  0.931781  0
H  H19  1  0.82231281  0.77452260  0.15366543  1  0  0.44097  0  0.804837  0  0  0.42176  0  0.860834  0  0  0.430019  0  0.851524  0  0  0.32161  0.415713  0  0.867751  0
H  H20  1  0.17770354  0.22547357  0.84633407  1  0  0.441005  0  0.804727  0  0  0.421806  0  0.860712  0  0  0.430063  0  0.851402  0  0  0.321647  0.415761  0  0.86762  0
H  H21  1  0.88734432  0.93038986  0.11965976  1  0  0.432139  0  0.865928  0  0  0.399684  0  0.931886  0  0  0.409995  0  0.917021  0  0  0.294095  0.392342  0  0.942445  0
H  H22  1  0.11266039  0.06961181  0.88033873  1  0  0.432265  0  0.865785  0  0  0.399825  0  0.931717  0  0  0.410136  0  0.91685  0  0  0.294127  0.392475  0  0.942288  0
C  C23  1  0.85107689  0.83683202  0.54423510  1  0  0.000728  0  3.660682  0  0  -0.03958  0  3.910236  0  0  -0.034129  0  3.927676  0  0  -0.059794  -0.043302  0  3.898705  0
C  C24  1  0.14891693  0.16316814  0.45576387  1  0  0.00081  0  3.660589  0  0  -0.039481  0  3.910157  0  0  -0.034034  0  3.927594  0  0  -0.059752  -0.043202  0  3.898629  0
C  C25  1  0.94803111  0.69434806  0.62535829  1  0  -0.246137  0  3.760198  0  0  -0.203708  0  4.011149  0  0  -0.21631  0  4.033585  0  0  -0.024352  -0.195153  0  3.995899  0
C  C26  1  0.05196092  0.30565331  0.37464327  1  0  -0.246064  0  3.760081  0  0  -0.203679  0  4.011062  0  0  -0.216277  0  4.0335  0  0  -0.024328  -0.19513  0  3.995825  0
C  C27  1  0.11242109  0.60972919  0.56766375  1  0  -0.025028  0  3.690704  0  0  -0.064291  0  3.944993  0  0  -0.059272  0  3.96196  0  0  -0.067201  -0.067497  0  3.934297  0
C  C28  1  0.88757169  0.39026975  0.43233491  1  0  -0.025025  0  3.690687  0  0  -0.06422  0  3.945006  0  0  -0.059201  0  3.96197  0  0  -0.067178  -0.067419  0  3.934297  0
C  C29  1  0.91806547  0.89383860  0.40652386  1  0  -0.078523  0  3.748305  0  0  -0.050878  0  3.984981  0  0  -0.062236  0  4.009005  0  0  -0.01607  -0.043322  0  3.968853  0
C  C30  1  0.08192905  0.10615925  0.59347583  1  0  -0.078512  0  3.748302  0  0  -0.050854  0  3.984949  0  0  -0.062209  0  4.008974  0  0  -0.016061  -0.043294  0  3.96882  0
C  C31  1  0.18586844  0.67084444  0.43143528  1  0  -0.059967  0  3.740335  0  0  -0.03195  0  3.973404  0  0  -0.042581  0  3.996931  0  0  -0.012665  -0.025201  0  3.958053  0
C  C32  1  0.81412402  0.32915090  0.56856198  1  0  -0.059944  0  3.740145  0  0  -0.031977  0  3.973288  0  0  -0.04261  0  3.996818  0  0  -0.012659  -0.025212  0  3.957917  0
C  C33  1  0.36248257  0.58437662  0.36802727  1  0  0.672485  0  3.878095  0  0  0.619427  0  4.168831  0  0  0.654345  0  4.162058  0  0  0.215247  0.595603  0  4.172881  0
C  C34  1  0.63751541  0.41561916  0.63197898  1  0  0.672507  0  3.878041  0  0  0.619451  0  4.168808  0  0  0.654369  0  4.162039  0  0  0.21527  0.595613  0  4.172868  0
C  C35  1  0.08878501  0.81291939  0.35130987  1  0  -0.047231  0  3.675622  0  0  -0.085422  0  3.91841  0  0  -0.080976  0  3.936191  0  0  -0.067869  -0.087785  0  3.905827  0
C  C36  1  0.91120883  0.18707607  0.64868986  1  0  -0.047487  0  3.675654  0  0  -0.08567  0  3.918473  0  0  -0.081221  0  3.936247  0  0  -0.067974  -0.088035  0  3.905896  0
C  C37  1  0.81077103  0.04201008  0.31875600  1  0  0.693328  0  3.840736  0  0  0.638291  0  4.130096  0  0  0.674277  0  4.122129  0  0  0.230099  0.613288  0  4.135337  0
C  C38  1  0.18922557  0.95799023  0.68124520  1  0  0.6934  0  3.840781  0  0  0.638361  0  4.130144  0  0  0.674345  0  4.122176  0  0  0.230162  0.613357  0  4.135393  0
O  O39  1  0.28265564  0.57024271  0.88437955  1  0  -1.031827  0  2.014221  0  0  -0.927762  0  2.317967  0  0  -0.962278  0  2.277644  0  0  -0.568364  -0.903447  0  2.345771  0
O  O40  1  0.71734837  0.42975661  0.11561990  1  0  -1.032006  0  2.014101  0  0  -0.927925  0  2.31791  0  0  -0.962441  0  2.277584  0  0  -0.568408  -0.903609  0  2.345714  0
O  O41  1  0.64625334  0.61461276  0.81739429  1  0  -0.910412  0  2.156571  0  0  -0.800808  0  2.466704  0  0  -0.832403  0  2.439238  0  0  -0.385173  -0.778266  0  2.484819  0
O  O42  1  0.35374531  0.38539475  0.18260857  1  0  -0.910417  0  2.156668  0  0  -0.800775  0  2.466711  0  0  -0.832409  0  2.439328  0  0  -0.385143  -0.77823  0  2.484829  0
O  O43  1  0.35507656  0.72726501  0.03040171  1  0  -0.845605  0  1.92122  0  0  -0.78234  0  2.141716  0  0  -0.80426  0  2.108545  0  0  -0.546731  -0.767022  0  2.165148  0
O  O44  1  0.64493030  0.27273433  0.96959545  1  0  -0.845595  0  1.921186  0  0  -0.782347  0  2.141741  0  0  -0.804245  0  2.108514  0  0  -0.546741  -0.76702  0  2.165172  0
O  O45  1  0.87433569  0.85731949  0.07924056  1  0  -0.817203  0  1.842559  0  0  -0.759905  0  2.035918  0  0  -0.779623  0  2.005275  0  0  -0.568317  -0.745947  0  2.057407  0
O  O46  1  0.12567116  0.14267988  0.92075750  1  0  -0.817369  0  1.842372  0  0  -0.760082  0  2.035721  0  0  -0.779803  0  2.005074  0  0  -0.568369  -0.746119  0  2.057212  0
O  O47  1  0.40751772  0.43632355  0.42722206  1  0  -0.642836  0  2.029252  0  0  -0.568782  0  2.294207  0  0  -0.600199  0  2.282198  0  0  -0.316069  -0.54662  0  2.301801  0
O  O48  1  0.59247606  0.56367205  0.57278220  1  0  -0.642821  0  2.02923  0  0  -0.568752  0  2.294173  0  0  -0.60017  0  2.282166  0  0  -0.31606  -0.546585  0  2.301767  0
O  O49  1  0.45652356  0.65607240  0.25829414  1  0  -0.65079  0  1.969407  0  0  -0.592918  0  2.186945  0  0  -0.61692  0  2.174041  0  0  -0.32845  -0.576005  0  2.195547  0
O  O50  1  0.54347373  0.34392098  0.74171126  1  0  -0.650832  0  1.969495  0  0  -0.592949  0  2.187052  0  0  -0.616957  0  2.174152  0  0  -0.328501  -0.576033  0  2.195658  0
O  O51  1  0.69042718  0.13008424  0.37839911  1  0  -0.631394  0  2.056839  0  0  -0.558668  0  2.332218  0  0  -0.588264  0  2.316114  0  0  -0.306556  -0.537883  0  2.343161  0
O  O52  1  0.30957081  0.86991616  0.62160366  1  0  -0.631455  0  2.056799  0  0  -0.558726  0  2.332198  0  0  -0.588323  0  2.316095  0  0  -0.306632  -0.53794  0  2.343145  0
O  O53  1  0.84286121  0.07118264  0.19191792  1  0  -0.686536  0  2.084808  0  0  -0.611061  0  2.331929  0  0  -0.638923  0  2.317311  0  0  -0.310202  -0.59117  0  2.341598  0
O  O54  1  0.15714100  0.92882255  0.80808246  1  0  -0.686549  0  2.084846  0  0  -0.6111  0  2.331982  0  0  -0.638956  0  2.317365  0  0  -0.310197  -0.591211  0  2.341656  0
O  O55  1  0.86781327  0.73748426  0.86596047  1  0  -0.861413  0  1.966826  0  0  -0.777523  0  2.240978  0  0  -0.80628  0  2.219136  0  0  -0.390009  -0.757127  0  2.255254  0
O  O56  1  0.13219040  0.26252550  0.13403347  1  0  -0.861436  0  1.966873  0  0  -0.777541  0  2.241009  0  0  -0.806299  0  2.219169  0  0  -0.390003  -0.757135  0  2.25528  0
O  O57  1  0.98931477  0.45859787  0.85936352  1  0  -0.894399  0  2.016932  0  0  -0.799226  0  2.280286  0  0  -0.827794  0  2.258533  0  0  -0.377168  -0.778609  0  2.294684  0
O  O58  1  0.01068214  0.54141071  0.14063741  1  0  -0.894445  0  2.016864  0  0  -0.799226  0  2.280195  0  0  -0.827774  0  2.258429  0  0  -0.377181  -0.77861  0  2.294598  0
