# generated using pymatgen
data_CdH15C22S(NO)5
_symmetry_space_group_name_H-M   'P 1'
_cell_length_a   9.46366952
_cell_length_b   10.05557602
_cell_length_c   11.27997882
_cell_angle_alpha   70.81437240
_cell_angle_beta   85.90246990
_cell_angle_gamma   86.23640044
_symmetry_Int_Tables_number   1
_chemical_formula_structural   CdH15C22S(NO)5
_chemical_formula_sum   'Cd2 H30 C44 S2 N10 O10'
_cell_volume   1010.20842015
_cell_formula_units_Z   2
loop_
 _symmetry_equiv_pos_site_id
 _symmetry_equiv_pos_as_xyz
  1  'x, y, z'
loop_
 _atom_site_type_symbol
 _atom_site_label
 _atom_site_symmetry_multiplicity
 _atom_site_fract_x
 _atom_site_fract_y
 _atom_site_fract_z
 _atom_site_occupancy
 _atom_site_hle17_bader_spin_density
 _atom_site_hle17_ddec_charge
 _atom_site_hle17_ddec_spin_density
 _atom_site_hle17_ddec_sum_bond_order
 _atom_site_hle17_magmom
 _atom_site_hse06_10hf_bader_spin_density
 _atom_site_hse06_10hf_ddec_charge
 _atom_site_hse06_10hf_ddec_spin_density
 _atom_site_hse06_10hf_ddec_sum_bond_order
 _atom_site_hse06_10hf_magmom
 _atom_site_hse06_bader_spin_density
 _atom_site_hse06_ddec_charge
 _atom_site_hse06_ddec_spin_density
 _atom_site_hse06_ddec_sum_bond_order
 _atom_site_hse06_magmom
 _atom_site_pbe_bader_spin_density
 _atom_site_pbe_cm5_charge
 _atom_site_pbe_ddec_charge
 _atom_site_pbe_ddec_spin_density
 _atom_site_pbe_ddec_sum_bond_order
 _atom_site_pbe_magmom
Cd  Cd0  1  0.73913258  0.17754517  0.48692212  1  0  1.134494  0  1.623769  0  0  0.941854  0  2.059157  0  0  1.002388  0  2.005133  0  0  0.764129  0.899161  0  2.095488  0
Cd  Cd1  1  0.26086494  0.82245529  0.51308011  1  0  1.134513  0  1.623702  0  0  0.94189  0  2.059085  0  0  1.002426  0  2.005054  0  0  0.764144  0.899198  0  2.095416  0
H  H2  1  0.83598890  0.89564414  0.47723485  1  0  0.416538  0  0.894378  0  0  0.379624  0  0.970068  0  0  0.391208  0  0.953345  0  0  0.279107  0.371541  0  0.981616  0
H  H3  1  0.16400962  0.10435738  0.52276611  1  0  0.416605  0  0.89429  0  0  0.37965  0  0.970009  0  0  0.391245  0  0.95328  0  0  0.279121  0.37157  0  0.981554  0
H  H4  1  0.66606197  0.90846739  0.47966772  1  0  0.417328  0  0.893174  0  0  0.381543  0  0.966006  0  0  0.393357  0  0.948919  0  0  0.27825  0.373077  0  0.978221  0
H  H5  1  0.33393543  0.09153520  0.52033476  1  0  0.417334  0  0.893167  0  0  0.381544  0  0.966005  0  0  0.39336  0  0.948914  0  0  0.278253  0.37308  0  0.978217  0
H  H6  1  0.14473124  0.10713026  0.14084744  1  0  0.116383  0  0.945472  0  0  0.126911  0  1.001846  0  0  0.129697  0  1.001623  0  0  0.11449  0.124816  0  1.002143  0
H  H7  1  0.85526644  0.89286706  0.85915663  1  0  0.116377  0  0.945414  0  0  0.126915  0  1.0018  0  0  0.129703  0  1.001572  0  0  0.114482  0.124821  0  1.002096  0
H  H8  1  0.04326755  0.29377435  0.95289215  1  0  0.106043  0  0.957031  0  0  0.110098  0  1.029833  0  0  0.113973  0  1.026021  0  0  0.109617  0.107437  0  1.032451  0
H  H9  1  0.95673537  0.70622402  0.04710951  1  0  0.106033  0  0.957041  0  0  0.110114  0  1.029819  0  0  0.113988  0  1.026007  0  0  0.109629  0.107454  0  1.032435  0
H  H10  1  0.46841464  0.41086105  0.45214311  1  0  0.077119  0  0.959212  0  0  0.081705  0  1.032158  0  0  0.08407  0  1.030198  0  0  0.112224  0.080076  0  1.033513  0
H  H11  1  0.53159346  0.58913948  0.54785846  1  0  0.077115  0  0.959158  0  0  0.081704  0  1.032098  0  0  0.08407  0  1.030137  0  0  0.112232  0.080081  0  1.033447  0
H  H12  1  0.36859197  0.62749019  0.29253920  1  0  0.128587  0  0.94549  0  0  0.136655  0  1.004631  0  0  0.140399  0  1.003336  0  0  0.111995  0.133874  0  1.005708  0
H  H13  1  0.63141195  0.37250929  0.70746471  1  0  0.12853  0  0.945533  0  0  0.136635  0  1.004636  0  0  0.140372  0  1.00335  0  0  0.111996  0.133853  0  1.005714  0
H  H14  1  0.66269962  0.78105282  0.70610660  1  0  0.103102  0  0.932772  0  0  0.112608  0  0.988584  0  0  0.11567  0  0.986742  0  0  0.120176  0.110036  0  0.99017  0
H  H15  1  0.33729170  0.21894447  0.29389787  1  0  0.103114  0  0.932823  0  0  0.112636  0  0.98861  0  0  0.115701  0  0.986765  0  0  0.120205  0.110066  0  0.990192  0
H  H16  1  0.85225370  0.61727321  0.65819607  1  0  0.088807  0  0.928622  0  0  0.095239  0  0.993377  0  0  0.098228  0  0.991435  0  0  0.116284  0.09273  0  0.995072  0
H  H17  1  0.14773947  0.38272929  0.34180314  1  0  0.088825  0  0.92864  0  0  0.095271  0  0.99339  0  0  0.098253  0  0.991454  0  0  0.116292  0.092762  0  0.995084  0
H  H18  1  0.02510628  0.31725654  0.74884960  1  0  0.134478  0  0.962448  0  0  0.136744  0  1.041053  0  0  0.141136  0  1.036559  0  0  0.107085  0.133759  0  1.044182  0
H  H19  1  0.97489002  0.68274705  0.25114998  1  0  0.134436  0  0.962413  0  0  0.136699  0  1.041019  0  0  0.141091  0  1.036526  0  0  0.107073  0.133713  0  1.044151  0
H  H20  1  0.05137689  0.46074110  0.60846861  1  0  0.131783  0  0.936311  0  0  0.145011  0  0.995751  0  0  0.147401  0  0.994674  0  0  0.105665  0.143311  0  0.996575  0
H  H21  1  0.94862274  0.53925933  0.39153084  1  0  0.131794  0  0.936287  0  0  0.145021  0  0.995718  0  0  0.14741  0  0.994643  0  0  0.105674  0.143321  0  0.996542  0
H  H22  1  0.01708906  0.06060400  0.34938615  1  0  0.097696  0  0.947274  0  0  0.108669  0  1.005383  0  0  0.111086  0  1.00321  0  0  0.12266  0.106817  0  1.007243  0
H  H23  1  0.98290850  0.93939540  0.65061552  1  0  0.097639  0  0.947344  0  0  0.108617  0  1.005448  0  0  0.111033  0  1.003275  0  0  0.122643  0.106766  0  1.007305  0
H  H24  1  0.52527575  0.90105235  0.89884392  1  0  0.100026  0  0.96536  0  0  0.103945  0  1.038463  0  0  0.107648  0  1.035103  0  0  0.104407  0.101204  0  1.040973  0
H  H25  1  0.47472018  0.09893741  0.10115280  1  0  0.100041  0  0.965263  0  0  0.103963  0  1.038372  0  0  0.107663  0  1.03502  0  0  0.104397  0.10122  0  1.040885  0
H  H26  1  0.32615405  0.84169846  0.07064057  1  0  0.108264  0  0.956948  0  0  0.120323  0  1.013837  0  0  0.12391  0  1.012342  0  0  0.105074  0.117663  0  1.01537  0
H  H27  1  0.67384484  0.15829565  0.92936086  1  0  0.108318  0  0.956923  0  0  0.120352  0  1.013843  0  0  0.123936  0  1.012353  0  0  0.105115  0.117694  0  1.015374  0
H  H28  1  0.09660575  0.97161767  0.02608737  1  0  0.066683  0  0.965827  0  0  0.074504  0  1.033038  0  0  0.077035  0  1.030116  0  0  0.110045  0.072441  0  1.035658  0
H  H29  1  0.90339605  0.02838181  0.97391756  1  0  0.066692  0  0.965789  0  0  0.074516  0  1.03299  0  0  0.077048  0  1.030067  0  0  0.110044  0.072453  0  1.03561  0
H  H30  1  0.48034245  0.69675513  0.06983864  1  0  0.097673  0  0.975351  0  0  0.106259  0  1.043929  0  0  0.108835  0  1.041794  0  0  0.109573  0.104424  0  1.045396  0
H  H31  1  0.51965607  0.30324639  0.93016321  1  0  0.097596  0  0.975437  0  0  0.10622  0  1.043961  0  0  0.108803  0  1.041824  0  0  0.109547  0.104386  0  1.045428  0
C  C32  1  0.40140167  0.06927846  0.77567885  1  0  -0.15438  0  3.71899  0  0  -0.132227  0  3.952026  0  0  -0.144711  0  3.973619  0  0  -0.02396  -0.124414  0  3.937665  0
C  C33  1  0.59859500  0.93071778  0.22432472  1  0  -0.15448  0  3.718866  0  0  -0.13236  0  3.951878  0  0  -0.144846  0  3.973467  0  0  -0.024016  -0.12456  0  3.937542  0
C  C34  1  0.95778425  0.28162375  0.58517054  1  0  0.697822  0  3.864247  0  0  0.652107  0  4.158002  0  0  0.685522  0  4.152495  0  0  0.195858  0.62927  0  4.161248  0
C  C35  1  0.04221649  0.71837567  0.41483093  1  0  0.697739  0  3.864401  0  0  0.652047  0  4.158094  0  0  0.685464  0  4.152586  0  0  0.195815  0.629213  0  4.161339  0
C  C36  1  0.80982366  0.32372124  0.18856665  1  0  0.149184  0  3.754168  0  0  0.138706  0  3.99639  0  0  0.143974  0  4.01832  0  0  0.12144  0.135359  0  3.980705  0
C  C37  1  0.19018010  0.67628133  0.81143190  1  0  0.149126  0  3.754268  0  0  0.138746  0  3.996424  0  0  0.144013  0  4.018355  0  0  0.121421  0.135399  0  3.98074  0
C  C38  1  0.68715586  0.40763197  0.21363541  1  0  0.149498  0  3.757068  0  0  0.13891  0  4.001465  0  0  0.144291  0  4.022624  0  0  0.122936  0.135445  0  3.986226  0
C  C39  1  0.31285108  0.59237070  0.78636824  1  0  0.14962  0  3.757268  0  0  0.138962  0  4.001736  0  0  0.144342  0  4.022897  0  0  0.123004  0.135496  0  3.986496  0
C  C40  1  0.04861578  0.16967021  0.14937020  1  0  -0.111027  0  3.709884  0  0  -0.123954  0  3.9665  0  0  -0.131311  0  3.988324  0  0  -0.076007  -0.118014  0  3.950999  0
C  C41  1  0.95138290  0.83032812  0.85063084  1  0  -0.111105  0  3.709944  0  0  -0.124075  0  3.966633  0  0  -0.13143  0  3.988457  0  0  -0.07607  -0.118134  0  3.95113  0
C  C42  1  0.99397161  0.27362807  0.04701499  1  0  -0.02993  0  3.681625  0  0  -0.061249  0  3.942192  0  0  -0.058634  0  3.959957  0  0  -0.061129  -0.063208  0  3.930147  0
C  C43  1  0.00602696  0.72637233  0.95298277  1  0  -0.02985  0  3.681659  0  0  -0.06116  0  3.942218  0  0  -0.058547  0  3.959984  0  0  -0.061085  -0.063118  0  3.93017  0
C  C44  1  0.51568765  0.44794232  0.35657566  1  0  0.150372  0  3.703122  0  0  0.115099  0  3.967937  0  0  0.123481  0  3.984637  0  0  0.058972  0.109294  0  3.956611  0
C  C45  1  0.48431951  0.55205613  0.64342838  1  0  0.150284  0  3.703079  0  0  0.115021  0  3.96789  0  0  0.123403  0  3.984588  0  0  0.058912  0.109211  0  3.956561  0
C  C46  1  0.26780612  0.14473478  0.76318158  1  0  0.17894  0  3.760875  0  0  0.175142  0  4.028932  0  0  0.187026  0  4.046031  0  0  0.12164  0.166962  0  4.018129  0
C  C47  1  0.73219346  0.85526679  0.23682197  1  0  0.178944  0  3.76096  0  0  0.175234  0  4.028871  0  0  0.187119  0  4.045969  0  0  0.121643  0.167054  0  4.018075  0
C  C48  1  0.45917824  0.56834446  0.26612099  1  0  -0.122427  0  3.711188  0  0  -0.135616  0  3.971622  0  0  -0.142968  0  3.992716  0  0  -0.080903  -0.130777  0  3.957496  0
C  C49  1  0.54082463  0.43165505  0.73388476  1  0  -0.122323  0  3.711256  0  0  -0.135551  0  3.971691  0  0  -0.142897  0  3.992789  0  0  -0.080869  -0.13071  0  3.957562  0
C  C50  1  0.63454293  0.52437094  0.11580207  1  0  -0.032407  0  3.748674  0  0  -0.021382  0  3.984882  0  0  -0.025741  0  4.008401  0  0  0.001949  -0.017892  0  3.968658  0
C  C51  1  0.36546179  0.47563380  0.88419931  1  0  -0.032456  0  3.748662  0  0  -0.021481  0  3.98498  0  0  -0.025842  0  4.008502  0  0  0.001841  -0.017992  0  3.968757  0
C  C52  1  0.87205401  0.35424070  0.06530416  1  0  -0.037272  0  3.747961  0  0  -0.025814  0  3.982433  0  0  -0.03067  0  4.007311  0  0  0.001825  -0.022198  0  3.965774  0
C  C53  1  0.12794880  0.64575973  0.93469421  1  0  -0.037234  0  3.747875  0  0  -0.025841  0  3.982384  0  0  -0.030694  0  4.00726  0  0  0.001836  -0.022226  0  3.965725  0
C  C54  1  0.70097816  0.68895689  0.78125879  1  0  0.081028  0  3.694512  0  0  0.056214  0  3.957131  0  0  0.059047  0  3.973118  0  0  0.057531  0.054835  0  3.945608  0
C  C55  1  0.29902041  0.31104361  0.21874514  1  0  0.081058  0  3.69457  0  0  0.05624  0  3.957195  0  0  0.05907  0  3.973183  0  0  0.057519  0.054859  0  3.945673  0
C  C56  1  0.81034524  0.59855995  0.75482657  1  0  0.08728  0  3.696315  0  0  0.062574  0  3.962493  0  0  0.0655  0  3.978676  0  0  0.059709  0.06096  0  3.950764  0
C  C57  1  0.18965222  0.40144153  0.24517270  1  0  0.087306  0  3.696371  0  0  0.062566  0  3.962579  0  0  0.065499  0  3.978763  0  0  0.059714  0.060952  0  3.950851  0
C  C58  1  0.81117568  0.46806818  0.96310924  1  0  0.122911  0  3.774798  0  0  0.120416  0  4.020497  0  0  0.122638  0  4.042748  0  0  0.118987  0.117703  0  4.007894  0
C  C59  1  0.18882697  0.53193544  0.03688906  1  0  0.122955  0  3.774838  0  0  0.120501  0  4.020484  0  0  0.122727  0  4.042732  0  0  0.118999  0.117792  0  4.007874  0
C  C60  1  0.69710020  0.55490953  0.98883755  1  0  0.122369  0  3.774827  0  0  0.119007  0  4.020354  0  0  0.121553  0  4.042122  0  0  0.11892  0.115989  0  4.007967  0
C  C61  1  0.30290356  0.44509308  0.01116365  1  0  0.122287  0  3.774975  0  0  0.118943  0  4.020475  0  0  0.121486  0  4.042246  0  0  0.118926  0.115923  0  4.008087  0
C  C62  1  0.05889281  0.34552881  0.64883805  1  0  -0.306843  0  3.653524  0  0  -0.33981  0  3.913109  0  0  -0.343956  0  3.916243  0  0  -0.156709  -0.336766  0  3.910379  0
C  C63  1  0.94110464  0.65447271  0.35116386  1  0  -0.306845  0  3.65367  0  0  -0.339764  0  3.913143  0  0  -0.34391  0  3.916277  0  0  -0.156714  -0.336721  0  3.910415  0
C  C64  1  0.97823694  0.14403101  0.26789271  1  0  0.168893  0  3.661491  0  0  0.133045  0  3.9192  0  0  0.141991  0  3.935514  0  0  0.064623  0.126791  0  3.907739  0
C  C65  1  0.02176269  0.85596944  0.73210762  1  0  0.168974  0  3.661497  0  0  0.133129  0  3.919213  0  0  0.142078  0  3.935527  0  0  0.064679  0.126875  0  3.90775  0
C  C66  1  0.42293522  0.95899686  0.88748419  1  0  -0.012227  0  3.721102  0  0  -0.03908  0  3.972758  0  0  -0.033379  0  3.989196  0  0  -0.070094  -0.042107  0  3.961018  0
C  C67  1  0.57706278  0.04099405  0.11251650  1  0  -0.012154  0  3.720919  0  0  -0.039001  0  3.972585  0  0  -0.033301  0  3.989017  0  0  -0.070022  -0.042026  0  3.960851  0
C  C68  1  0.31381944  0.92369706  0.98037275  1  0  -0.139971  0  3.757328  0  0  -0.156594  0  4.015151  0  0  -0.163299  0  4.034241  0  0  -0.100107  -0.152274  0  4.0022  0
C  C69  1  0.68617839  0.07629704  0.01962874  1  0  -0.140114  0  3.757414  0  0  -0.156734  0  4.015269  0  0  -0.163437  0  4.034359  0  0  -0.100243  -0.152414  0  4.002317  0
C  C70  1  0.52032632  0.10191067  0.67680837  1  0  0.64163  0  3.930376  0  0  0.592071  0  4.21744  0  0  0.62669  0  4.212004  0  0  0.193257  0.569277  0  4.219236  0
C  C71  1  0.47966929  0.89808554  0.32319351  1  0  0.641764  0  3.930339  0  0  0.592211  0  4.217371  0  0  0.626835  0  4.211929  0  0  0.193319  0.569419  0  4.219168  0
C  C72  1  0.18529111  0.99986986  0.95655378  1  0  0.128134  0  3.760931  0  0  0.101965  0  4.023021  0  0  0.11038  0  4.038492  0  0  0.039404  0.096457  0  4.012832  0
C  C73  1  0.81470980  0.00012642  0.04345041  1  0  0.128197  0  3.760901  0  0  0.102025  0  4.022984  0  0  0.110439  0  4.038454  0  0  0.03946  0.096518  0  4.012793  0
C  C74  1  0.51965048  0.60615098  0.14498937  1  0  -0.021869  0  3.679728  0  0  -0.056587  0  3.940707  0  0  -0.053606  0  3.958995  0  0  -0.062079  -0.058309  0  3.928099  0
C  C75  1  0.48035461  0.39384639  0.85501424  1  0  -0.021785  0  3.679562  0  0  -0.056486  0  3.940485  0  0  -0.053501  0  3.958756  0  0  -0.062037  -0.058208  0  3.927878  0
S  S76  1  0.24335987  0.29763946  0.63164064  1  0  0.030459  0  2.471406  0  0  0.027314  0  2.818683  0  0  0.022837  0  2.818563  0  0  0.02839  0.030476  0  2.818556  0
S  S77  1  0.75664183  0.70236216  0.36836542  1  0  0.030456  0  2.471596  0  0  0.027275  0  2.818818  0  0  0.022795  0  2.818701  0  0  0.028398  0.03044  0  2.81869  0
N  N78  1  0.62663345  0.37113701  0.33149587  1  0  -0.352958  0  3.243858  0  0  -0.286521  0  3.509371  0  0  -0.305861  0  3.527563  0  0  -0.318561  -0.272912  0  3.496251  0
N  N79  1  0.37337031  0.62886561  0.66850621  1  0  -0.352977  0  3.24382  0  0  -0.28652  0  3.509332  0  0  -0.30586  0  3.527525  0  0  -0.318552  -0.272911  0  3.496215  0
N  N80  1  0.86204031  0.21825810  0.28646945  1  0  -0.359571  0  3.242432  0  0  -0.29134  0  3.506778  0  0  -0.311553  0  3.525574  0  0  -0.321129  -0.276431  0  3.492937  0
N  N81  1  0.13796032  0.78174346  0.71353315  1  0  -0.359577  0  3.242446  0  0  -0.291365  0  3.506767  0  0  -0.311579  0  3.52556  0  0  -0.321148  -0.276456  0  3.492924  0
N  N82  1  0.64381633  0.66673968  0.89666602  1  0  -0.291914  0  3.063644  0  0  -0.260007  0  3.329908  0  0  -0.268876  0  3.346043  0  0  -0.296257  -0.254712  0  3.320225  0
N  N83  1  0.35618642  0.33326189  0.10333645  1  0  -0.291937  0  3.06369  0  0  -0.260036  0  3.32996  0  0  -0.268908  0  3.346103  0  0  -0.296256  -0.254739  0  3.320277  0
N  N84  1  0.86614912  0.49038364  0.84431746  1  0  -0.288333  0  3.053827  0  0  -0.256735  0  3.318381  0  0  -0.265415  0  3.334924  0  0  -0.29491  -0.251248  0  3.308269  0
N  N85  1  0.13385046  0.50961787  0.15568256  1  0  -0.288376  0  3.05379  0  0  -0.256781  0  3.318345  0  0  -0.265467  0  3.334887  0  0  -0.294922  -0.251296  0  3.308232  0
N  N86  1  0.16214554  0.10882429  0.85182372  1  0  -0.354178  0  3.107034  0  0  -0.313463  0  3.373095  0  0  -0.328032  0  3.388126  0  0  -0.325486  -0.30356  0  3.363635  0
N  N87  1  0.83785510  0.89117729  0.14818065  1  0  -0.35418  0  3.107052  0  0  -0.313492  0  3.3731  0  0  -0.328059  0  3.388129  0  0  -0.325487  -0.303587  0  3.363639  0
O  O88  1  0.99572687  0.17357713  0.55346995  1  0  -0.664487  0  1.995852  0  0  -0.596394  0  2.228215  0  0  -0.625144  0  2.219499  0  0  -0.321044  -0.576451  0  2.233883  0
O  O89  1  0.00428007  0.82642542  0.44652664  1  0  -0.66433  0  1.99593  0  0  -0.596322  0  2.228391  0  0  -0.625076  0  2.219672  0  0  -0.320983  -0.576379  0  2.234055  0
O  O90  1  0.75101935  0.94015906  0.50912916  1  0  -0.850906  0  1.915044  0  0  -0.7886  0  2.125331  0  0  -0.812249  0  2.089646  0  0  -0.59165  -0.772214  0  2.150047  0
O  O91  1  0.24897917  0.05984245  0.49087180  1  0  -0.850979  0  1.914916  0  0  -0.788637  0  2.12537  0  0  -0.812307  0  2.089643  0  0  -0.591672  -0.77226  0  2.150079  0
O  O92  1  0.83467613  0.34167413  0.56768622  1  0  -0.635747  0  1.923419  0  0  -0.575631  0  2.160345  0  0  -0.604574  0  2.151545  0  0  -0.332946  -0.555493  0  2.165496  0
O  O93  1  0.16532472  0.65832320  0.43231677  1  0  -0.635755  0  1.923314  0  0  -0.575652  0  2.160229  0  0  -0.604596  0  2.151428  0  0  -0.332973  -0.555516  0  2.165383  0
O  O94  1  0.64657400  0.08844812  0.71029722  1  0  -0.60851  0  1.903469  0  0  -0.550868  0  2.129207  0  0  -0.578578  0  2.121775  0  0  -0.32112  -0.530903  0  2.13328  0
O  O95  1  0.35342193  0.91154164  0.28969950  1  0  -0.608531  0  1.903374  0  0  -0.550903  0  2.129123  0  0  -0.578608  0  2.121675  0  0  -0.321088  -0.53093  0  2.133182  0
O  O96  1  0.48919380  0.14196960  0.56061514  1  0  -0.658592  0  2.015176  0  0  -0.582411  0  2.242872  0  0  -0.612432  0  2.233792  0  0  -0.322139  -0.561326  0  2.247886  0
O  O97  1  0.51079677  0.85804244  0.43938488  1  0  -0.658661  0  2.015221  0  0  -0.582466  0  2.242887  0  0  -0.61249  0  2.23381  0  0  -0.322187  -0.561381  0  2.2479  0
