# generated using pymatgen
data_Hf3H10C50(NO)16
_symmetry_space_group_name_H-M   'P 1'
_cell_length_a   15.28019967
_cell_length_b   17.68092959
_cell_length_c   17.68743224
_cell_angle_alpha   88.14655212
_cell_angle_beta   89.98068192
_cell_angle_gamma   89.98509284
_symmetry_Int_Tables_number   1
_chemical_formula_structural   Hf3H10C50(NO)16
_chemical_formula_sum   'Hf6 H20 C100 N32 O32'
_cell_volume   4776.08011779
_cell_formula_units_Z   2
loop_
 _symmetry_equiv_pos_site_id
 _symmetry_equiv_pos_as_xyz
  1  'x, y, z'
loop_
 _atom_site_type_symbol
 _atom_site_label
 _atom_site_symmetry_multiplicity
 _atom_site_fract_x
 _atom_site_fract_y
 _atom_site_fract_z
 _atom_site_occupancy
 _atom_site_pbe_bader_charge
 _atom_site_pbe_bader_spin_density
 _atom_site_pbe_cm5_charge
 _atom_site_pbe_ddec_charge
 _atom_site_pbe_ddec_spin_density
 _atom_site_pbe_ddec_sum_bond_order
 _atom_site_pbe_magmom
Hf  Hf0  1  0.99503822  0.14057766  0.99820530  1  2.617405  0  1.461542  2.15736  0  3.325967  0
Hf  Hf1  1  0.99142160  0.99566828  0.14242897  1  2.608317  0  1.439454  2.144101  0  3.398554  0
Hf  Hf2  1  0.99264781  0.00406419  0.85714807  1  2.618362  0  1.463181  2.157276  0  3.318454  0
Hf  Hf3  1  0.99383430  0.86043171  0.99927860  1  2.611277  0  1.45641  2.156371  0  3.363636  0
Hf  Hf4  1  0.15554724  0.99991775  0.99935052  1  2.620131  0  1.482211  2.120695  0  3.326961  0
Hf  Hf5  1  0.83141576  0.00056759  0.99888588  1  2.6193  0  1.487175  2.11421  0  3.340452  0
H  H6  1  0.86950685  0.11497729  0.10882575  1  0.60147  0  0.336015  0.424246  0  0.846994  0
H  H7  1  0.11001942  0.88365905  0.12113441  1  0.605928  0  0.330801  0.422229  0  0.857199  0
H  H8  1  0.86989204  0.88485892  0.88844010  1  0.616694  0  0.334666  0.424132  0  0.850875  0
H  H9  1  0.11756854  0.11413065  0.88193796  1  0.594482  0  0.334778  0.418443  0  0.856475  0
H  H10  1  0.95748127  0.88419820  0.24536437  1  0.595042  0  0.283728  0.396833  0  0.924829  0
H  H11  1  0.93704187  0.75372509  0.11000651  1  0.654249  0  0.354837  0.444283  0  0.822086  0
H  H12  1  0.02945320  0.75491658  0.89770769  1  0.602692  0  0.314765  0.408891  0  0.880154  0
H  H13  1  0.99061086  0.85000670  0.83522617  1  0.650396  0  0.294708  0.408248  0  0.93101  0
H  H14  1  0.95544288  0.11587690  0.75296624  1  0.609218  0  0.292705  0.393324  0  0.930943  0
H  H15  1  0.99131016  0.16875678  0.84516402  1  0.638575  0  0.292464  0.405634  0  0.933013  0
H  H16  1  0.03494704  0.24378177  0.10128127  1  0.605606  0  0.314336  0.407775  0  0.882252  0
H  H17  1  0.99165806  0.14979422  0.16338818  1  0.648436  0  0.294854  0.407259  0  0.931545  0
H  H18  1  0.03783604  0.88411228  0.75991212  1  0.644694  0  0.314055  0.404925  0  0.909468  0
H  H19  1  0.03530544  0.24625219  0.87436789  1  0.636816  0  0.308929  0.398449  0  0.923155  0
H  H20  1  0.03479571  0.11510692  0.24028727  1  0.637775  0  0.317267  0.408166  0  0.901916  0
H  H21  1  0.04156978  0.74775505  0.12216839  1  0.657809  0  0.31922  0.412078  0  0.909175  0
H  H22  1  0.65675286  0.50075030  0.99338507  1  0.07394  0  0.11689  0.122385  0  0.989847  0
H  H23  1  0.33517130  0.49956757  0.99601023  1  0.073157  0  0.114302  0.116621  0  1.002797  0
H  H24  1  0.65389151  0.99853611  0.49819640  1  0.123521  0  0.116633  0.120625  0  0.993582  0
H  H25  1  0.33246068  0.99817456  0.49910113  1  0.099342  0  0.115883  0.119018  0  0.996275  0
C  C26  1  0.20537766  0.17634981  0.00158085  1  1.612877  0  0.244724  0.623815  0  4.134991  0
C  C27  1  0.77965837  0.99576038  0.17308549  1  1.654225  0  0.245449  0.62243  0  4.135289  0
C  C28  1  0.20628391  0.00225459  0.17235969  1  1.629052  0  0.243497  0.614814  0  4.141453  0
C  C29  1  0.78329616  0.17511482  0.98882663  1  1.643247  0  0.244194  0.62035  0  4.146297  0
C  C30  1  0.78321956  0.00453629  0.82219743  1  1.628426  0  0.247858  0.627049  0  4.123593  0
C  C31  1  0.20542943  0.82423898  0.99416079  1  1.641842  0  0.243707  0.621282  0  4.143077  0
C  C32  1  0.77989253  0.82640797  0.00968275  1  1.662769  0  0.243891  0.619788  0  4.156583  0
C  C33  1  0.20406751  0.99884574  0.82329946  1  1.602174  0  0.244479  0.621304  0  4.132255  0
C  C34  1  0.54242635  0.43076415  0.99388391  1  0.081504  0  0.010985  0.048058  0  3.951531  0
C  C35  1  0.45007958  0.43043930  0.99477391  1  -0.049083  0  0.008532  0.041492  0  3.952908  0
C  C36  1  0.40634695  0.49984975  0.99564156  1  0.039173  0  -0.065549  -0.130347  0  3.920093  0
C  C37  1  0.44938795  0.56951577  0.99625443  1  0.082381  0  0.007147  0.0402  0  3.95616  0
C  C38  1  0.54177141  0.56980156  0.99567945  1  -0.076259  0  0.009949  0.046245  0  3.956963  0
C  C39  1  0.58553797  0.50048622  0.99404603  1  0.053571  0  -0.063888  -0.130436  0  3.909521  0
C  C40  1  0.53912684  0.99704798  0.42904735  1  0.076563  0  0.010183  0.045788  0  3.949503  0
C  C41  1  0.44673446  0.99784700  0.42921529  1  -0.049002  0  0.00936  0.043678  0  3.948979  0
C  C42  1  0.40365535  0.99836788  0.49889871  1  0.017952  0  -0.064901  -0.130763  0  3.918265  0
C  C43  1  0.44718555  0.99934070  0.56834709  1  0.024283  0  0.009246  0.043417  0  3.949468  0
C  C44  1  0.53958901  0.00039239  0.56810514  1  0.050061  0  0.009346  0.043812  0  3.950722  0
C  C45  1  0.58269151  0.99862176  0.49844408  1  -0.057651  0  -0.06346  -0.129186  0  3.911433  0
C  C46  1  0.71521665  0.00540585  0.76035141  1  0.114034  0  0.035881  -0.044795  0  3.846689  0
C  C47  1  0.64677907  0.95261755  0.76000247  1  0.112852  0  0.044707  0.045927  0  3.972597  0
C  C48  1  0.58990097  0.94922202  0.69649502  1  0.070215  0  0.037333  0.013927  0  3.986743  0
C  C49  1  0.59596198  0.00289304  0.63612846  1  0.074423  0  0.030387  0.02574  0  3.9218  0
C  C50  1  0.66239047  0.05847119  0.63909293  1  0.133547  0  0.041843  0.021826  0  3.982045  0
C  C51  1  0.72279303  0.05810732  0.69942660  1  0.121519  0  0.044804  0.044868  0  3.993524  0
C  C52  1  0.63308052  0.89966062  0.82140589  1  0.88131  0  0.194083  0.251641  0  3.978852  0
C  C53  1  0.67081522  0.11507715  0.58024501  1  0.845917  0  0.182023  0.218062  0  4.024957  0
C  C54  1  0.79092546  0.11320076  0.69845243  1  0.891312  0  0.202184  0.253669  0  3.983786  0
C  C55  1  0.52983354  0.88787277  0.69277264  1  0.837514  0  0.18254  0.213706  0  4.013958  0
C  C56  1  0.39071278  0.99899254  0.63653638  1  0.02452  0  0.031362  0.024431  0  3.917673  0
C  C57  1  0.32577335  0.94231781  0.64515283  1  0.141023  0  0.042626  0.024902  0  3.986204  0
C  C58  1  0.26608875  0.94316105  0.70591201  1  0.170313  0  0.041837  0.037545  0  3.998343  0
C  C59  1  0.27133472  0.99867003  0.76083510  1  0.13222  0  0.035887  -0.042527  0  3.854902  0
C  C60  1  0.33623919  0.05442827  0.75358750  1  0.107223  0  0.043723  0.043113  0  3.976466  0
C  C61  1  0.39450671  0.05554413  0.69078509  1  0.140576  0  0.038825  0.019075  0  3.986495  0
C  C62  1  0.31812546  0.88375462  0.59196145  1  0.841158  0  0.181036  0.216699  0  4.026771  0
C  C63  1  0.34159973  0.11321659  0.80676566  1  0.856261  0  0.195402  0.254073  0  3.977087  0
C  C64  1  0.45420567  0.11697887  0.68131299  1  0.845523  0  0.181737  0.209991  0  4.014786  0
C  C65  1  0.20028987  0.88615877  0.71176167  1  0.89475  0  0.207422  0.265964  0  3.978968  0
C  C66  1  0.71160768  0.99407437  0.23481702  1  0.103954  0  0.035355  -0.043566  0  3.850724  0
C  C67  1  0.64470780  0.04813081  0.23736016  1  0.109353  0  0.044343  0.044346  0  3.977244  0
C  C68  1  0.58844056  0.05035986  0.30136779  1  0.122164  0  0.037024  0.01539  0  3.990486  0
C  C69  1  0.59474491  0.99530295  0.36046517  1  0.041914  0  0.029817  0.022138  0  3.921932  0
C  C70  1  0.66025847  0.93904332  0.35567155  1  0.136922  0  0.041074  0.023007  0  3.981908  0
C  C71  1  0.71892883  0.93946821  0.29409724  1  0.135184  0  0.046181  0.044996  0  3.991003  0
C  C72  1  0.63299902  0.10338136  0.17765254  1  0.859215  0  0.194785  0.252711  0  3.976408  0
C  C73  1  0.66940889  0.88184500  0.41387691  1  0.824031  0  0.181085  0.219171  0  4.02298  0
C  C74  1  0.78447888  0.88219729  0.29087690  1  0.847242  0  0.201349  0.257531  0  3.982449  0
C  C75  1  0.52887025  0.11191005  0.30690659  1  0.837108  0  0.182013  0.212688  0  4.01719  0
C  C76  1  0.27321357  0.00156433  0.23509700  1  0.083532  0  0.036868  -0.038723  0  3.848958  0
C  C77  1  0.26655845  0.05571868  0.29136230  1  0.113762  0  0.043849  0.040508  0  3.993056  0
C  C78  1  0.32538909  0.05552502  0.35275452  1  0.165738  0  0.042562  0.023535  0  3.983532  0
C  C79  1  0.39043163  0.99885140  0.36094366  1  0.058067  0  0.030661  0.023889  0  3.92009  0
C  C80  1  0.39493427  0.94315774  0.30586354  1  0.10859  0  0.038181  0.017712  0  3.988698  0
C  C81  1  0.33793183  0.94557772  0.24219156  1  0.159203  0  0.043193  0.041152  0  3.974034  0
C  C82  1  0.20008903  0.11228993  0.28686730  1  0.885288  0  0.204892  0.263579  0  3.982074  0
C  C83  1  0.45380205  0.88109754  0.31532271  1  0.819029  0  0.180952  0.209636  0  4.016488  0
C  C84  1  0.34437451  0.88746099  0.18830783  1  0.863588  0  0.195985  0.257566  0  3.97565  0
C  C85  1  0.31670201  0.11281999  0.40726602  1  0.822872  0  0.181993  0.218851  0  4.024499  0
C  C86  1  0.59689518  0.63862026  0.99808715  1  0.074732  0  0.027917  0.019019  0  3.92858  0
C  C87  1  0.66100076  0.65200935  0.94148087  1  0.148188  0  0.039781  0.021861  0  3.990065  0
C  C88  1  0.71677165  0.71539621  0.94423500  1  0.136079  0  0.042564  0.043261  0  3.999585  0
C  C89  1  0.71200255  0.76476931  0.00487179  1  0.082463  0  0.032835  -0.048342  0  3.86624  0
C  C90  1  0.64718147  0.75345534  0.05989896  1  0.128796  0  0.040668  0.040408  0  3.995426  0
C  C91  1  0.59025876  0.69003845  0.05702014  1  0.103314  0  0.035405  0.013275  0  3.999024  0
C  C92  1  0.67119097  0.60117419  0.88111558  1  0.832203  0  0.181165  0.218761  0  4.029307  0
C  C93  1  0.63810283  0.80508393  0.11961914  1  0.858006  0  0.195288  0.250405  0  3.974118  0
C  C94  1  0.52896006  0.67763621  0.11677771  1  0.861696  0  0.180794  0.211708  0  4.017575  0
C  C95  1  0.77368340  0.73374517  0.88248237  1  0.858665  0  0.190489  0.234463  0  3.985163  0
C  C96  1  0.39315063  0.63776627  0.99715900  1  0.035245  0  0.031836  0.025813  0  3.917921  0
C  C97  1  0.39976008  0.69716684  0.94233800  1  0.124368  0  0.040167  0.020809  0  3.981004  0
C  C98  1  0.34245568  0.76061300  0.94343256  1  0.173628  0  0.044058  0.044294  0  3.977277  0
C  C99  1  0.27416200  0.76272160  0.99615344  1  0.077355  0  0.035333  -0.044091  0  3.852269  0
C  C100  1  0.26705631  0.70331084  0.05063472  1  0.115532  0  0.040295  0.030362  0  4.003531  0
C  C101  1  0.32623912  0.64208964  0.05218256  1  0.150443  0  0.042376  0.024026  0  3.987198  0
C  C102  1  0.46058653  0.69285199  0.88161699  1  0.830365  0  0.182453  0.207891  0  4.009635  0
C  C103  1  0.19960442  0.70568983  0.10609540  1  0.916842  0  0.219779  0.287054  0  3.961671  0
C  C104  1  0.31497710  0.58369891  0.10890114  1  0.826676  0  0.18137  0.218865  0  4.026566  0
C  C105  1  0.35444318  0.82041158  0.88839378  1  0.853668  0  0.196455  0.25188  0  3.970004  0
C  C106  1  0.71518831  0.23677462  0.99115879  1  0.027079  0  0.036111  -0.042875  0  3.851258  0
C  C107  1  0.65000868  0.24543439  0.93597813  1  0.159942  0  0.043108  0.043052  0  3.984512  0
C  C108  1  0.59224625  0.30848106  0.93652547  1  0.104754  0  0.03488  0.012267  0  4.000235  0
C  C109  1  0.59840199  0.36230198  0.99328252  1  0.044141  0  0.027344  0.018887  0  3.928597  0
C  C110  1  0.66296120  0.35173567  0.04996112  1  0.143406  0  0.03948  0.01761  0  3.990735  0
C  C111  1  0.71974715  0.28883836  0.04947208  1  0.200731  0  0.045625  0.049704  0  3.994948  0
C  C112  1  0.64127357  0.19187374  0.87791892  1  0.85355  0  0.197258  0.255916  0  3.971264  0
C  C113  1  0.67259296  0.40511866  0.10818462  1  0.84199  0  0.181201  0.222262  0  4.029433  0
C  C114  1  0.77771067  0.27507436  0.11153679  1  0.841973  0  0.187989  0.229954  0  3.993155  0
C  C115  1  0.53039499  0.31812749  0.87678819  1  0.804975  0  0.180649  0.211633  0  4.020206  0
C  C116  1  0.27387699  0.23798262  0.99890555  1  0.121758  0  0.033274  -0.047431  0  3.852583  0
C  C117  1  0.34281357  0.24032545  0.05099729  1  0.112479  0  0.044276  0.044612  0  3.97858  0
C  C118  1  0.40064052  0.30345222  0.05089715  1  0.160044  0  0.039014  0.019099  0  3.983505  0
C  C119  1  0.39402469  0.36202221  0.99522060  1  0.038846  0  0.031009  0.025902  0  3.920058  0
C  C120  1  0.32648181  0.35741771  0.94090890  1  0.156836  0  0.041971  0.022854  0  3.987413  0
C  C121  1  0.26622103  0.29703861  0.94410823  1  0.101264  0  0.041292  0.03666  0  4.003201  0
C  C122  1  0.35443093  0.18146421  0.10709571  1  0.857634  0  0.195249  0.251768  0  3.974865  0
C  C123  1  0.31592757  0.41488927  0.88314923  1  0.829849  0  0.181347  0.218436  0  4.029179  0
C  C124  1  0.19722011  0.29625937  0.89005124  1  0.886296  0  0.208272  0.265782  0  3.983364  0
C  C125  1  0.46194826  0.30867188  0.11113729  1  0.780588  0  0.181781  0.208203  0  4.013024  0
N  N126  1  0.84701364  0.15800333  0.69668925  1  -1.080957  0  -0.261452  -0.298698  0  2.700728  0
N  N127  1  0.48144766  0.83702265  0.68904230  1  -1.017285  0  -0.253548  -0.273114  0  2.709289  0
N  N128  1  0.68019635  0.16015012  0.53118707  1  -1.031186  0  -0.263242  -0.277311  0  2.623517  0
N  N129  1  0.61684242  0.85551942  0.86982904  1  -1.074578  0  -0.268961  -0.311749  0  2.753045  0
N  N130  1  0.50297795  0.16745776  0.67337908  1  -1.041815  0  -0.249545  -0.266251  0  2.689525  0
N  N131  1  0.14560093  0.84019889  0.71658871  1  -1.116017  0  -0.269696  -0.316896  0  2.714799  0
N  N132  1  0.34572152  0.16251393  0.84889686  1  -1.072607  0  -0.269204  -0.311734  0  2.738607  0
N  N133  1  0.30846926  0.83705625  0.54751119  1  -1.042423  0  -0.262333  -0.27564  0  2.621813  0
N  N134  1  0.83763103  0.83503871  0.28728486  1  -1.07214  0  -0.268903  -0.310841  0  2.688977  0
N  N135  1  0.48068745  0.16280468  0.31170991  1  -1.027532  0  -0.253809  -0.273287  0  2.70327  0
N  N136  1  0.67978928  0.83671278  0.46272206  1  -1.015479  0  -0.263948  -0.279426  0  2.623405  0
N  N137  1  0.62007603  0.14911892  0.12994214  1  -1.070571  0  -0.268257  -0.311246  0  2.74853  0
N  N138  1  0.34994497  0.83825398  0.14617470  1  -1.090351  0  -0.273414  -0.317478  0  2.733596  0
N  N139  1  0.30628510  0.15814191  0.45300170  1  -1.029968  0  -0.264463  -0.27881  0  2.623894  0
N  N140  1  0.50160991  0.82991371  0.32327690  1  -1.008722  0  -0.251749  -0.268993  0  2.691169  0
N  N141  1  0.14536860  0.15836565  0.28446913  1  -1.083146  0  -0.26896  -0.316236  0  2.707297  0
N  N142  1  0.47857934  0.66817064  0.16584818  1  -1.047335  0  -0.252892  -0.272251  0  2.690453  0
N  N143  1  0.81594974  0.75404598  0.83070405  1  -1.059283  0  -0.262575  -0.280314  0  2.671267  0
N  N144  1  0.62949201  0.84779202  0.16796407  1  -1.087859  0  -0.263635  -0.305133  0  2.751217  0
N  N145  1  0.68330544  0.55757944  0.83401976  1  -1.046829  0  -0.263883  -0.278377  0  2.624881  0
N  N146  1  0.30121658  0.53494270  0.15343505  1  -1.024806  0  -0.262802  -0.277691  0  2.622587  0
N  N147  1  0.36744146  0.86835521  0.84295069  1  -1.057497  0  -0.262047  -0.302599  0  2.758645  0
N  N148  1  0.14339970  0.70891007  0.15048082  1  -1.139604  0  -0.267363  -0.32339  0  2.763738  0
N  N149  1  0.50909498  0.68977889  0.83077759  1  -1.028516  0  -0.245119  -0.259614  0  2.699554  0
N  N150  1  0.82073131  0.26066740  0.16461341  1  -1.046527  0  -0.264089  -0.280062  0  2.663053  0
N  N151  1  0.47930652  0.32559575  0.82801544  1  -1.013322  0  -0.255121  -0.275142  0  2.695074  0
N  N152  1  0.68398903  0.45091846  0.15326482  1  -1.046943  0  -0.268913  -0.286838  0  2.628702  0
N  N153  1  0.63214477  0.14841461  0.83032443  1  -1.063554  0  -0.267401  -0.310509  0  2.745122  0
N  N154  1  0.14002548  0.29611217  0.84640180  1  -1.091524  0  -0.263686  -0.311576  0  2.741677  0
N  N155  1  0.51099823  0.31314857  0.16140444  1  -0.990766  0  -0.246369  -0.261638  0  2.697894  0
N  N156  1  0.30357271  0.46301702  0.83763483  1  -1.016832  0  -0.26354  -0.277889  0  2.624457  0
N  N157  1  0.36668669  0.13449193  0.15371037  1  -1.067139  0  -0.262239  -0.303901  0  2.755457  0
O  O158  1  0.12723375  0.20065199  0.99986805  1  -1.171705  0  -0.314488  -0.580763  0  2.338684  0
O  O159  1  0.23170785  0.10851850  0.00416484  1  -1.142324  0  -0.310108  -0.539531  0  2.300949  0
O  O160  1  0.85735702  0.99301251  0.19735059  1  -1.154645  0  -0.305583  -0.547876  0  2.342433  0
O  O161  1  0.75315621  0.00053941  0.10515420  1  -1.146222  0  -0.320603  -0.552937  0  2.313937  0
O  O162  1  0.12880527  0.01063304  0.19464817  1  -1.153462  0  -0.295847  -0.533076  0  2.3549  0
O  O163  1  0.23349984  0.99343074  0.10525018  1  -1.155915  0  -0.325803  -0.558292  0  2.311226  0
O  O164  1  0.86099973  0.19897961  0.98742397  1  -1.143329  0  -0.301596  -0.535892  0  2.309719  0
O  O165  1  0.75610271  0.10723067  0.99003823  1  -1.159838  0  -0.325372  -0.555794  0  2.317254  0
O  O166  1  0.99285574  0.20357213  0.09429409  1  -1.227376  0  -0.641787  -0.897866  0  1.992457  0
O  O167  1  0.99227551  0.20717607  0.88943641  1  -1.260167  0  -0.600416  -0.788846  0  2.073705  0
O  O168  1  0.98997560  0.10425853  0.20247093  1  -1.258198  0  -0.596205  -0.786233  0  2.085564  0
O  O169  1  0.00340998  0.91082858  0.21722545  1  -1.207695  0  -0.698357  -0.935113  0  1.863451  0
O  O170  1  0.06341649  0.05643118  0.05606671  1  -1.213177  0  -0.75702  -1.077516  0  2.204233  0
O  O171  1  0.90171198  0.08015589  0.07763729  1  -1.233267  0  -0.646928  -0.954422  0  2.289374  0
O  O172  1  0.86153792  0.00733681  0.79866914  1  -1.158834  0  -0.313763  -0.561536  0  2.32874  0
O  O173  1  0.75620387  0.00009173  0.88983713  1  -1.155121  0  -0.312375  -0.54432  0  2.315687  0
O  O174  1  0.12747866  0.79970137  0.99517029  1  -1.161473  0  -0.311803  -0.57081  0  2.328557  0
O  O175  1  0.23170733  0.89196693  0.99251528  1  -1.150541  0  -0.311176  -0.538378  0  2.314271  0
O  O176  1  0.85742924  0.80184749  0.01682421  1  -1.165054  0  -0.308599  -0.567885  0  2.305946  0
O  O177  1  0.75373161  0.89414831  0.00437088  1  -1.153258  0  -0.314167  -0.536631  0  2.319918  0
O  O178  1  0.12589390  0.99369446  0.80050850  1  -1.157708  0  -0.310852  -0.559881  0  2.333552  0
O  O179  1  0.23170397  0.00468264  0.89042148  1  -1.144915  0  -0.314735  -0.546595  0  2.304357  0
O  O180  1  0.99159030  0.89598487  0.79620063  1  -1.272606  0  -0.598875  -0.791227  0  2.080429  0
O  O181  1  0.99764870  0.10358293  0.79301659  1  -1.231308  0  -0.649752  -0.903114  0  1.948309  0
O  O182  1  0.98886067  0.79649986  0.90360782  1  -1.222491  0  -0.641592  -0.901335  0  2.002538  0
O  O183  1  0.99374448  0.77013395  0.09076877  1  -1.250214  0  -0.577395  -0.779166  0  2.134089  0
O  O184  1  0.90162664  0.91951514  0.92022114  1  -1.245055  0  -0.648436  -0.953724  0  2.293686  0
O  O185  1  0.06306709  0.94266393  0.94148861  1  -1.212037  0  -0.760818  -1.074333  0  2.212404  0
O  O186  1  0.92462931  0.05894223  0.93925054  1  -1.212274  0  -0.758737  -1.066906  0  2.19049  0
O  O187  1  0.08314734  0.91510169  0.08139877  1  -1.249192  0  -0.643254  -0.970476  0  2.285096  0
O  O188  1  0.08623923  0.08129343  0.91772911  1  -1.229059  0  -0.653494  -0.972226  0  2.346985  0
O  O189  1  0.92234393  0.93990078  0.05949050  1  -1.22053  0  -0.753421  -1.079001  0  2.183213  0
