# generated using pymatgen
data_CaH20(C17O4)2
_symmetry_space_group_name_H-M   'P 1'
_cell_length_a   5.10435793
_cell_length_b   10.86862413
_cell_length_c   15.27412191
_cell_angle_alpha   83.06004512
_cell_angle_beta   85.67514651
_cell_angle_gamma   83.11117866
_symmetry_Int_Tables_number   1
_chemical_formula_structural   CaH20(C17O4)2
_chemical_formula_sum   'Ca1 H20 C34 O8'
_cell_volume   833.48987872
_cell_formula_units_Z   1
loop_
 _symmetry_equiv_pos_site_id
 _symmetry_equiv_pos_as_xyz
  1  'x, y, z'
loop_
 _atom_site_type_symbol
 _atom_site_label
 _atom_site_symmetry_multiplicity
 _atom_site_fract_x
 _atom_site_fract_y
 _atom_site_fract_z
 _atom_site_occupancy
 _atom_site_pbe_bader_charge
 _atom_site_pbe_bader_spin_density
 _atom_site_pbe_cm5_charge
 _atom_site_pbe_ddec_charge
 _atom_site_pbe_ddec_spin_density
 _atom_site_pbe_ddec_sum_bond_order
 _atom_site_pbe_magmom
Ca  Ca0  1  0.00000000  0.00000000  0.00000000  1  1.64627  0  0.916344  1.38802  0  1.551086  0
H  H1  1  0.97192112  0.72978863  0.48041121  1  0.043549  0  0.10224  0.104901  0  1.009394  0
H  H2  1  0.02807963  0.27021178  0.51958858  1  0.043548  0  0.10224  0.1049  0  1.009397  0
H  H3  1  0.51984679  0.25365148  0.59506280  1  0.058274  0  0.096776  0.100132  0  1.011942  0
H  H4  1  0.48015418  0.74634799  0.40493706  1  0.058282  0  0.096769  0.1001  0  1.011949  0
H  H5  1  0.68225423  0.13686797  0.73568999  1  0.091392  0  0.106761  0.109043  0  0.998663  0
H  H6  1  0.31774477  0.86313151  0.26431057  1  0.091397  0  0.106774  0.109067  0  0.998627  0
H  H7  1  0.02019319  0.31328249  0.88166970  1  0.108958  0  0.11296  0.11269  0  0.994357  0
H  H8  1  0.97980756  0.68671792  0.11833008  1  0.108948  0  0.11299  0.112732  0  0.994361  0
H  H9  1  0.86900618  0.43743547  0.74349541  1  0.064444  0  0.100804  0.102266  0  1.02313  0
H  H10  1  0.13099478  0.56256400  0.25650511  1  0.06445  0  0.100785  0.102243  0  1.023136  0
H  H11  1  0.52228231  0.51108048  0.66171601  1  0.079662  0  0.099703  0.10004  0  1.036832  0
H  H12  1  0.47771647  0.48891992  0.33828383  1  0.07965  0  0.099723  0.100079  0  1.036841  0
H  H13  1  0.63883948  0.62036625  0.78467126  1  0.096888  0  0.106869  0.108831  0  1.012858  0
H  H14  1  0.36115952  0.37963322  0.21532930  1  0.096803  0  0.106867  0.108864  0  1.012821  0
H  H15  1  0.95461228  0.88749596  0.74669042  1  0.102854  0  0.110817  0.111438  0  1.00273  0
H  H16  1  0.04538672  0.11250352  0.25330949  1  0.102854  0  0.110818  0.111433  0  1.002733  0
H  H17  1  0.83362399  0.77793642  0.62405695  1  0.069815  0  0.100744  0.103609  0  1.008462  0
H  H18  1  0.16637480  0.22206399  0.37594223  1  0.069826  0  0.100754  0.103634  0  1.008416  0
H  H19  1  0.60901930  0.81575740  0.94405746  1  0.648968  0  0.311445  0.366646  0  0.976068  0
H  H20  1  0.39098166  0.18424207  0.05594305  1  0.648967  0  0.311445  0.366643  0  0.976067  0
C  C21  1  0.97944483  0.62828976  0.49018941  1  0.019751  0  -0.087148  -0.173862  0  3.974644  0
C  C22  1  0.02055614  0.37170971  0.50981046  1  0.019761  0  -0.087177  -0.173911  0  3.974631  0
C  C23  1  0.08026524  0.56374562  0.56784368  1  -0.048256  0  -0.003759  0.027614  0  3.967191  0
C  C24  1  0.91973770  0.43625386  0.43215614  1  -0.048245  0  -0.003702  0.027724  0  3.967101  0
C  C25  1  0.09894436  0.43159951  0.57790139  1  -0.013368  0  -0.002518  0.030609  0  3.966572  0
C  C26  1  0.90105835  0.56840090  0.42209835  1  -0.013373  0  -0.002505  0.030614  0  3.966604  0
C  C27  1  0.18554252  0.35478943  0.65995394  1  0.026493  0  -0.005517  0.073939  0  4.010886  0
C  C28  1  0.81445385  0.64521284  0.34004579  1  0.02657  0  -0.005508  0.073994  0  4.010935  0
C  C29  1  0.40974638  0.26622738  0.65798344  1  -0.092477  0  -0.096279  -0.148323  0  3.992389  0
C  C30  1  0.59025459  0.73377210  0.34201643  1  -0.092518  0  -0.096305  -0.14833  0  3.992478  0
C  C31  1  0.50055166  0.20080930  0.73602805  1  -0.036358  0  -0.080088  -0.081248  0  3.984426  0
C  C32  1  0.49944930  0.79919018  0.26397247  1  -0.03636  0  -0.080096  -0.081247  0  3.984447  0
C  C33  1  0.36231938  0.21897767  0.81711007  1  -0.004014  0  -0.014862  -0.05017  0  3.975609  0
C  C34  1  0.63768158  0.78102181  0.18289045  1  -0.003994  0  -0.014898  -0.050303  0  3.975699  0
C  C35  1  0.13021984  0.30199386  0.81877744  1  -0.040894  0  -0.074134  -0.071764  0  3.96999  0
C  C36  1  0.86978309  0.69800562  0.18122238  1  -0.04086  0  -0.074141  -0.071755  0  3.970011  0
C  C37  1  0.04554372  0.37050817  0.74125864  1  -0.088105  0  -0.087558  -0.129448  0  3.976367  0
C  C38  1  0.95445483  0.62949317  0.25874177  1  -0.088231  0  -0.087541  -0.129446  0  3.976418  0
C  C39  1  0.46818123  0.15574383  0.90163736  1  1.584126  0  0.238317  0.614459  0  4.188328  0
C  C40  1  0.53181755  0.84425658  0.09836247  1  1.584143  0  0.238345  0.614532  0  4.18825  0
C  C41  1  0.16562048  0.63452516  0.63553812  1  -0.047912  0  -0.001482  0.080919  0  3.984181  0
C  C42  1  0.83437830  0.36547525  0.36446171  1  -0.047903  0  -0.001487  0.080855  0  3.984185  0
C  C43  1  0.39617467  0.59292978  0.68049712  1  0.001996  0  -0.089217  -0.131657  0  3.97849  0
C  C44  1  0.60382410  0.40707063  0.31950337  1  0.001922  0  -0.089238  -0.131688  0  3.978552  0
C  C45  1  0.46283576  0.65396746  0.74900749  1  -0.025506  0  -0.081569  -0.083864  0  3.983905  0
C  C46  1  0.53716477  0.34603388  0.25099157  1  -0.02536  0  -0.081591  -0.083955  0  3.983878  0
C  C47  1  0.30169983  0.75945137  0.77399173  1  -0.007879  0  -0.019467  -0.06006  0  3.994448  0
C  C48  1  0.69829916  0.24054810  0.22600949  1  -0.008341  0  -0.019439  -0.059981  0  3.994444  0
C  C49  1  0.07896165  0.80572660  0.72669562  1  -0.033005  0  -0.077877  -0.076493  0  3.976379  0
C  C50  1  0.92103735  0.19427288  0.27330495  1  -0.032535  0  -0.0779  -0.076521  0  3.976446  0
C  C51  1  0.01322344  0.74436201  0.65797605  1  -0.107642  0  -0.090993  -0.140533  0  3.983411  0
C  C52  1  0.98677753  0.25563747  0.34202381  1  -0.107656  0  -0.090987  -0.140506  0  3.983372  0
C  C53  1  0.35741081  0.81953267  0.85164116  1  1.540508  0  0.251541  0.612332  0  4.109917  0
C  C54  1  0.64258820  0.18046680  0.14835875  1  1.54053  0  0.251572  0.612363  0  4.109815  0
O  O55  1  0.30390197  0.14964267  0.97072463  1  -1.243438  0  -0.370273  -0.647154  0  2.281195  0
O  O56  1  0.69609878  0.85035774  0.02927516  1  -1.243446  0  -0.370294  -0.647153  0  2.281156  0
O  O57  1  0.70900519  0.11451479  0.90248920  1  -1.199055  0  -0.357799  -0.60658  0  2.230169  0
O  O58  1  0.29099555  0.88548561  0.09751125  1  -1.199055  0  -0.357778  -0.606579  0  2.230153  0
O  O59  1  0.19965513  0.90402590  0.88046494  1  -1.205263  0  -0.34485  -0.577424  0  2.227167  0
O  O60  1  0.80034388  0.09597358  0.11953497  1  -1.205265  0  -0.344873  -0.577472  0  2.227105  0
O  O61  1  0.58182401  0.77526662  0.88729459  1  -1.167637  0  -0.311773  -0.474926  0  2.301339  0
O  O62  1  0.41817500  0.22473285  0.11270532  1  -1.167648  0  -0.311776  -0.474918  0  2.301342  0
