# generated using pymatgen
data_NiH18C19(NO2)3
_symmetry_space_group_name_H-M   'P 1'
_cell_length_a   9.67461189
_cell_length_b   10.10217963
_cell_length_c   10.69043238
_cell_angle_alpha   66.84937512
_cell_angle_beta   87.53748802
_cell_angle_gamma   87.40994427
_symmetry_Int_Tables_number   1
_chemical_formula_structural   NiH18C19(NO2)3
_chemical_formula_sum   'Ni2 H36 C38 N6 O12'
_cell_volume   959.34806356
_cell_formula_units_Z   2
loop_
 _symmetry_equiv_pos_site_id
 _symmetry_equiv_pos_as_xyz
  1  'x, y, z'
loop_
 _atom_site_type_symbol
 _atom_site_label
 _atom_site_symmetry_multiplicity
 _atom_site_fract_x
 _atom_site_fract_y
 _atom_site_fract_z
 _atom_site_occupancy
 _atom_site_hle17_ddec_charge
 _atom_site_hle17_ddec_spin_density
 _atom_site_hle17_ddec_sum_bond_order
 _atom_site_hle17_magmom
 _atom_site_hse06_10hf_ddec_charge
 _atom_site_hse06_10hf_ddec_spin_density
 _atom_site_hse06_10hf_ddec_sum_bond_order
 _atom_site_hse06_10hf_magmom
 _atom_site_hse06_ddec_charge
 _atom_site_hse06_ddec_spin_density
 _atom_site_hse06_ddec_sum_bond_order
 _atom_site_hse06_magmom
 _atom_site_pbe_cm5_charge
 _atom_site_pbe_ddec_charge
 _atom_site_pbe_ddec_spin_density
 _atom_site_pbe_ddec_sum_bond_order
 _atom_site_pbe_magmom
Ni  Ni0  1  0.99999726  0.99999800  0.49999868  1  0.817435  -0.090993  2.201012  0.0  0.829349  -0.109332  2.597323  -0.014  0.921272  -0.117705  2.518042  -0.015  0.643977  0.76509  -0.0728  2.654804  0.013
Ni  Ni1  1  0.00000161  0.49999883  0.50000138  1  0.979092  1.869503  1.817086  1.535  1.004745  1.938013  2.192651  1.66  1.089862  1.992068  2.123525  1.741  0.603514  0.931567  1.88512  2.26057  1.586
H  H2  1  0.06962855  0.58868872  0.07194531  1  0.096688  0.000179  0.95421  0.0  0.106414  0.000133  1.016744  0.0  0.109994  8.3e-05  1.014498  0.0  0.101736  0.103809  0.000174  1.01848  0.0
H  H3  1  0.93038069  0.41130214  0.92805972  1  0.096692  0.000186  0.954189  0.0  0.106413  0.000133  1.016741  0.0  0.109993  8.4e-05  1.01449  0.0  0.101727  0.103807  0.000174  1.018477  0.0
H  H4  1  0.14864993  0.64894674  0.82908646  1  0.111634  5e-06  0.952576  0.0  0.121418  2.8e-05  1.013749  0.0  0.124788  1.2e-05  1.012006  0.0  0.105159  0.118068  4.7e-05  1.016889  0.0
H  H5  1  0.85135617  0.35104518  0.17091835  1  0.111639  1.1e-05  0.952591  0.0  0.121418  2.8e-05  1.013783  0.0  0.124788  1.1e-05  1.012041  0.0  0.105157  0.118067  4.7e-05  1.016925  0.0
H  H6  1  0.56026392  0.70598418  0.93280817  1  0.077293  5.8e-05  0.984889  0.0  0.084994  3.7e-05  1.056513  0.0  0.08742  2.5e-05  1.056407  0.0  0.091295  0.082604  8.1e-05  1.057783  0.0
H  H7  1  0.43974086  0.29401530  0.06719210  1  0.077319  6.1e-05  0.984828  0.0  0.085024  3.7e-05  1.056438  0.0  0.08745  2.5e-05  1.056332  0.0  0.091287  0.082631  8.1e-05  1.057719  0.0
H  H8  1  0.47877158  0.65262716  0.17253500  1  0.101185  -1.1e-05  0.94252  0.0  0.112578  -7e-06  0.999022  0.0  0.116067  -4e-06  0.996663  0.0  0.103315  0.11011  -1.6e-05  1.000767  0.0
H  H9  1  0.52123629  0.34737235  0.82746417  1  0.101231  -1.2e-05  0.942274  0.0  0.112597  -7e-06  0.998827  0.0  0.116088  -5e-06  0.996465  0.0  0.10329  0.110129  -1.6e-05  1.000572  0.0
H  H10  1  0.51103793  0.70245881  0.70434315  1  0.088133  -1e-05  0.915048  0.0  0.103781  8e-06  0.974501  0.0  0.104362  1e-06  0.974538  0.0  0.114873  0.103277  3e-06  0.974593  0.0
H  H11  1  0.48896366  0.29754177  0.29565408  1  0.088076  -9e-06  0.9151  0.0  0.103748  8e-06  0.974521  0.0  0.104327  1e-06  0.974561  0.0  0.114855  0.103244  3e-06  0.974614  0.0
H  H12  1  0.33457410  0.70831657  0.65657233  1  0.11496  0.000446  0.933202  0.0  0.127107  0.000553  0.993736  0.0  0.130175  0.000385  0.990641  0.0  0.120014  0.124555  0.000805  0.996463  0.0
H  H13  1  0.66542559  0.29168072  0.34342993  1  0.114954  0.00045  0.933192  0.0  0.127098  0.000553  0.99372  0.0  0.130164  0.000385  0.990629  0.0  0.120016  0.124549  0.000805  0.996449  0.0
H  H14  1  0.61410856  0.89659304  0.70028860  1  0.081566  -6e-05  0.977772  0.0  0.086143  -0.0  1.053946  0.0  0.08871  -1e-06  1.051664  0.0  0.118839  0.085056  1.5e-05  1.054516  0.0
H  H15  1  0.38588997  0.10340748  0.29971161  1  0.081523  -5.8e-05  0.977821  0.0  0.086089  0.0  1.054055  0.0  0.088653  -1e-06  1.05177  0.0  0.118821  0.085001  1.5e-05  1.054625  0.0
H  H16  1  0.61381475  0.16447106  0.64640744  1  0.125764  1.7e-05  0.983131  0.0  0.129  4.8e-05  1.053009  0.0  0.133481  3e-05  1.05111  0.0  0.1059  0.125637  6.1e-05  1.054796  0.0
H  H17  1  0.38617960  0.83553157  0.35359409  1  0.125713  2.3e-05  0.983244  0.0  0.128948  4.8e-05  1.053126  0.0  0.133447  3e-05  1.051207  0.0  0.105855  0.125585  6.1e-05  1.054913  0.0
H  H18  1  0.38830848  0.30343282  0.58892108  1  0.12299  2.2e-05  0.913281  0.0  0.136338  1e-05  0.963575  0.0  0.140415  7e-06  0.958794  0.0  0.121108  0.132958  0.000196  0.967583  0.0
H  H19  1  0.61168480  0.69656880  0.41107620  1  0.123016  1e-05  0.913345  0.0  0.136351  1e-05  0.963643  0.0  0.140428  7e-06  0.958861  0.0  0.121108  0.132971  0.000196  0.967652  0.0
H  H20  1  0.11035697  0.30812014  0.27163995  1  0.12404  0.000121  0.951764  0.0  0.131503  0.00021  1.011572  0.0  0.134132  0.000149  1.010576  0.0  0.123159  0.129217  -0.000456  1.012952  -0.001
H  H21  1  0.88964795  0.69187712  0.72836579  1  0.123969  0.000119  0.95187  0.0  0.131464  0.00021  1.011637  0.0  0.134069  0.000148  1.01068  0.0  0.123154  0.129178  -0.000456  1.013013  -0.001
H  H22  1  0.19266551  0.31635707  0.01611611  1  0.120745  0.000351  0.946122  0.0  0.135243  0.000313  0.997299  0.0  0.137409  0.000236  0.996976  0.0  0.128445  0.133359  -0.000598  0.998243  0.0
H  H23  1  0.80734433  0.68364776  0.98388665  1  0.120793  0.000358  0.946119  0.0  0.135286  0.000314  0.997302  0.0  0.137453  0.000236  0.996978  0.0  0.128452  0.133402  -0.000598  0.998247  0.0
H  H24  1  0.14623103  0.88266586  0.28906167  1  0.108562  3.1e-05  0.940076  0.0  0.115548  0.000104  1.004595  0.0  0.118241  8.4e-05  1.001337  0.0  0.142294  0.11306  -0.000298  1.007882  0.0
H  H25  1  0.85375482  0.11733798  0.71092770  1  0.108625  3.1e-05  0.939926  0.0  0.11555  0.000104  1.004507  0.0  0.118245  8.4e-05  1.001245  0.0  0.142252  0.11306  -0.000298  1.007795  0.0
H  H26  1  0.24001707  0.92443482  0.05300577  1  0.078954  -3.3e-05  0.929624  0.0  0.094913  -4e-06  0.992777  0.0  0.094825  -5e-06  0.994311  0.0  0.113106  0.094802  -2.7e-05  0.991812  0.0
H  H27  1  0.75997712  0.07557004  0.94698935  1  0.079006  -3e-05  0.929762  0.0  0.094976  -4e-06  0.992843  0.0  0.094892  -5e-06  0.994379  0.0  0.113107  0.094864  -2.7e-05  0.991881  0.0
H  H28  1  0.27068892  0.10247995  0.93413759  1  0.080891  4.3e-05  0.905217  0.0  0.10153  3.6e-05  0.957852  0.0  0.101963  2.1e-05  0.957848  0.0  0.115762  0.101368  -8.2e-05  0.957269  0.0
H  H29  1  0.72930942  0.89752492  0.06585826  1  0.080881  4.3e-05  0.905229  0.0  0.101483  3.6e-05  0.957881  0.0  0.10192  2.1e-05  0.957878  0.0  0.115737  0.101324  -8.2e-05  0.957296  0.0
H  H30  1  0.02262142  0.15438070  0.89354446  1  0.082569  -4.3e-05  0.923015  0.0  0.10111  -2.4e-05  0.981779  0.0  0.101634  -2.8e-05  0.982832  0.0  0.097142  0.100441  -3.9e-05  0.981336  0.0
H  H31  1  0.97737370  0.84562740  0.10644945  1  0.082594  -2.8e-05  0.922911  0.0  0.101121  -2.4e-05  0.981752  0.0  0.101642  -2.8e-05  0.982806  0.0  0.097147  0.100453  -3.9e-05  0.981307  0.0
H  H32  1  0.07334494  0.99475159  0.87087648  1  0.08264  2.2e-05  0.93752  0.0  0.103031  3.4e-05  0.99242  0.0  0.10299  1.9e-05  0.994409  0.0  0.098513  0.102898  -8e-05  0.991317  0.0
H  H33  1  0.92664915  0.00525650  0.12911842  1  0.082605  3.1e-05  0.937608  0.0  0.103096  3.4e-05  0.99244  0.0  0.103058  2e-05  0.994425  0.0  0.098558  0.102961  -8e-05  0.99134  0.0
H  H34  1  0.09670056  0.69973787  0.54007454  1  0.405043  -0.000961  0.901513  -0.002  0.376705  -0.000248  0.968014  0.0  0.387577  -0.000294  0.952276  0.0  0.288164  0.368803  -0.000179  0.979465  0.0
H  H35  1  0.90329403  0.30025933  0.45993269  1  0.405019  -0.000961  0.901536  -0.002  0.376654  -0.000248  0.968101  0.0  0.387526  -0.000294  0.952361  0.0  0.288119  0.368743  -0.000179  0.979571  0.0
H  H36  1  0.21651370  0.61752113  0.49018942  1  0.399453  -0.000814  0.918874  -0.002  0.369593  -0.000147  0.983304  0.0  0.38149  -0.000266  0.966312  0.0  0.277923  0.36105  1.6e-05  0.995393  0.0
H  H37  1  0.78348237  0.38249018  0.50980515  1  0.399435  -0.000814  0.918897  -0.002  0.369582  -0.000147  0.983312  0.0  0.381478  -0.000266  0.966321  0.0  0.2779  0.361039  1.6e-05  0.995399  0.0
C  C38  1  0.21874653  0.59707528  0.27762702  1  0.622859  -0.004914  3.942932  -0.005  0.577437  -0.001118  4.24747  -0.002  0.613461  -0.000997  4.240024  -0.001  0.198287  0.552238  -0.001671  4.251033  -0.002
C  C39  1  0.78125816  0.40292741  0.72237397  1  0.622779  -0.004924  3.942975  -0.005  0.57734  -0.001117  4.247549  -0.002  0.613362  -0.000997  4.240102  -0.001  0.198252  0.55214  -0.001671  4.251111  -0.002
C  C40  1  0.26892447  0.61931672  0.13565376  1  -0.073332  0.005678  3.778654  0.007  -0.051907  0.003002  4.013118  0.004  -0.059869  0.002185  4.036204  0.003  -0.025603  -0.046552  0.003833  3.997859  0.005
C  C41  1  0.73108056  0.38067627  0.86435071  1  -0.073306  0.005719  3.778763  0.007  -0.051877  0.003002  4.013226  0.004  -0.059838  0.002186  4.036312  0.003  -0.025566  -0.046521  0.003834  3.997964  0.005
C  C42  1  0.17699144  0.61465473  0.03967717  1  -0.080112  -0.001582  3.758224  -0.001  -0.103364  -0.000329  4.009771  0.0  -0.1033  -0.000319  4.030306  0.0  -0.090204  -0.103369  -0.000543  3.995996  0.0
C  C43  1  0.82301769  0.38533832  0.96032521  1  -0.080114  -0.001653  3.757929  -0.001  -0.103363  -0.000329  4.009473  0.0  -0.103292  -0.000319  4.030001  0.0  -0.090239  -0.103368  -0.000543  3.995697  0.0
C  C44  1  0.22106407  0.64726196  0.90510431  1  -0.11569  0.000556  3.724654  0.001  -0.136343  0.000104  3.972978  0.0  -0.139135  0.000109  3.993067  0.0  -0.091269  -0.134288  6.2e-05  3.960083  0.0
C  C45  1  0.77893991  0.35273209  0.09490171  1  -0.115645  0.000565  3.72451  0.001  -0.136294  0.000103  3.972842  0.0  -0.139091  0.000109  3.992936  0.0  -0.091201  -0.134238  6.2e-05  3.959945  0.0
C  C46  1  0.35887502  0.68339730  0.86541838  1  0.077477  -0.001619  3.732564  -0.001  0.097579  -0.000506  3.969582  0.0  0.097701  -0.000413  3.993231  0.0  -0.012644  0.09772  -0.000849  3.95303  -0.001
C  C47  1  0.64112886  0.31659787  0.13458349  1  0.077509  -0.001627  3.7325  -0.001  0.097584  -0.000504  3.969556  0.0  0.097706  -0.000411  3.993206  0.0  -0.012676  0.097726  -0.000849  3.953002  -0.001
C  C48  1  0.45210387  0.68157107  0.96295299  1  -0.124954  0.000899  3.773298  0.001  -0.144994  0.00031  4.024411  0.0  -0.148945  0.000246  4.04733  0.0  -0.099011  -0.141678  0.000404  4.008784  0.001
C  C49  1  0.54789985  0.31842738  0.03704396  1  -0.125031  0.000912  3.773453  0.001  -0.14506  0.000308  4.024557  0.0  -0.14901  0.000245  4.047475  0.0  -0.098994  -0.141745  0.000404  4.00893  0.001
C  C50  1  0.40774547  0.65111716  0.09665069  1  -0.080752  -0.000882  3.771062  0.0  -0.102626  -4e-06  4.017856  0.0  -0.102676  -5.3e-05  4.038357  0.0  -0.091388  -0.102328  -0.000126  4.00336  0.0
C  C51  1  0.59226458  0.34888017  0.90335196  1  -0.080775  -0.000916  3.771139  0.0  -0.102631  -2e-06  4.017944  0.0  -0.102681  -5.3e-05  4.038447  0.0  -0.091356  -0.102333  -0.000126  4.003447  0.0
C  C52  1  0.40501789  0.73919451  0.71734097  1  -0.045831  0.000371  3.612663  0.001  -0.113826  0.000414  3.860249  0.001  -0.108341  0.000282  3.867543  0.0  -0.051208  -0.117432  0.000504  3.85563  0.001
C  C53  1  0.59498284  0.26080279  0.28266124  1  -0.045856  0.000364  3.612672  0.001  -0.11384  0.000414  3.860236  0.001  -0.108354  0.000282  3.867528  0.0  -0.051194  -0.117452  0.000505  3.85562  0.001
C  C54  1  0.52134033  0.96565487  0.67118863  1  0.102223  -0.000871  3.679893  -0.001  0.053262  -0.000142  3.946756  0.0  0.066309  -7.4e-05  3.961892  0.0  0.046827  0.043151  -0.000636  3.938558  0.0
C  C55  1  0.47865924  0.03434670  0.32881396  1  0.102239  -0.0008  3.679983  -0.001  0.053264  -0.000141  3.946831  0.0  0.066312  -7.6e-05  3.961974  0.0  0.046903  0.043157  -0.000637  3.938626  0.0
C  C56  1  0.52032937  0.11100437  0.64179107  1  -0.167877  4e-06  3.774638  0.0  -0.189731  -0.000178  4.054343  0.0  -0.20149  -0.000148  4.07307  0.0  -0.110069  -0.181742  0.000384  4.042217  0.001
C  C57  1  0.47966396  0.88899719  0.35820997  1  -0.16783  -7.5e-05  3.774619  0.0  -0.189693  -0.000178  4.054328  0.0  -0.201469  -0.000146  4.073049  0.0  -0.110037  -0.181704  0.000384  4.042202  0.001
C  C58  1  0.39412808  0.18888650  0.60859615  1  0.029687  -0.000954  3.700612  -0.001  -0.001957  -8.4e-05  3.954211  0.0  0.012147  -2.1e-05  3.963926  0.0  -0.058045  -0.011642  -0.000614  3.948162  -0.001
C  C59  1  0.60587072  0.81110544  0.39140528  1  0.029643  -0.000846  3.700433  -0.001  -0.001988  -8.5e-05  3.954005  0.0  0.012118  -2.1e-05  3.963722  0.0  -0.058047  -0.011676  -0.000615  3.947959  -0.001
C  C60  1  0.27354484  0.12368934  0.60019932  1  -0.245641  0.004708  3.716221  0.005  -0.231062  0.002602  3.972819  0.003  -0.250836  0.00184  3.992699  0.002  -0.031487  -0.218022  0.00339  3.959812  0.004
C  C61  1  0.72645578  0.87631014  0.39980024  1  -0.245589  0.004661  3.716061  0.005  -0.230984  0.002603  3.97263  0.003  -0.25076  0.001841  3.992513  0.002  -0.03146  -0.217941  0.00339  3.959619  0.004
C  C62  1  0.27629929  0.97213262  0.62662395  1  0.475737  0.00027  3.809108  0.0  0.42975  0.000628  4.094758  0.001  0.458983  0.000509  4.100758  0.001  0.222122  0.409902  0.000563  4.089961  0.001
C  C63  1  0.72370131  0.02786792  0.37337615  1  0.475732  0.000265  3.80923  0.0  0.429757  0.000627  4.094886  0.001  0.45899  0.000509  4.100886  0.001  0.222153  0.40991  0.000562  4.090087  0.001
C  C64  1  0.14271214  0.21385805  0.56993754  1  0.664442  -0.004716  3.864957  -0.004  0.619163  -0.002303  4.168749  -0.002  0.660458  -0.002003  4.160566  -0.002  0.216256  0.588676  -0.000664  4.173211  -0.002
C  C65  1  0.85728451  0.78613603  0.43006323  1  0.664346  -0.004715  3.864935  -0.004  0.619049  -0.002303  4.168757  -0.002  0.66035  -0.002004  4.160577  -0.002  0.216219  0.588561  -0.000665  4.173214  -0.002
C  C66  1  0.13087475  0.22034444  0.23828302  1  -0.001126  -0.000392  3.708743  0.0  -0.030025  0.000761  3.983342  0.001  -0.026817  0.000272  4.003623  0.0  0.000983  -0.032445  -0.002427  3.970266  -0.002
C  C67  1  0.86912485  0.77965607  0.76171902  1  -0.000987  -0.000334  3.708757  0.0  -0.029903  0.00076  3.983349  0.001  -0.026683  0.000272  4.00364  0.0  0.001019  -0.032323  -0.002427  3.97027  -0.002
C  C68  1  0.17238007  0.22620331  0.11139761  1  -0.081938  0.002242  3.690326  0.003  -0.120528  0.001278  3.947217  0.001  -0.119798  0.001068  3.966483  0.001  -0.000607  -0.120994  -0.002106  3.935491  -0.002
C  C69  1  0.82762253  0.77379939  0.88860161  1  -0.081932  0.002188  3.690368  0.003  -0.120529  0.001278  3.947267  0.001  -0.119797  0.001068  3.966526  0.001  -0.000552  -0.120996  -0.002106  3.935544  -0.002
C  C70  1  0.14868880  0.99898485  0.25251242  1  0.156942  -0.001824  3.644145  -0.001  0.103179  0.000767  3.918446  0.001  0.118447  7.1e-05  3.93115  0.0  0.144132  0.092435  -0.002738  3.910186  -0.002
C  C71  1  0.85130134  0.00101679  0.74748220  1  0.156841  -0.001846  3.644198  -0.001  0.103154  0.000767  3.918475  0.001  0.118423  7.1e-05  3.931173  0.0  0.144145  0.092409  -0.002738  3.910219  -0.002
C  C72  1  0.19666917  0.03521109  0.01115614  1  0.010094  0.000619  3.618532  0.001  -0.053667  0.000469  3.87941  0.001  -0.049007  0.000354  3.890346  0.0  -0.046138  -0.056603  -0.000925  3.871455  -0.001
C  C73  1  0.80332919  0.96479377  0.98884064  1  0.009887  0.000617  3.618761  0.001  -0.053776  0.000469  3.879586  0.001  -0.04913  0.000355  3.890532  0.0  -0.046135  -0.056711  -0.000925  3.871631  -0.001
C  C74  1  0.05607856  0.04095974  0.94810412  1  -0.133698  -8e-06  3.665094  0.0  -0.17597  2e-05  3.931554  0.0  -0.177449  6e-06  3.945536  0.0  -0.162883  -0.174936  -0.000116  3.922326  0.0
C  C75  1  0.94392065  0.95905052  0.05189067  1  -0.133524  -7.6e-05  3.665044  0.0  -0.175983  2.1e-05  3.931575  0.0  -0.177464  5e-06  3.945577  0.0  -0.162942  -0.174949  -0.000116  3.922345  0.0
N  N76  1  0.40491516  0.89876800  0.66509155  1  -0.143484  -0.000553  3.450379  -0.001  -0.043952  -0.000424  3.659722  0.0  -0.064654  -0.000312  3.683598  0.0  -0.227767  -0.03026  0.000491  3.643586  0.001
N  N77  1  0.59508344  0.10123037  0.33490944  1  -0.143419  -0.000589  3.450331  -0.001  -0.043885  -0.000422  3.659663  0.0  -0.064585  -0.000313  3.683534  0.0  -0.227849  -0.030192  0.000491  3.643525  0.001
N  N78  1  0.11544102  0.07749926  0.32501982  1  -0.333611  0.041054  3.308514  0.056  -0.304472  0.029057  3.619924  0.039  -0.334796  0.024424  3.640732  0.034  -0.356309  -0.283659  -0.048031  3.605375  -0.043
N  N79  1  0.88455137  0.92249804  0.67497906  1  -0.333625  0.041055  3.308556  0.056  -0.304508  0.029058  3.619967  0.039  -0.334831  0.024424  3.640772  0.034  -0.356338  -0.283693  -0.048031  3.605417  -0.043
N  N80  1  0.18416832  0.08499931  0.12244093  1  -0.075797  0.000628  3.584135  0.001  0.019427  0.000958  3.80191  0.001  0.004623  0.000659  3.827778  0.001  -0.250031  0.029045  -0.001952  3.784699  -0.002
N  N81  1  0.81582901  0.91500449  0.87755442  1  -0.075815  0.000652  3.584417  0.001  0.01939  0.000958  3.802162  0.001  0.004588  0.000658  3.828032  0.001  -0.250057  0.029006  -0.001952  3.784954  -0.002
O  O82  1  0.09897176  0.54416422  0.31302472  1  -0.610064  0.048281  2.065742  0.077  -0.585845  0.030771  2.334553  0.05  -0.621123  0.02325  2.323447  0.039  -0.316763  -0.556967  0.037957  2.341129  0.06
O  O83  1  0.90103647  0.45582452  0.68697832  1  -0.610008  0.048283  2.065788  0.077  -0.585771  0.03077  2.3346  0.05  -0.621051  0.023251  2.323508  0.039  -0.316703  -0.556897  0.037957  2.341184  0.06
O  O84  1  0.29715784  0.63572422  0.34885895  1  -0.631482  -0.00237  1.957561  -0.002  -0.578781  -0.001399  2.174064  -0.001  -0.60387  -0.001379  2.163639  -0.001  -0.327368  -0.561026  -0.001537  2.180994  -0.001
O  O85  1  0.70284017  0.36429244  0.65113733  1  -0.631528  -0.002365  1.957529  -0.002  -0.578833  -0.0014  2.174036  -0.001  -0.603922  -0.001379  2.163616  -0.001  -0.327461  -0.561074  -0.001537  2.180954  -0.001
O  O86  1  0.17640806  0.89877649  0.62252156  1  -0.535519  -0.001653  2.106436  -0.001  -0.508836  0.000235  2.373216  0.001  -0.539129  0.000233  2.366733  0.001  -0.28818  -0.488276  0.001352  2.378494  0.002
O  O87  1  0.82358662  0.10121645  0.37748347  1  -0.535457  -0.00163  2.106581  -0.001  -0.508854  0.000233  2.373442  0.001  -0.539144  0.000234  2.366961  0.001  -0.2882  -0.488299  0.001351  2.37872  0.002
O  O88  1  0.03404364  0.17218714  0.53191691  1  -0.609311  -0.056407  2.234554  -0.055  -0.572858  -0.038895  2.512262  -0.039  -0.614944  -0.032553  2.501422  -0.032  -0.304242  -0.540265  0.02913  2.518162  0.044
O  O89  1  0.96595500  0.82781016  0.46808446  1  -0.609301  -0.056425  2.234449  -0.055  -0.572886  -0.038901  2.512236  -0.039  -0.614952  -0.032559  2.501347  -0.032  -0.304294  -0.540303  0.029135  2.518151  0.044
O  O90  1  0.14736614  0.60578652  0.56740619  1  -0.784736  0.048753  1.902382  0.075  -0.760951  0.033679  2.09399  0.052  -0.789071  0.025514  2.059603  0.041  -0.58343  -0.738023  0.041757  2.119611  0.061
O  O91  1  0.85263442  0.39421615  0.43259502  1  -0.784723  0.048752  1.902416  0.075  -0.760916  0.03368  2.094017  0.052  -0.789034  0.025515  2.059633  0.041  -0.583368  -0.737988  0.041757  2.119642  0.061
O  O92  1  0.14428880  0.33238746  0.58325772  1  -0.56589  0.036092  2.065708  0.058  -0.542022  0.024907  2.327228  0.041  -0.578053  0.019614  2.316781  0.033  -0.294393  -0.511972  0.039326  2.333249  0.061
O  O93  1  0.85570886  0.66760770  0.41674261  1  -0.565855  0.03609  2.065716  0.058  -0.541982  0.024905  2.327239  0.041  -0.578014  0.019614  2.316792  0.033  -0.294369  -0.511933  0.039324  2.333259  0.061
