# generated using pymatgen
data_CdH12C14(S2N)2
_symmetry_space_group_name_H-M   'P 1'
_cell_length_a   7.30569134
_cell_length_b   14.82245047
_cell_length_c   17.26200000
_cell_angle_alpha   90.95992298
_cell_angle_beta   90.00000000
_cell_angle_gamma   90.00000000
_symmetry_Int_Tables_number   1
_chemical_formula_structural   CdH12C14(S2N)2
_chemical_formula_sum   'Cd4 H48 C56 S16 N8'
_cell_volume   1869.00940209
_cell_formula_units_Z   4
loop_
 _symmetry_equiv_pos_site_id
 _symmetry_equiv_pos_as_xyz
  1  'x, y, z'
loop_
 _atom_site_type_symbol
 _atom_site_label
 _atom_site_symmetry_multiplicity
 _atom_site_fract_x
 _atom_site_fract_y
 _atom_site_fract_z
 _atom_site_occupancy
 _atom_site_hle17_bader_spin_density
 _atom_site_hle17_ddec_charge
 _atom_site_hle17_ddec_spin_density
 _atom_site_hle17_ddec_sum_bond_order
 _atom_site_hle17_magmom
 _atom_site_hse06_10hf_bader_spin_density
 _atom_site_hse06_10hf_ddec_charge
 _atom_site_hse06_10hf_ddec_spin_density
 _atom_site_hse06_10hf_ddec_sum_bond_order
 _atom_site_hse06_10hf_magmom
 _atom_site_hse06_bader_spin_density
 _atom_site_hse06_ddec_charge
 _atom_site_hse06_ddec_spin_density
 _atom_site_hse06_ddec_sum_bond_order
 _atom_site_hse06_magmom
 _atom_site_pbe_bader_charge
 _atom_site_pbe_bader_spin_density
 _atom_site_pbe_cm5_charge
 _atom_site_pbe_ddec_charge
 _atom_site_pbe_ddec_spin_density
 _atom_site_pbe_ddec_sum_bond_order
 _atom_site_pbe_magmom
Cd  Cd0  1  0.75351938  0.52959676  0.53175356  1  0  0.646706  0  2.226068  0  0  0.51474  0  2.667919  0  0  0.551087  0  2.648172  0  0.900695  0  0.474274  0.489363  0  2.681321  0
Cd  Cd1  1  0.25350373  0.97040356  0.96824132  1  0  0.646668  0  2.22601  0  0  0.514657  0  2.667942  0  0  0.55101  0  2.648183  0  0.900661  0  0.474242  0.489277  0  2.681347  0
Cd  Cd2  1  0.24648591  0.47040323  0.46823954  1  0  0.646751  0  2.226057  0  0  0.514753  0  2.667978  0  0  0.551098  0  2.648234  0  0.900751  0  0.474277  0.489377  0  2.681381  0
Cd  Cd3  1  0.74648240  0.02960115  0.03175765  1  0  0.646731  0  2.226045  0  0  0.51472  0  2.667979  0  0  0.551077  0  2.648218  0  0.900914  0  0.474271  0.489373  0  2.68132  0
H  H4  1  0.15289587  0.59639806  0.65155128  1  0  0.262168  0  0.947593  0  0  0.244723  0  1.019607  0  0  0.252087  0  1.01446  0  0.453465  0  0.27921  0.239481  0  1.023422  0
H  H5  1  0.65288688  0.90359213  0.84844809  1  0  0.262188  0  0.947593  0  0  0.244692  0  1.019664  0  0  0.252056  0  1.014513  0  0.453525  0  0.279159  0.239449  0  1.023479  0
H  H6  1  0.84710669  0.40358776  0.34844626  1  0  0.262309  0  0.947512  0  0  0.244802  0  1.019595  0  0  0.252167  0  1.014441  0  0.453354  0  0.279204  0.239556  0  1.023413  0
H  H7  1  0.34710199  0.09641257  0.15155435  1  0  0.262318  0  0.947548  0  0  0.244778  0  1.019664  0  0  0.252146  0  1.014505  0  0.453383  0  0.279173  0.239534  0  1.023481  0
H  H8  1  0.09499443  0.27197701  0.63341198  1  0  0.298374  0  0.850779  0  0  0.291573  0  0.895696  0  0  0.298301  0  0.89122  0  0.454526  0  0.325889  0.286859  0  0.898965  0
H  H9  1  0.59499092  0.22802129  0.86658455  1  0  0.298481  0  0.850704  0  0  0.291677  0  0.895602  0  0  0.298406  0  0.891122  0  0.454922  0  0.325917  0.286963  0  0.898874  0
H  H10  1  0.90500675  0.72802365  0.36657650  1  0  0.298482  0  0.850699  0  0  0.291689  0  0.895573  0  0  0.298419  0  0.891092  0  0.455041  0  0.325987  0.286974  0  0.898845  0
H  H11  1  0.40500342  0.77198071  0.13341786  1  0  0.298311  0  0.850826  0  0  0.29149  0  0.895764  0  0  0.298218  0  0.891289  0  0.45497  0  0.325917  0.286776  0  0.899034  0
H  H12  1  0.90599502  0.68589649  0.65919491  1  0  0.093077  0  0.989528  0  0  0.101655  0  1.058953  0  0  0.104295  0  1.05825  0  0.071056  0  0.087825  0.099703  0  1.059651  0
H  H13  1  0.40598074  0.81409639  0.84080450  1  0  0.09313  0  0.989276  0  0  0.101716  0  1.058706  0  0  0.104361  0  1.057992  0  0.071155  0  0.087835  0.099759  0  1.059401  0
H  H14  1  0.09401574  0.31408190  0.34080484  1  0  0.093189  0  0.98947  0  0  0.101745  0  1.058883  0  0  0.104384  0  1.058185  0  0.071426  0  0.087838  0.099795  0  1.059582  0
H  H15  1  0.59400949  0.18590966  0.15919101  1  0  0.093181  0  0.989319  0  0  0.101717  0  1.058781  0  0  0.104362  0  1.05807  0  0.071298  0  0.087837  0.099764  0  1.05948  0
H  H16  1  0.77385010  0.83580098  0.68612542  1  0  0.087061  0  0.950366  0  0  0.099969  0  1.007061  0  0  0.102502  0  1.006126  0  0.034556  0  0.096848  0.098138  0  1.007792  0
H  H17  1  0.27383993  0.66419056  0.81387223  1  0  0.087168  0  0.950304  0  0  0.100007  0  1.007053  0  0  0.102538  0  1.006123  0  0.034424  0  0.096883  0.098183  0  1.007789  0
H  H18  1  0.22614561  0.16417134  0.31388583  1  0  0.087017  0  0.950229  0  0  0.099842  0  1.007005  0  0  0.102367  0  1.006086  0  0.034612  0  0.096823  0.098021  0  1.007739  0
H  H19  1  0.72615441  0.33581415  0.18612094  1  0  0.08703  0  0.950238  0  0  0.099841  0  1.007051  0  0  0.102371  0  1.006122  0  0.034495  0  0.096802  0.098018  0  1.007787  0
H  H20  1  0.97831125  0.97168962  0.69631972  1  0  0.083739  0  0.972454  0  0  0.094143  0  1.037128  0  0  0.096652  0  1.036331  0  0.067773  0  0.093573  0.092372  0  1.037749  0
H  H21  1  0.47830244  0.52830192  0.80367851  1  0  0.083784  0  0.972483  0  0  0.094149  0  1.037216  0  0  0.096655  0  1.036421  0  0.067821  0  0.093585  0.092377  0  1.037832  0
H  H22  1  0.02166804  0.02828742  0.30369623  1  0  0.083906  0  0.972416  0  0  0.094259  0  1.037159  0  0  0.096766  0  1.036365  0  0.067779  0  0.09359  0.092482  0  1.037773  0
H  H23  1  0.52169601  0.47170279  0.19631988  1  0  0.083755  0  0.972464  0  0  0.094113  0  1.037209  0  0  0.096621  0  1.036415  0  0.067766  0  0.093564  0.092338  0  1.037822  0
H  H24  1  0.31302855  0.95358279  0.67681292  1  0  0.0886  0  0.960407  0  0  0.098719  0  1.018731  0  0  0.101896  0  1.017055  0  0.08336  0  0.092625  0.09646  0  1.019941  0
H  H25  1  0.81301820  0.54640875  0.82319747  1  0  0.088631  0  0.960267  0  0  0.098648  0  1.018703  0  0  0.101822  0  1.017028  0  0.083343  0  0.092584  0.096389  0  1.019912  0
H  H26  1  0.68694799  0.04640505  0.32320260  1  0  0.088799  0  0.960174  0  0  0.098821  0  1.018605  0  0  0.101998  0  1.016928  0  0.083216  0  0.092618  0.096559  0  1.019817  0
H  H27  1  0.18697888  0.45359730  0.17681020  1  0  0.088791  0  0.960231  0  0  0.098754  0  1.018707  0  0  0.10193  0  1.017031  0  0.083178  0  0.092662  0.096498  0  1.019912  0
H  H28  1  0.44619733  0.80277549  0.64957340  1  0  0.097323  0  1.00183  0  0  0.105612  0  1.067227  0  0  0.109114  0  1.06521  0  0.071802  0  0.08975  0.103081  0  1.068771  0
H  H29  1  0.94618150  0.69721470  0.85044740  1  0  0.097446  0  1.001523  0  0  0.10574  0  1.06692  0  0  0.109255  0  1.064894  0  0.071945  0  0.0898  0.103199  0  1.068476  0
H  H30  1  0.55380111  0.19721842  0.35043758  1  0  0.097392  0  1.001739  0  0  0.105728  0  1.067087  0  0  0.109235  0  1.06506  0  0.07174  0  0.089789  0.103195  0  1.068632  0
H  H31  1  0.05380463  0.30279203  0.14956608  1  0  0.097408  0  1.001579  0  0  0.105742  0  1.066943  0  0  0.109255  0  1.064917  0  0.071842  0  0.089787  0.103206  0  1.068493  0
H  H32  1  0.02113695  0.18777399  0.75036544  1  0  0.102587  0  0.954934  0  0  0.113499  0  1.016006  0  0  0.116182  0  1.015558  0  0.085562  0  0.10074  0.111559  0  1.016452  0
H  H33  1  0.52113343  0.31223511  0.74963588  1  0  0.102582  0  0.954929  0  0  0.11346  0  1.01604  0  0  0.116148  0  1.015599  0  0.085559  0  0.100728  0.111521  0  1.016486  0
H  H34  1  0.97886150  0.81222735  0.24963174  1  0  0.102659  0  0.954894  0  0  0.113542  0  1.015998  0  0  0.116223  0  1.01555  0  0.085622  0  0.100758  0.111601  0  1.016448  0
H  H35  1  0.47885543  0.68777499  0.25036606  1  0  0.10263  0  0.954966  0  0  0.113531  0  1.016035  0  0  0.116214  0  1.015584  0  0.085608  0  0.100738  0.111592  0  1.016482  0
H  H36  1  0.08555522  0.17579250  0.89131636  1  0  0.088658  0  0.973792  0  0  0.096723  0  1.043647  0  0  0.0989  0  1.043122  0  0.073244  0  0.084837  0.095042  0  1.04432  0
H  H37  1  0.58555581  0.32422469  0.60868566  1  0  0.088751  0  0.973654  0  0  0.09673  0  1.043595  0  0  0.098906  0  1.043071  0  0.072874  0  0.084898  0.095055  0  1.044255  0
H  H38  1  0.91443228  0.82421423  0.10868090  1  0  0.088572  0  0.973761  0  0  0.096636  0  1.043637  0  0  0.098812  0  1.043114  0  0.07322  0  0.0848  0.094957  0  1.044307  0
H  H39  1  0.41445085  0.67579148  0.39131637  1  0  0.088635  0  0.973715  0  0  0.09666  0  1.043632  0  0  0.098836  0  1.043108  0  0.073122  0  0.084844  0.094981  0  1.044302  0
H  H40  1  0.21167470  0.30671433  0.96519312  1  0  0.091957  0  0.961418  0  0  0.09891  0  1.02763  0  0  0.10192  0  1.026619  0  0.079973  0  0.092981  0.096717  0  1.028446  0
H  H41  1  0.71167529  0.19330489  0.53480313  1  0  0.091848  0  0.961532  0  0  0.098813  0  1.027746  0  0  0.101824  0  1.026735  0  0.080024  0  0.092957  0.096622  0  1.028559  0
H  H42  1  0.78831964  0.69328970  0.03480120  1  0  0.09187  0  0.961452  0  0  0.098827  0  1.027669  0  0  0.101831  0  1.026666  0  0.079998  0  0.09295  0.096632  0  1.028488  0
H  H43  1  0.28835327  0.80671466  0.46519779  1  0  0.091932  0  0.961317  0  0  0.098875  0  1.027569  0  0  0.101885  0  1.026557  0  0.079819  0  0.092948  0.096682  0  1.028386  0
H  H44  1  0.28220190  0.44979241  0.89652259  1  0  0.089652  0  0.944959  0  0  0.104134  0  0.995649  0  0  0.106737  0  0.995068  0  0.074257  0  0.101839  0.102231  0  0.996143  0
H  H45  1  0.78218744  0.05022209  0.60346722  1  0  0.089646  0  0.944943  0  0  0.104169  0  0.995608  0  0  0.106743  0  0.99506  0  0.074704  0  0.101811  0.10227  0  0.996099  0
H  H46  1  0.71781708  0.55020893  0.10346532  1  0  0.089771  0  0.945056  0  0  0.104215  0  0.995766  0  0  0.106841  0  0.995158  0  0.074423  0  0.101876  0.102313  0  0.996259  0
H  H47  1  0.21782059  0.94979408  0.39653249  1  0  0.089753  0  0.945021  0  0  0.104189  0  0.995742  0  0  0.10682  0  0.995129  0  0.074433  0  0.101854  0.102287  0  0.996236  0
H  H48  1  0.22059788  0.46113153  0.75482555  1  0  0.098229  0  0.988457  0  0  0.103986  0  1.059867  0  0  0.107178  0  1.0579  0  0.086229  0  0.090932  0.101634  0  1.061405  0
H  H49  1  0.72057931  0.03887420  0.74516298  1  0  0.098316  0  0.988433  0  0  0.104029  0  1.05987  0  0  0.107281  0  1.057843  0  0.086577  0  0.090935  0.101674  0  1.061412  0
H  H50  1  0.77942795  0.53886238  0.24516341  1  0  0.09829  0  0.988388  0  0  0.104031  0  1.059802  0  0  0.107284  0  1.057775  0  0.08645  0  0.09095  0.101679  0  1.06134  0
H  H51  1  0.27941914  0.96113726  0.25483261  1  0  0.098272  0  0.988446  0  0  0.104032  0  1.059844  0  0  0.107269  0  1.057831  0  0.08633  0  0.090956  0.10168  0  1.061382  0
C  C52  1  0.40328832  0.61262167  0.60716469  1  0  0.299514  0  3.769954  0  0  0.273686  0  4.073988  0  0  0.298793  0  4.0837  0  0.24413  0  0.122117  0.256932  0  4.066477  0
C  C53  1  0.90327386  0.88736852  0.89283873  1  0  0.299634  0  3.770075  0  0  0.273802  0  4.074048  0  0  0.298909  0  4.08376  0  0.242407  0  0.122114  0.257044  0  4.066541  0
C  C54  1  0.59672108  0.38736752  0.39283522  1  0  0.299849  0  3.769955  0  0  0.273945  0  4.074036  0  0  0.299054  0  4.083741  0  0.242606  0  0.12218  0.257184  0  4.066527  0
C  C55  1  0.09671775  0.11263619  0.10715965  1  0  0.299841  0  3.76978  0  0  0.273956  0  4.073766  0  0  0.299063  0  4.083467  0  0.242856  0  0.122241  0.257197  0  4.066259  0
C  C56  1  0.18491200  0.73448232  0.65198398  1  0  0.2341  0  3.768894  0  0  0.231036  0  4.01108  0  0  0.23739  0  4.033409  0  0.328277  0  0.088719  0.226736  0  3.995948  0
C  C57  1  0.68489343  0.76550652  0.84802522  1  0  0.234247  0  3.76922  0  0  0.230936  0  4.011653  0  0  0.23729  0  4.033987  0  0.327949  0  0.088651  0.226634  0  3.996515  0
C  C58  1  0.81509329  0.26550281  0.34802456  1  0  0.234008  0  3.769425  0  0  0.230936  0  4.01156  0  0  0.237292  0  4.033886  0  0.328297  0  0.088698  0.226629  0  3.996425  0
C  C59  1  0.31509270  0.23450021  0.15197899  1  0  0.233862  0  3.769571  0  0  0.230822  0  4.011595  0  0  0.23718  0  4.033921  0  0.328312  0  0.088715  0.226521  0  3.996458  0
C  C60  1  0.99547321  0.74468113  0.66295041  1  0  -0.164222  0  3.737974  0  0  -0.182408  0  3.986287  0  0  -0.18715  0  4.007819  0  -0.048539  0  -0.101525  -0.179182  0  3.971777  0
C  C61  1  0.49546303  0.75530772  0.83705415  1  0  -0.164162  0  3.738159  0  0  -0.182267  0  3.986459  0  0  -0.187011  0  4.007993  0  -0.048245  0  -0.101461  -0.179031  0  3.971942  0
C  C62  1  0.00453071  0.25529996  0.33705633  1  0  -0.164261  0  3.738026  0  0  -0.182425  0  3.986305  0  0  -0.187165  0  4.00783  0  -0.04838  0  -0.101521  -0.179205  0  3.971807  0
C  C63  1  0.50452994  0.24469767  0.16294540  1  0  -0.16413  0  3.738003  0  0  -0.182281  0  3.986232  0  0  -0.187024  0  4.007756  0  -0.048383  0  -0.101505  -0.179057  0  3.97173  0
C  C64  1  0.92129269  0.82959263  0.67806832  1  0  -0.051853  0  3.795621  0  0  -0.066065  0  4.046457  0  0  -0.066992  0  4.06852  0  -0.007318  0  -0.095859  -0.06528  0  4.031412  0
C  C65  1  0.42128388  0.67039823  0.82193338  1  0  -0.051933  0  3.795784  0  0  -0.066089  0  4.04658  0  0  -0.067015  0  4.068644  0  -0.007419  0  -0.095843  -0.065317  0  4.031547  0
C  C66  1  0.07869892  0.17038373  0.32194357  1  0  -0.051745  0  3.795445  0  0  -0.065867  0  4.046246  0  0  -0.066789  0  4.068303  0  -0.007533  0  -0.095825  -0.065099  0  4.031214  0
C  C67  1  0.57870909  0.32960715  0.17806328  1  0  -0.051697  0  3.795713  0  0  -0.065826  0  4.046484  0  0  -0.06675  0  4.068542  0  -0.007388  0  -0.095729  -0.065059  0  4.031453  0
C  C68  1  0.03485502  0.90527698  0.68297007  1  0  -0.084243  0  3.782162  0  0  -0.101005  0  4.033052  0  0  -0.104091  0  4.055724  0  -0.034568  0  -0.10232  -0.099009  0  4.017686  0
C  C69  1  0.53484603  0.59471321  0.81703509  1  0  -0.08448  0  3.782304  0  0  -0.101213  0  4.033155  0  0  -0.1043  0  4.055828  0  -0.034917  0  -0.102492  -0.099212  0  4.017786  0
C  C70  1  0.96513111  0.09470141  0.31704590  1  0  -0.084534  0  3.782414  0  0  -0.101255  0  4.03322  0  0  -0.10434  0  4.055888  0  -0.034796  0  -0.102378  -0.099245  0  4.017844  0
C  C71  1  0.46515242  0.40529082  0.18296734  1  0  -0.084524  0  3.782362  0  0  -0.101249  0  4.033184  0  0  -0.104332  0  4.055852  0  -0.034938  0  -0.102479  -0.099241  0  4.017814  0
C  C72  1  0.22312467  0.89506603  0.67205444  1  0  -0.058343  0  3.794314  0  0  -0.066087  0  4.03494  0  0  -0.067305  0  4.056497  0  -0.123098  0  -0.09772  -0.065083  0  4.020202  0
C  C73  1  0.72310884  0.60492483  0.82795421  1  0  -0.058324  0  3.794371  0  0  -0.065965  0  4.034914  0  0  -0.067185  0  4.056479  0  -0.123023  0  -0.097664  -0.064959  0  4.020172  0
C  C74  1  0.77686419  0.10492113  0.32795992  1  0  -0.058524  0  3.794308  0  0  -0.066184  0  4.034913  0  0  -0.067405  0  4.056467  0  -0.123141  0  -0.097766  -0.065176  0  4.020168  0
C  C75  1  0.27688550  0.39508190  0.17205000  1  0  -0.058384  0  3.794218  0  0  -0.065997  0  4.034835  0  0  -0.067218  0  4.056391  0  -0.123161  0  -0.097744  -0.064993  0  4.020096  0
C  C76  1  0.29928721  0.81033401  0.65685917  1  0  -0.157323  0  3.737523  0  0  -0.174207  0  3.979743  0  0  -0.178827  0  4.000798  0  0.033753  0  -0.099962  -0.17112  0  3.965557  0
C  C77  1  0.79927138  0.68965618  0.84315758  1  0  -0.157389  0  3.737511  0  0  -0.174218  0  3.979737  0  0  -0.178846  0  4.000786  0  0.033777  0  -0.09992  -0.171127  0  3.965562  0
C  C78  1  0.70070987  0.18965383  0.34315288  1  0  -0.157198  0  3.737487  0  0  -0.174119  0  3.979621  0  0  -0.178739  0  4.000674  0  0.033489  0  -0.099876  -0.171036  0  3.96544  0
C  C79  1  0.20071885  0.31035122  0.15685301  1  0  -0.157269  0  3.737556  0  0  -0.174207  0  3.979659  0  0  -0.178836  0  4.000714  0  0.033643  0  -0.09993  -0.171122  0  3.965482  0
C  C80  1  0.99163237  0.39631938  0.62479344  1  0  0.305607  0  3.802488  0  0  0.275743  0  4.112655  0  0  0.301543  0  4.120675  0  0.274753  0  0.125207  0.258567  0  4.106458  0
C  C81  1  0.49162904  0.10368095  0.87520369  1  0  0.305489  0  3.802765  0  0  0.275684  0  4.112818  0  0  0.301482  0  4.120844  0  0.274711  0  0.125203  0.258505  0  4.106623  0
C  C82  1  0.00837429  0.60368127  0.37520489  1  0  0.305563  0  3.802723  0  0  0.275745  0  4.112801  0  0  0.301543  0  4.120825  0  0.274709  0  0.125199  0.258567  0  4.106606  0
C  C83  1  0.50837215  0.89632039  0.12479349  1  0  0.305722  0  3.802459  0  0  0.275862  0  4.112597  0  0  0.30166  0  4.120618  0  0.274764  0  0.125286  0.258684  0  4.106405  0
C  C84  1  0.11265053  0.32631708  0.74488538  1  0  0.226095  0  3.790246  0  0  0.222312  0  4.036571  0  0  0.22769  0  4.059077  0  0.275546  0  0.085976  0.218707  0  4.021279  0
C  C85  1  0.61263470  0.17368392  0.75511003  1  0  0.226303  0  3.790248  0  0  0.222548  0  4.036506  0  0  0.227921  0  4.059024  0  0.275468  0  0.085908  0.21894  0  4.021214  0
C  C86  1  0.88736297  0.67367953  0.25510536  1  0  0.226277  0  3.790122  0  0  0.222489  0  4.03644  0  0  0.22786  0  4.058958  0  0.275608  0  0.085904  0.218882  0  4.021149  0
C  C87  1  0.38736375  0.82631944  0.24489181  1  0  0.226226  0  3.790105  0  0  0.222469  0  4.036372  0  0  0.227847  0  4.058879  0  0.275676  0  0.085915  0.218864  0  4.021083  0
C  C88  1  0.07803095  0.24513220  0.78266837  1  0  -0.155352  0  3.718936  0  0  -0.175267  0  3.966537  0  0  -0.178845  0  3.987298  0  -0.111096  0  -0.095973  -0.172778  0  3.952464  0
C  C89  1  0.57801922  0.25487217  0.71732998  1  0  -0.155503  0  3.718935  0  0  -0.175365  0  3.966477  0  0  -0.178954  0  3.987252  0  -0.111093  0  -0.095982  -0.172876  0  3.952402  0
C  C90  1  0.92197161  0.75486711  0.21732298  1  0  -0.155732  0  3.719075  0  0  -0.17561  0  3.966674  0  0  -0.179194  0  3.987451  0  -0.11113  0  -0.096122  -0.173121  0  3.952599  0
C  C91  1  0.42197512  0.74513321  0.28267131  1  0  -0.15548  0  3.718978  0  0  -0.17537  0  3.966512  0  0  -0.178948  0  3.987271  0  -0.111279  0  -0.095878  -0.172881  0  3.952434  0
C  C92  1  0.11336641  0.23871806  0.86173785  1  0  -0.051364  0  3.771631  0  0  -0.06495  0  4.022638  0  0  -0.066583  0  4.044884  0  0.043455  0  -0.098119  -0.063824  0  4.00765  0
C  C93  1  0.61335195  0.26129374  0.63826177  1  0  -0.051337  0  3.771371  0  0  -0.064862  0  4.022376  0  0  -0.066495  0  4.044625  0  0.043365  0  -0.098126  -0.063737  0  4.007392  0
C  C94  1  0.88663477  0.76128125  0.13825409  1  0  -0.051144  0  3.77164  0  0  -0.064735  0  4.022637  0  0  -0.066369  0  4.044878  0  0.043214  0  -0.097983  -0.063608  0  4.007647  0
C  C95  1  0.38664650  0.73872041  0.36174139  1  0  -0.051213  0  3.771651  0  0  -0.064772  0  4.022629  0  0  -0.066407  0  4.044875  0  0.043493  0  -0.098132  -0.063647  0  4.007647  0
C  C96  1  0.18482166  0.31242337  0.90331429  1  0  -0.08103  0  3.779627  0  0  -0.096361  0  4.028607  0  0  -0.098366  0  4.049943  0  -0.053097  0  -0.099038  -0.094945  0  4.014144  0
C  C97  1  0.68480993  0.18758978  0.59668071  1  0  -0.080931  0  3.779595  0  0  -0.096273  0  4.028592  0  0  -0.098278  0  4.049916  0  -0.052827  0  -0.099106  -0.09486  0  4.014135  0
C  C98  1  0.81517816  0.68757729  0.09668172  1  0  -0.080855  0  3.779931  0  0  -0.096182  0  4.02889  0  0  -0.098185  0  4.050236  0  -0.052774  0  -0.099087  -0.094766  0  4.014431  0
C  C99  1  0.31520083  0.81242302  0.40331721  1  0  -0.081026  0  3.779959  0  0  -0.096358  0  4.028914  0  0  -0.09837  0  4.050268  0  -0.052588  0  -0.099115  -0.094943  0  4.014453  0
C  C100  1  0.22299053  0.39251381  0.86485688  1  0  -0.073354  0  3.801041  0  0  -0.082028  0  4.040464  0  0  -0.08416  0  4.062616  0  -0.076536  0  -0.096301  -0.080472  0  4.025359  0
C  C101  1  0.72297333  0.10749664  0.63513403  1  0  -0.073446  0  3.80132  0  0  -0.082164  0  4.040786  0  0  -0.084274  0  4.062959  0  -0.077138  0  -0.09623  -0.08061  0  4.025677  0
C  C102  1  0.77702845  0.60748550  0.13513274  1  0  -0.073539  0  3.801613  0  0  -0.082185  0  4.041017  0  0  -0.084341  0  4.063177  0  -0.077068  0  -0.096189  -0.080629  0  4.025909  0
C  C103  1  0.27703196  0.89251414  0.36486560  1  0  -0.073539  0  3.8013  0  0  -0.082169  0  4.040692  0  0  -0.084329  0  4.062851  0  -0.07689  0  -0.096207  -0.080613  0  4.025585  0
C  C104  1  0.18753188  0.39988340  0.78571252  1  0  -0.160283  0  3.764155  0  0  -0.180139  0  4.014488  0  0  -0.18346  0  4.03446  0  0.012598  0  -0.10045  -0.177837  0  4.001049  0
C  C105  1  0.68750920  0.10012166  0.71427658  1  0  -0.160368  0  3.764407  0  0  -0.1802  0  4.014777  0  0  -0.183584  0  4.03472  0  0.012507  0  -0.100412  -0.177899  0  4.001337  0
C  C106  1  0.81249395  0.60011389  0.21427650  1  0  -0.160285  0  3.764298  0  0  -0.180122  0  4.014635  0  0  -0.183497  0  4.034575  0  0.012332  0  -0.100449  -0.177822  0  4.001196  0
C  C107  1  0.31249062  0.89988845  0.28571841  1  0  -0.160306  0  3.764107  0  0  -0.18018  0  4.014437  0  0  -0.183537  0  4.03438  0  0.012288  0  -0.100478  -0.17788  0  4.000998  0
S  S108  1  0.41690100  0.49511246  0.60362049  1  0  -0.399015  0  2.203972  0  0  -0.356876  0  2.562476  0  0  -0.376527  0  2.558975  0  -0.25354  0  -0.193595  -0.343017  0  2.564707  0
S  S109  1  0.91689338  0.00488382  0.89637312  1  0  -0.398978  0  2.203859  0  0  -0.356858  0  2.562366  0  0  -0.37651  0  2.558873  0  -0.253462  0  -0.193543  -0.343003  0  2.5646  0
S  S110  1  0.58310566  0.50487807  0.39637075  1  0  -0.399098  0  2.203971  0  0  -0.35694  0  2.562486  0  0  -0.376591  0  2.55899  0  -0.253304  0  -0.1936  -0.343084  0  2.564726  0
S  S111  1  0.08309549  0.99512426  0.10362879  1  0  -0.399053  0  2.203743  0  0  -0.356929  0  2.562289  0  0  -0.376576  0  2.558788  0  -0.253489  0  -0.193614  -0.343076  0  2.564527  0
S  S112  1  0.57261247  0.67721722  0.57033236  1  0  -0.320573  0  2.077304  0  0  -0.284439  0  2.396524  0  0  -0.302816  0  2.394469  0  -0.137963  0  -0.1495  -0.271622  0  2.397498  0
S  S113  1  0.07259272  0.82277904  0.92967752  1  0  -0.320527  0  2.077409  0  0  -0.284399  0  2.396631  0  0  -0.302777  0  2.394568  0  -0.136717  0  -0.149476  -0.271581  0  2.397607  0
S  S114  1  0.42739966  0.32277939  0.42967170  1  0  -0.320595  0  2.077345  0  0  -0.28447  0  2.396626  0  0  -0.302837  0  2.394551  0  -0.13667  0  -0.149464  -0.271655  0  2.397608  0
S  S115  1  0.92740983  0.17722837  0.07031164  1  0  -0.320722  0  2.077161  0  0  -0.284549  0  2.396332  0  0  -0.302953  0  2.394315  0  -0.13696  0  -0.149533  -0.271735  0  2.39731  0
S  S116  1  0.91358500  0.49267865  0.66813072  1  0  -0.363539  0  2.140148  0  0  -0.330112  0  2.473577  0  0  -0.348609  0  2.471059  0  -0.17568  0  -0.154691  -0.317342  0  2.475229  0
S  S117  1  0.41358577  0.00732100  0.83186699  1  0  -0.363451  0  2.140229  0  0  -0.33003  0  2.473649  0  0  -0.348533  0  2.471146  0  -0.175767  0  -0.154665  -0.31726  0  2.475301  0
S  S118  1  0.08642029  0.50731931  0.33186815  1  0  -0.363592  0  2.140278  0  0  -0.330132  0  2.473643  0  0  -0.348642  0  2.471153  0  -0.17579  0  -0.154705  -0.317366  0  2.475302  0
S  S119  1  0.58641952  0.99268303  0.16812965  1  0  -0.363646  0  2.140136  0  0  -0.330157  0  2.473538  0  0  -0.348677  0  2.471057  0  -0.175789  0  -0.15473  -0.31739  0  2.475191  0
S  S120  1  0.95626131  0.37411953  0.52707808  1  0  -0.385095  0  2.205656  0  0  -0.347994  0  2.567295  0  0  -0.367624  0  2.563571  0  -0.26962  0  -0.185914  -0.334078  0  2.569295  0
S  S121  1  0.45625798  0.12587810  0.97291729  1  0  -0.38505  0  2.205649  0  0  -0.347996  0  2.567301  0  0  -0.367614  0  2.563557  0  -0.269448  0  -0.185975  -0.334086  0  2.569303  0
S  S122  1  0.04373713  0.62588585  0.47291685  1  0  -0.385077  0  2.205634  0  0  -0.348033  0  2.567277  0  0  -0.367646  0  2.563522  0  -0.269547  0  -0.185953  -0.334119  0  2.569277  0
S  S123  1  0.54373499  0.87411851  0.02707925  1  0  -0.385109  0  2.205561  0  0  -0.348024  0  2.567197  0  0  -0.367641  0  2.563444  0  -0.269583  0  -0.18594  -0.334112  0  2.569196  0
N  N124  1  0.24790946  0.64557564  0.63898911  1  0  -0.341651  0  3.425752  0  0  -0.277342  0  3.652593  0  0  -0.296576  0  3.664114  0  -1.237585  0  -0.383714  -0.264404  0  3.644621  0
N  N125  1  0.74789363  0.85441725  0.86101667  1  0  -0.342018  0  3.425899  0  0  -0.277526  0  3.652624  0  0  -0.296759  0  3.66414  0  -1.237053  0  -0.383708  -0.264577  0  3.644635  0
N  N126  1  0.75209720  0.35441355  0.36101311  1  0  -0.342121  0  3.426135  0  0  -0.277716  0  3.65291  0  0  -0.296952  0  3.664425  0  -1.236953  0  -0.383813  -0.264746  0  3.644891  0
N  N127  1  0.25208839  0.14558813  0.13898636  1  0  -0.341997  0  3.426173  0  0  -0.277569  0  3.65292  0  0  -0.296801  0  3.664436  0  -1.236879  0  -0.383749  -0.264614  0  3.644919  0
N  N128  1  0.07480196  0.33020902  0.66443679  1  0  -0.346198  0  3.387031  0  0  -0.28583  0  3.620891  0  0  -0.304276  0  3.631745  0  -1.220484  0  -0.378652  -0.273543  0  3.613399  0
N  N129  1  0.57479023  0.16979265  0.83555631  1  0  -0.346401  0  3.387301  0  0  -0.286041  0  3.621112  0  0  -0.304487  0  3.63197  0  -1.220775  0  -0.378624  -0.273742  0  3.613603  0
N  N130  1  0.92521292  0.66978961  0.33555688  1  0  -0.346444  0  3.387101  0  0  -0.286072  0  3.62094  0  0  -0.304519  0  3.631798  0  -1.220713  0  -0.378717  -0.27377  0  3.613424  0
N  N131  1  0.42521096  0.83021273  0.16443977  1  0  -0.346288  0  3.387209  0  0  -0.285916  0  3.621092  0  0  -0.304363  0  3.631952  0  -1.22067  0  -0.378734  -0.273622  0  3.613583  0
