# generated using pymatgen
data_AgH7C10N3ClO2
_symmetry_space_group_name_H-M   'P 1'
_cell_length_a   6.39293925
_cell_length_b   7.88621011
_cell_length_c   11.42924366
_cell_angle_alpha   104.41205675
_cell_angle_beta   108.47357360
_cell_angle_gamma   96.15493403
_symmetry_Int_Tables_number   1
_chemical_formula_structural   AgH7C10N3ClO2
_chemical_formula_sum   'Ag2 H14 C20 N6 Cl2 O4'
_cell_volume   518.35231621
_cell_formula_units_Z   2
loop_
 _symmetry_equiv_pos_site_id
 _symmetry_equiv_pos_as_xyz
  1  'x, y, z'
loop_
 _atom_site_type_symbol
 _atom_site_label
 _atom_site_symmetry_multiplicity
 _atom_site_fract_x
 _atom_site_fract_y
 _atom_site_fract_z
 _atom_site_occupancy
 _atom_site_hle17_bader_spin_density
 _atom_site_hle17_ddec_charge
 _atom_site_hle17_ddec_spin_density
 _atom_site_hle17_ddec_sum_bond_order
 _atom_site_hle17_magmom
 _atom_site_hse06_10hf_bader_spin_density
 _atom_site_hse06_10hf_ddec_charge
 _atom_site_hse06_10hf_ddec_spin_density
 _atom_site_hse06_10hf_ddec_sum_bond_order
 _atom_site_hse06_10hf_magmom
 _atom_site_hse06_bader_spin_density
 _atom_site_hse06_ddec_charge
 _atom_site_hse06_ddec_spin_density
 _atom_site_hse06_ddec_sum_bond_order
 _atom_site_hse06_magmom
 _atom_site_pbe_bader_spin_density
 _atom_site_pbe_cm5_charge
 _atom_site_pbe_ddec_charge
 _atom_site_pbe_ddec_spin_density
 _atom_site_pbe_ddec_sum_bond_order
 _atom_site_pbe_magmom
Ag  Ag0  1  0.48186228  0.80253041  0.46113164  1  0  0.536759  0  1.465003  0  0  0.3974  0  1.951483  0  0  0.43344  0  1.890459  0  0  0.427133  0.373209  0  1.993475  0
Ag  Ag1  1  0.51812887  0.19747487  0.53885474  1  0  0.536693  0  1.465153  0  0  0.397325  0  1.951684  0  0  0.433362  0  1.890658  0  0  0.427106  0.373152  0  1.993639  0
H  H2  1  0.20612625  0.10902062  0.07894688  1  0  0.116968  0  0.957096  0  0  0.124697  0  1.022825  0  0  0.128041  0  1.021386  0  0  0.103484  0.121976  0  1.024445  0
H  H3  1  0.79388783  0.89098437  0.92103986  1  0  0.117071  0  0.95695  0  0  0.124755  0  1.02272  0  0  0.128074  0  1.021306  0  0  0.103468  0.122028  0  1.024356  0
H  H4  1  0.04359479  0.88825721  0.55232536  1  0  0.089378  0  0.956261  0  0  0.096103  0  1.027226  0  0  0.098297  0  1.024453  0  0  0.128675  0.094407  0  1.029409  0
H  H5  1  0.95642843  0.11176865  0.44768184  1  0  0.089254  0  0.95626  0  0  0.095875  0  1.02738  0  0  0.098068  0  1.024607  0  0  0.128571  0.094178  0  1.02956  0
H  H6  1  0.64264167  0.39096060  0.30439964  1  0  0.111834  0  0.969955  0  0  0.118827  0  1.037287  0  0  0.122394  0  1.033006  0  0  0.135192  0.116221  0  1.040131  0
H  H7  1  0.35736980  0.60906249  0.69562703  1  0  0.111818  0  0.969787  0  0  0.118772  0  1.037191  0  0  0.122334  0  1.032921  0  0  0.135128  0.116172  0  1.040033  0
H  H8  1  0.93836707  0.27722932  0.21577925  1  0  0.085538  0  0.947684  0  0  0.0977  0  1.017499  0  0  0.098092  0  1.017517  0  0  0.110448  0.097507  0  1.017035  0
H  H9  1  0.06162238  0.72276028  0.78423601  1  0  0.08543  0  0.947686  0  0  0.097651  0  1.017436  0  0  0.098006  0  1.017422  0  0  0.110423  0.097474  0  1.017005  0
H  H10  1  0.21697315  0.40213263  0.29026409  1  0  0.109186  0  0.91973  0  0  0.120672  0  0.989163  0  0  0.123182  0  0.985154  0  0  0.11921  0.118851  0  0.991621  0
H  H11  1  0.78302978  0.59786557  0.70974162  1  0  0.109125  0  0.919698  0  0  0.120661  0  0.989036  0  0  0.123129  0  0.985  0  0  0.119238  0.118866  0  0.991504  0
H  H12  1  0.65916843  0.36541043  0.03066766  1  0  0.091044  0  0.956278  0  0  0.104293  0  1.015181  0  0  0.105802  0  1.016423  0  0  0.096524  0.103103  0  1.014498  0
H  H13  1  0.34079989  0.63457397  0.96934408  1  0  0.091074  0  0.956322  0  0  0.10435  0  1.015162  0  0  0.105858  0  1.016403  0  0  0.096454  0.10315  0  1.014504  0
H  H14  1  0.62316854  0.43690533  0.82806109  1  0  0.093512  0  0.966363  0  0  0.101795  0  1.035299  0  0  0.104954  0  1.033159  0  0  0.096387  0.099395  0  1.037083  0
H  H15  1  0.37683288  0.56307915  0.17196069  1  0  0.093407  0  0.966089  0  0  0.101736  0  1.03501  0  0  0.10489  0  1.032886  0  0  0.096381  0.099344  0  1.036775  0
C  C16  1  0.33579815  0.06207818  0.04410644  1  0  -0.138264  0  3.745098  0  0  -0.170675  0  4.003614  0  0  -0.172158  0  4.022333  0  0  -0.094558  -0.169602  0  3.99208  0
C  C17  1  0.66421197  0.93793074  0.95587847  1  0  -0.13831  0  3.744714  0  0  -0.170659  0  4.003328  0  0  -0.172118  0  4.022056  0  0  -0.094518  -0.169588  0  3.9918  0
C  C18  1  0.31811408  0.04630438  0.91700915  1  0  0.108134  0  3.784365  0  0  0.111057  0  4.053275  0  0  0.115581  0  4.071637  0  0  0.010255  0.107604  0  4.041404  0
C  C19  1  0.68190859  0.95370190  0.08297925  1  0  0.108059  0  3.784183  0  0  0.110965  0  4.053063  0  0  0.11549  0  4.071415  0  0  0.010257  0.107517  0  4.041185  0
C  C20  1  0.48415796  0.98438969  0.87097858  1  0  -0.09243  0  3.736444  0  0  -0.077951  0  3.978048  0  0  -0.082703  0  3.996258  0  0  -0.020634  -0.075103  0  3.966638  0
C  C21  1  0.51585592  0.01561500  0.12900283  1  0  -0.092333  0  3.736386  0  0  -0.07773  0  3.977838  0  0  -0.082478  0  3.996055  0  0  -0.020651  -0.074883  0  3.96642  0
C  C22  1  0.48644593  0.97157348  0.73754496  1  0  0.636188  0  3.963227  0  0  0.583754  0  4.253239  0  0  0.618652  0  4.24748  0  0  0.190813  0.559356  0  4.257108  0
C  C23  1  0.51357293  0.02842470  0.26243982  1  0  0.635899  0  3.963236  0  0  0.583483  0  4.253199  0  0  0.618375  0  4.247441  0  0  0.190787  0.559096  0  4.257052  0
C  C24  1  0.98220003  0.76014699  0.47745852  1  0  0.20421  0  3.702061  0  0  0.14775  0  3.98856  0  0  0.16129  0  3.999262  0  0  0.142261  0.139589  0  3.979288  0
C  C25  1  0.01781288  0.23986439  0.52254825  1  0  0.204408  0  3.702091  0  0  0.148002  0  3.988604  0  0  0.161542  0  3.999308  0  0  0.142348  0.13984  0  3.979342  0
C  C26  1  0.77537260  0.51078988  0.35130593  1  0  0.166296  0  3.616484  0  0  0.093911  0  3.881751  0  0  0.115421  0  3.897119  0  0  0.158394  0.084842  0  3.87426  0
C  C27  1  0.22462821  0.48921908  0.64870191  1  0  0.166206  0  3.616192  0  0  0.093853  0  3.881441  0  0  0.115358  0  3.896819  0  0  0.158439  0.08477  0  3.873952  0
C  C28  1  0.04306434  0.40899699  0.23811975  1  0  -0.055541  0  3.633243  0  0  -0.133686  0  3.882795  0  0  -0.122044  0  3.89559  0  0  -0.043657  -0.136717  0  3.877049  0
C  C29  1  0.95691381  0.59100441  0.76191462  1  0  -0.055313  0  3.633341  0  0  -0.13351  0  3.882916  0  0  -0.121699  0  3.895507  0  0  -0.043638  -0.136616  0  3.877214  0
C  C30  1  0.02091714  0.45744995  0.11532196  1  0  0.05268  0  3.76153  0  0  0.071463  0  4.006258  0  0  0.07062  0  4.029221  0  0  -0.019565  0.072272  0  3.989758  0
C  C31  1  0.97904319  0.54253082  0.88466949  1  0  0.053235  0  3.762522  0  0  0.071947  0  4.007245  0  0  0.071051  0  4.030162  0  0  -0.019421  0.072784  0  3.990773  0
C  C32  1  0.80954999  0.42502683  0.01797680  1  0  -0.103579  0  3.746184  0  0  -0.126538  0  3.996686  0  0  -0.128841  0  4.019467  0  0  -0.093931  -0.124709  0  3.981263  0
C  C33  1  0.19040488  0.57495239  0.98200911  1  0  -0.103754  0  3.74656  0  0  -0.12675  0  3.997155  0  0  -0.129047  0  4.01994  0  0  -0.093866  -0.124921  0  3.981731  0
C  C34  1  0.78868184  0.46710846  0.90381995  1  0  -0.101401  0  3.741267  0  0  -0.121639  0  3.991758  0  0  -0.124168  0  4.013314  0  0  -0.091752  -0.119996  0  3.977483  0
C  C35  1  0.21129426  0.53287610  0.09617213  1  0  -0.10117  0  3.740679  0  0  -0.121446  0  3.991139  0  0  -0.123976  0  4.012681  0  0  -0.091692  -0.119798  0  3.976862  0
N  N36  1  0.77856561  0.65286888  0.44518663  1  0  -0.367894  0  3.149121  0  0  -0.304911  0  3.458734  0  0  -0.323364  0  3.463877  0  0  -0.351813  -0.291917  0  3.452722  0
N  N37  1  0.22145025  0.34713460  0.55482208  1  0  -0.367992  0  3.149235  0  0  -0.304994  0  3.45881  0  0  -0.32345  0  3.463954  0  0  -0.351829  -0.291995  0  3.452788  0
N  N38  1  0.96949039  0.53235759  0.32866784  1  0  0.051155  0  3.541235  0  0  0.164693  0  3.728117  0  0  0.129126  0  3.789048  0  0  -0.132574  0.171763  0  3.710325  0
N  N39  1  0.03049941  0.46763990  0.67134604  1  0  0.05091  0  3.540423  0  0  0.164427  0  3.727257  0  0  0.128809  0  3.788126  0  0  -0.13265  0.171532  0  3.709505  0
N  N40  1  0.10382997  0.69182901  0.40907013  1  0  -0.283129  0  3.10258  0  0  -0.245981  0  3.405811  0  0  -0.253638  0  3.423249  0  0  -0.242936  -0.236071  0  3.397915  0
N  N41  1  0.89616077  0.30816093  0.59092701  1  0  -0.28312  0  3.102477  0  0  -0.245948  0  3.405691  0  0  -0.253609  0  3.42314  0  0  -0.242979  -0.236046  0  3.39779  0
Cl  Cl42  1  0.08196580  0.09754694  0.81843537  1  0  -0.047492  0  1.430176  0  0  -0.026978  0  1.680111  0  0  -0.030953  0  1.676969  0  0  0.031141  -0.024781  0  1.68273  0
Cl  Cl43  1  0.91805377  0.90246618  0.18155615  1  0  -0.047421  0  1.430206  0  0  -0.026947  0  1.68015  0  0  -0.03092  0  1.677012  0  0  0.031173  -0.024752  0  1.682766  0
O  O44  1  0.42735787  0.09776523  0.69298625  1  0  -0.634146  0  2.12386  0  0  -0.564287  0  2.396007  0  0  -0.595534  0  2.386067  0  0  -0.330162  -0.541782  0  2.401965  0
O  O45  1  0.57265114  0.90223304  0.30699774  1  0  -0.634069  0  2.124119  0  0  -0.56422  0  2.396235  0  0  -0.595489  0  2.386361  0  0  -0.330164  -0.541729  0  2.402202  0
O  O46  1  0.55004175  0.83630797  0.68286861  1  0  -0.629103  0  2.051625  0  0  -0.561546  0  2.312871  0  0  -0.591536  0  2.302351  0  0  -0.328347  -0.539511  0  2.319439  0
O  O47  1  0.44998770  0.16369856  0.31712623  1  0  -0.629011  0  2.051294  0  0  -0.56152  0  2.312586  0  0  -0.591515  0  2.302071  0  0  -0.328356  -0.539481  0  2.319142  0
