# generated using pymatgen
data_ZnH4C6N4O3
_symmetry_space_group_name_H-M   'P 1'
_cell_length_a   5.98703108
_cell_length_b   8.24145508
_cell_length_c   16.01188078
_cell_angle_alpha   101.00214185
_cell_angle_beta   89.99993928
_cell_angle_gamma   89.99979309
_symmetry_Int_Tables_number   1
_chemical_formula_structural   ZnH4C6N4O3
_chemical_formula_sum   'Zn4 H16 C24 N16 O12'
_cell_volume   775.53459756
_cell_formula_units_Z   4
loop_
 _symmetry_equiv_pos_site_id
 _symmetry_equiv_pos_as_xyz
  1  'x, y, z'
loop_
 _atom_site_type_symbol
 _atom_site_label
 _atom_site_symmetry_multiplicity
 _atom_site_fract_x
 _atom_site_fract_y
 _atom_site_fract_z
 _atom_site_occupancy
 _atom_site_hle17_bader_spin_density
 _atom_site_hle17_ddec_charge
 _atom_site_hle17_ddec_spin_density
 _atom_site_hle17_ddec_sum_bond_order
 _atom_site_hle17_magmom
 _atom_site_hse06_10hf_bader_spin_density
 _atom_site_hse06_10hf_ddec_charge
 _atom_site_hse06_10hf_ddec_spin_density
 _atom_site_hse06_10hf_ddec_sum_bond_order
 _atom_site_hse06_10hf_magmom
 _atom_site_hse06_bader_spin_density
 _atom_site_hse06_ddec_charge
 _atom_site_hse06_ddec_spin_density
 _atom_site_hse06_ddec_sum_bond_order
 _atom_site_hse06_magmom
 _atom_site_pbe_bader_spin_density
 _atom_site_pbe_cm5_charge
 _atom_site_pbe_ddec_charge
 _atom_site_pbe_ddec_spin_density
 _atom_site_pbe_ddec_sum_bond_order
 _atom_site_pbe_magmom
Zn  Zn0  1  0.92513249  0.08138137  0.22652067  1  0  1.082543  0  1.859645  0  0  0.919935  0  2.339669  0  0  0.964397  0  2.283207  0  0  0.704458  0.88874  0  2.378493  0
Zn  Zn1  1  0.42512921  0.91861998  0.27347982  1  0  1.082574  0  1.859592  0  0  0.919965  0  2.339612  0  0  0.964433  0  2.283138  0  0  0.704462  0.888793  0  2.378403  0
Zn  Zn2  1  0.07486820  0.91862032  0.77347908  1  0  1.082498  0  1.859717  0  0  0.919895  0  2.339747  0  0  0.964356  0  2.283291  0  0  0.704455  0.888713  0  2.378556  0
Zn  Zn3  1  0.57486646  0.08137799  0.72652081  1  0  1.082517  0  1.85972  0  0  0.919903  0  2.33974  0  0  0.964366  0  2.283281  0  0  0.704447  0.888721  0  2.378561  0
H  H4  1  0.93350737  0.87937548  0.94872909  1  0  0.13474  0  0.95847  0  0  0.140258  0  1.024732  0  0  0.144897  0  1.019593  0  0  0.132306  0.136872  0  1.028352  0
H  H5  1  0.43350267  0.12063062  0.55127265  1  0  0.134791  0  0.958464  0  0  0.140314  0  1.024712  0  0  0.144953  0  1.019572  0  0  0.132317  0.13693  0  1.02833  0
H  H6  1  0.06648830  0.12062621  0.05126753  1  0  0.134793  0  0.95851  0  0  0.1403  0  1.024761  0  0  0.14494  0  1.019622  0  0  0.132294  0.136915  0  1.028381  0
H  H7  1  0.56648632  0.87937230  0.44872847  1  0  0.134833  0  0.958544  0  0  0.140341  0  1.024773  0  0  0.144984  0  1.019633  0  0  0.132305  0.136956  0  1.02839  0
H  H8  1  0.58843773  0.53905330  0.77003190  1  0  0.11709  0  0.945803  0  0  0.120393  0  1.016338  0  0  0.124021  0  1.012957  0  0  0.130107  0.117769  0  1.01872  0
H  H9  1  0.08842724  0.46094621  0.72997060  1  0  0.117078  0  0.945753  0  0  0.120368  0  1.016307  0  0  0.123994  0  1.012926  0  0  0.130082  0.117745  0  1.018689  0
H  H10  1  0.41156797  0.46094346  0.22996424  1  0  0.117129  0  0.945781  0  0  0.120466  0  1.016271  0  0  0.124094  0  1.012889  0  0  0.130158  0.117846  0  1.018656  0
H  H11  1  0.91157344  0.53905300  0.27003203  1  0  0.11709  0  0.945803  0  0  0.120392  0  1.01632  0  0  0.124019  0  1.012939  0  0  0.130114  0.117769  0  1.018706  0
H  H12  1  0.28471620  0.51097515  0.87461774  1  0  0.11636  0  0.970996  0  0  0.118485  0  1.040697  0  0  0.122227  0  1.038664  0  0  0.109637  0.11581  0  1.042288  0
H  H13  1  0.78470895  0.48902389  0.62538275  1  0  0.116389  0  0.970937  0  0  0.1185  0  1.04066  0  0  0.122246  0  1.038622  0  0  0.109634  0.115824  0  1.042253  0
H  H14  1  0.71529952  0.48901913  0.12538003  1  0  0.116354  0  0.970981  0  0  0.118509  0  1.040663  0  0  0.122253  0  1.03863  0  0  0.109635  0.115841  0  1.042255  0
H  H15  1  0.21529507  0.51098149  0.37462111  1  0  0.116417  0  0.970987  0  0  0.118559  0  1.040675  0  0  0.122305  0  1.038641  0  0  0.109666  0.115881  0  1.042274  0
H  H16  1  0.31572709  0.67322840  0.02409094  1  0  0.108529  0  0.972028  0  0  0.112542  0  1.041459  0  0  0.115628  0  1.038879  0  0  0.108493  0.110291  0  1.043247  0
H  H17  1  0.81572498  0.32677074  0.47590875  1  0  0.108495  0  0.97204  0  0  0.112507  0  1.04147  0  0  0.115593  0  1.038887  0  0  0.108489  0.110255  0  1.043254  0
H  H18  1  0.68427693  0.32676093  0.97590696  1  0  0.108445  0  0.972186  0  0  0.112473  0  1.041596  0  0  0.115558  0  1.039015  0  0  0.108437  0.110219  0  1.043385  0
H  H19  1  0.18426902  0.67323836  0.52409298  1  0  0.108456  0  0.972177  0  0  0.112497  0  1.041593  0  0  0.115586  0  1.039006  0  0  0.108447  0.110241  0  1.043378  0
C  C20  1  0.78499494  0.80218092  0.93695515  1  0  0.017295  0  3.54532  0  0  -0.044015  0  3.787542  0  0  -0.034624  0  3.79821  0  0  0.049627  -0.049953  0  3.780612  0
C  C21  1  0.28499977  0.19782430  0.56304595  1  0  0.017083  0  3.545267  0  0  -0.044265  0  3.787519  0  0  -0.034872  0  3.798183  0  0  0.049573  -0.050206  0  3.780598  0
C  C22  1  0.21500073  0.19781583  0.06304036  1  0  0.017217  0  3.545382  0  0  -0.044054  0  3.787558  0  0  -0.034663  0  3.798227  0  0  0.049674  -0.050018  0  3.780612  0
C  C23  1  0.71499256  0.80218109  0.43695667  1  0  0.016974  0  3.545259  0  0  -0.044304  0  3.787456  0  0  -0.034915  0  3.798122  0  0  0.049598  -0.050248  0  3.780533  0
C  C24  1  0.58771922  0.60899275  0.83490292  1  0  0.045104  0  3.583213  0  0  -0.013735  0  3.842197  0  0  -0.004453  0  3.852793  0  0  0.046194  -0.019438  0  3.835071  0
C  C25  1  0.08770930  0.39100552  0.66509883  1  0  0.045101  0  3.583186  0  0  -0.013733  0  3.842125  0  0  -0.004455  0  3.85273  0  0  0.046218  -0.019436  0  3.835001  0
C  C26  1  0.41229315  0.39100029  0.16509410  1  0  0.045073  0  3.583386  0  0  -0.01377  0  3.842369  0  0  -0.004483  0  3.852949  0  0  0.046171  -0.019471  0  3.835239  0
C  C27  1  0.91228637  0.60899986  0.33490503  1  0  0.045083  0  3.583308  0  0  -0.013721  0  3.84224  0  0  -0.004448  0  3.852851  0  0  0.046219  -0.019428  0  3.835121  0
C  C28  1  0.42366292  0.59500444  0.89368948  1  0  -0.072556  0  3.715341  0  0  -0.085197  0  3.979482  0  0  -0.09146  0  3.997239  0  0  -0.071335  -0.081458  0  3.967577  0
C  C29  1  0.92365622  0.40499304  0.60631141  1  0  -0.072589  0  3.71533  0  0  -0.085232  0  3.979449  0  0  -0.091498  0  3.997208  0  0  -0.071352  -0.081492  0  3.967549  0
C  C30  1  0.57634444  0.40498982  0.10631265  1  0  -0.072617  0  3.7151  0  0  -0.085322  0  3.979285  0  0  -0.091584  0  3.997042  0  0  -0.071411  -0.081588  0  3.967404  0
C  C31  1  0.07634613  0.59500371  0.39368785  1  0  -0.0727  0  3.715071  0  0  -0.085369  0  3.979195  0  0  -0.091639  0  3.99696  0  0  -0.071434  -0.081631  0  3.967293  0
C  C32  1  0.62462494  0.78884040  0.99818901  1  0  -0.082403  0  3.743674  0  0  -0.057851  0  3.985811  0  0  -0.069864  0  4.008772  0  0  -0.006995  -0.050633  0  3.970931  0
C  C33  1  0.12462148  0.21116151  0.50180996  1  0  -0.082328  0  3.743637  0  0  -0.057777  0  3.985793  0  0  -0.06979  0  4.008749  0  0  -0.007022  -0.050562  0  3.970917  0
C  C34  1  0.37537574  0.21115263  0.00181113  1  0  -0.082526  0  3.743953  0  0  -0.057996  0  3.986125  0  0  -0.070014  0  4.009089  0  0  -0.007098  -0.050698  0  3.971143  0
C  C35  1  0.87537586  0.78883894  0.49819029  1  0  -0.082214  0  3.743536  0  0  -0.057684  0  3.985695  0  0  -0.069695  0  4.008652  0  0  -0.006971  -0.050462  0  3.970805  0
C  C36  1  0.44053236  0.68516442  0.97629831  1  0  -0.012693  0  3.66569  0  0  -0.046342  0  3.916087  0  0  -0.039536  0  3.931503  0  0  -0.063377  -0.050376  0  3.905516  0
C  C37  1  0.94052972  0.31483673  0.52370169  1  0  -0.01261  0  3.665732  0  0  -0.046241  0  3.916093  0  0  -0.039435  0  3.931508  0  0  -0.063327  -0.050271  0  3.905515  0
C  C38  1  0.55948169  0.31481874  0.02369461  1  0  -0.012521  0  3.665341  0  0  -0.046164  0  3.915728  0  0  -0.039354  0  3.931139  0  0  -0.063229  -0.050222  0  3.905141  0
C  C39  1  0.05947430  0.68517484  0.47630340  1  0  -0.012549  0  3.665465  0  0  -0.046242  0  3.915881  0  0  -0.039434  0  3.931292  0  0  -0.06329  -0.05027  0  3.905299  0
C  C40  1  0.65610547  0.87843242  0.08875181  1  0  0.664833  0  3.907229  0  0  0.610533  0  4.203008  0  0  0.64445  0  4.198491  0  0  0.214723  0.587604  0  4.205252  0
C  C41  1  0.15611827  0.12157699  0.41124960  1  0  0.66473  0  3.907308  0  0  0.610394  0  4.203147  0  0  0.644311  0  4.198631  0  0  0.214589  0.587465  0  4.205391  0
C  C42  1  0.34388185  0.12156185  0.91124845  1  0  0.664858  0  3.907226  0  0  0.610524  0  4.203041  0  0  0.644442  0  4.198522  0  0  0.214648  0.587571  0  4.205279  0
C  C43  1  0.84388242  0.87843582  0.58875125  1  0  0.664676  0  3.907164  0  0  0.610356  0  4.202964  0  0  0.644272  0  4.198444  0  0  0.214574  0.587426  0  4.20521  0
N  N44  1  0.07541393  0.74885604  0.17132194  1  0  0.431314  0  4.162973  0  0  0.458565  0  4.444865  0  0  0.47491  0  4.472265  0  0  0.101421  0.447421  0  4.426666  0
N  N45  1  0.57541596  0.25116467  0.32868749  1  0  0.431276  0  4.163294  0  0  0.458479  0  4.445195  0  0  0.47482  0  4.472583  0  0  0.101351  0.447333  0  4.427006  0
N  N46  1  0.92458676  0.25116416  0.82868776  1  0  0.431295  0  4.163229  0  0  0.458508  0  4.445122  0  0  0.474851  0  4.472507  0  0  0.10137  0.447366  0  4.426928  0
N  N47  1  0.42458139  0.74885060  0.67132109  1  0  0.431215  0  4.163027  0  0  0.458455  0  4.444927  0  0  0.474799  0  4.472328  0  0  0.101338  0.44731  0  4.426724  0
N  N48  1  0.76395983  0.71258054  0.85695665  1  0  0.234513  0  3.748436  0  0  0.325042  0  3.958161  0  0  0.322689  0  3.979763  0  0  -0.111099  0.325819  0  3.94355  0
N  N49  1  0.26394891  0.28741979  0.64304398  1  0  0.234661  0  3.748249  0  0  0.325225  0  3.957886  0  0  0.322872  0  3.979486  0  0  -0.11096  0.326001  0  3.943277  0
N  N50  1  0.23604419  0.28741992  0.14304173  1  0  0.234616  0  3.748105  0  0  0.325126  0  3.957794  0  0  0.322774  0  3.979395  0  0  -0.111041  0.325905  0  3.943193  0
N  N51  1  0.73605010  0.71257695  0.35695653  1  0  0.234726  0  3.748163  0  0  0.325233  0  3.957815  0  0  0.322878  0  3.979417  0  0  -0.110988  0.326009  0  3.943206  0
N  N52  1  0.10850670  0.87085401  0.22576038  1  0  -0.6444  0  2.883834  0  0  -0.595931  0  3.236145  0  0  -0.622219  0  3.232311  0  0  -0.336557  -0.578151  0  3.239068  0
N  N53  1  0.60851459  0.12913945  0.27423823  1  0  -0.644787  0  2.883219  0  0  -0.596239  0  3.235498  0  0  -0.622549  0  3.231666  0  0  -0.336718  -0.578444  0  3.238416  0
N  N54  1  0.89148897  0.12914150  0.77423751  1  0  -0.644767  0  2.883195  0  0  -0.596239  0  3.2355  0  0  -0.622551  0  3.231669  0  0  -0.336715  -0.578446  0  3.238419  0
N  N55  1  0.39148943  0.87084740  0.72575943  1  0  -0.644349  0  2.883893  0  0  -0.595845  0  3.236149  0  0  -0.622131  0  3.232315  0  0  -0.33651  -0.578068  0  3.239073  0
N  N56  1  0.03998776  0.63142048  0.12072714  1  0  -0.309285  0  2.411502  0  0  -0.301471  0  2.633362  0  0  -0.30698  0  2.643377  0  0  -0.133245  -0.297859  0  2.626997  0
N  N57  1  0.53999565  0.36856944  0.37926865  1  0  -0.308825  0  2.41253  0  0  -0.301007  0  2.63443  0  0  -0.306492  0  2.644434  0  0  -0.132901  -0.29741  0  2.628071  0
N  N58  1  0.96000290  0.36856762  0.87927002  1  0  -0.308835  0  2.412512  0  0  -0.301012  0  2.634395  0  0  -0.306493  0  2.64439  0  0  -0.13292  -0.297417  0  2.628036  0
N  N59  1  0.46000837  0.63141618  0.62072639  1  0  -0.309242  0  2.41147  0  0  -0.301417  0  2.63332  0  0  -0.306927  0  2.643335  0  0  -0.133227  -0.297801  0  2.626948  0
O  O60  1  0.81008796  0.98773342  0.10270442  1  0  -0.653584  0  2.075065  0  0  -0.587686  0  2.338618  0  0  -0.617314  0  2.328616  0  0  -0.316868  -0.566785  0  2.344584  0
O  O61  1  0.31009309  0.01226821  0.39729553  1  0  -0.653497  0  2.075025  0  0  -0.587608  0  2.338614  0  0  -0.617238  0  2.328613  0  0  -0.316794  -0.566709  0  2.344577  0
O  O62  1  0.18990938  0.01226333  0.89729359  1  0  -0.65356  0  2.075282  0  0  -0.587629  0  2.338816  0  0  -0.617255  0  2.328813  0  0  -0.316801  -0.566735  0  2.344792  0
O  O63  1  0.68990425  0.98773594  0.60270696  1  0  -0.653439  0  2.075051  0  0  -0.587539  0  2.338626  0  0  -0.617165  0  2.328622  0  0  -0.316713  -0.566638  0  2.344594  0
O  O64  1  0.52914945  0.83436677  0.14335261  1  0  -0.631197  0  2.077522  0  0  -0.569316  0  2.341241  0  0  -0.597201  0  2.332547  0  0  -0.310411  -0.549718  0  2.346535  0
O  O65  1  0.02916379  0.16564296  0.35664515  1  0  -0.631231  0  2.077509  0  0  -0.56932  0  2.341251  0  0  -0.597205  0  2.33256  0  0  -0.310361  -0.54972  0  2.346541  0
O  O66  1  0.47085123  0.16562998  0.85664603  1  0  -0.63122  0  2.077326  0  0  -0.56935  0  2.341115  0  0  -0.597238  0  2.332424  0  0  -0.310414  -0.549751  0  2.346415  0
O  O67  1  0.97084691  0.83436491  0.64335396  1  0  -0.631231  0  2.077461  0  0  -0.569338  0  2.341196  0  0  -0.597224  0  2.332505  0  0  -0.310407  -0.549735  0  2.346488  0
O  O68  1  0.91974997  0.71599371  0.79774141  1  0  -0.546174  0  1.872258  0  0  -0.504226  0  2.127403  0  0  -0.529585  0  2.121821  0  0  -0.247132  -0.485985  0  2.13054  0
O  O69  1  0.41974226  0.28400377  0.70226011  1  0  -0.546263  0  1.87219  0  0  -0.504257  0  2.127246  0  0  -0.529615  0  2.12166  0  0  -0.247209  -0.486019  0  2.130392  0
O  O70  1  0.08024905  0.28400922  0.20225658  1  0  -0.54625  0  1.872178  0  0  -0.504288  0  2.127331  0  0  -0.529649  0  2.121748  0  0  -0.247179  -0.486037  0  2.130447  0
O  O71  1  0.58025675  0.71599791  0.29774026  1  0  -0.546321  0  1.872206  0  0  -0.50431  0  2.127286  0  0  -0.529669  0  2.121701  0  0  -0.24722  -0.486071  0  2.13042  0
