# generated using pymatgen
data_Al2H10C21S2(NO7)2
_symmetry_space_group_name_H-M   'P 1'
_cell_length_a   6.62540981
_cell_length_b   11.19886543
_cell_length_c   12.77183820
_cell_angle_alpha   80.95414190
_cell_angle_beta   73.90658417
_cell_angle_gamma   71.59301808
_symmetry_Int_Tables_number   1
_chemical_formula_structural   Al2H10C21S2(NO7)2
_chemical_formula_sum   'Al2 H10 C21 S2 N2 O14'
_cell_volume   861.38485922
_cell_formula_units_Z   1
loop_
 _symmetry_equiv_pos_site_id
 _symmetry_equiv_pos_as_xyz
  1  'x, y, z'
loop_
 _atom_site_type_symbol
 _atom_site_label
 _atom_site_symmetry_multiplicity
 _atom_site_fract_x
 _atom_site_fract_y
 _atom_site_fract_z
 _atom_site_occupancy
 _atom_site_pbe_bader_charge
 _atom_site_pbe_bader_spin_density
 _atom_site_pbe_cm5_charge
 _atom_site_pbe_ddec_charge
 _atom_site_pbe_ddec_spin_density
 _atom_site_pbe_ddec_sum_bond_order
 _atom_site_pbe_magmom
Al  Al0  1  0.48067932  0.50572824  0.49880524  1  2.503804  0  0.394388  1.634977  0  2.586089  0
Al  Al1  1  0.97868826  0.50986039  0.49751909  1  2.500447  0  0.393265  1.633676  0  2.577255  0
H  H2  1  0.27249781  0.35497375  0.55833963  1  0.624028  0  0.350355  0.424975  0  0.863325  0
H  H3  1  0.76163565  0.58041926  0.36539257  1  0.611483  0  0.343997  0.424148  0  0.87492  0
H  H4  1  0.64373502  0.61097861  0.13442417  1  0.145259  0  0.115581  0.140379  0  0.993139  0
H  H5  1  0.25150986  0.24307338  0.35118284  1  0.170963  0  0.121384  0.139275  0  1.01671  0
H  H6  1  0.48588808  0.77317607  0.38119366  1  0.162504  0  0.128641  0.139489  0  1.034991  0
H  H7  1  0.72756234  0.88712288  0.57485708  1  0.087452  0  0.118507  0.125536  0  0.970079  0
H  H8  1  0.61431521  0.12295730  0.56847842  1  0.093832  0  0.114077  0.116682  0  0.978951  0
H  H9  1  0.30745013  0.38168365  0.77611671  1  0.096983  0  0.099353  0.152368  0  1.009396  0
H  H10  1  0.08682937  0.46250154  0.87748519  1  0.087351  0  0.082337  0.116032  0  1.072668  0
H  H11  1  0.26412618  0.31748436  0.91607467  1  0.058684  0  0.095143  0.135391  0  0.981386  0
C  C12  1  0.84967029  0.27956737  0.48820860  1  1.572512  0  0.272994  0.65288  0  4.081999  0
C  C13  1  0.63030556  0.51479272  0.69213980  1  1.567959  0  0.26142  0.654131  0  4.143189  0
C  C14  1  0.12230999  0.73254683  0.49927082  1  1.546839  0  0.273771  0.641289  0  4.096186  0
C  C15  1  0.32491243  0.51417342  0.30054500  1  1.525187  0  0.257655  0.648177  0  4.141575  0
C  C16  1  0.39919234  0.47308802  0.88477232  1  0.022365  0  -1.8e-05  0.149729  0  3.969373  0
C  C17  1  0.53982674  0.56898127  0.10851655  1  0.037214  0  -0.083613  -0.125454  0  3.946919  0
C  C18  1  0.55821196  0.52154980  0.81071548  1  -0.136032  0  -0.023151  -0.202102  0  3.929334  0
C  C19  1  0.38267305  0.51971139  0.18127456  1  -0.127633  0  -0.019745  -0.122225  0  3.986505  0
C  C20  1  0.54289747  0.55600352  0.99982694  1  -0.123504  0  -0.019078  -0.002779  0  4.081361  0
C  C21  1  0.39195556  0.49470286  0.99228965  1  -0.171147  0  -0.02038  -0.076732  0  4.043966  0
C  C22  1  0.92998595  0.13974866  0.48014679  1  0.016883  0  0.002627  -0.064785  0  3.89895  0
C  C23  1  0.14877228  0.07554455  0.42572439  1  0.033124  0  0.014147  0.078605  0  3.921818  0
C  C24  1  0.78199192  0.07170524  0.53033633  1  -0.044633  0  -0.068095  -0.072493  0  3.964661  0
C  C25  1  0.29954491  0.14038181  0.36032742  1  0.02394  0  -0.064774  -0.14812  0  3.890267  0
C  C26  1  0.50330352  0.07455421  0.30348629  1  0.247129  0  0.08562  0.033491  0  3.949971  0
C  C27  1  0.05950424  0.87352059  0.48889724  1  0.024789  0  0.005832  -0.054673  0  3.90864  0
C  C28  1  0.84531392  0.93942893  0.53439542  1  0.08241  0  -0.07007  -0.086152  0  3.971441  0
C  C29  1  0.21443662  0.93991883  0.43124930  1  -0.025449  0  0.013425  0.074454  0  3.920295  0
C  C30  1  0.42868179  0.87552161  0.37418792  1  0.077847  0  -0.056605  -0.124877  0  3.882663  0
C  C31  1  0.56968570  0.94083162  0.31156490  1  0.171014  0  0.084137  0.02363  0  3.939596  0
C  C32  1  0.25898558  0.40413054  0.86136572  1  -0.101649  0  -0.239611  -0.39872  0  3.950248  0
S  S33  1  0.69345342  0.59158873  0.87191628  1  0.238881  0  0.095385  0.130429  0  2.817893  0
S  S34  1  0.23862332  0.45826482  0.11887144  1  0.267699  0  0.092618  0.143839  0  2.789559  0
N  N35  1  0.63808348  0.14679149  0.22413408  1  0.420216  0  0.057135  0.508113  0  4.258755  0
N  N36  1  0.79501086  0.86728968  0.26275432  1  0.407271  0  0.063393  0.525926  0  4.20528  0
O  O37  1  0.65388592  0.33282735  0.47996294  1  -1.254374  0  -0.232445  -0.594409  0  2.362418  0
O  O38  1  0.81343061  0.53675381  0.64370538  1  -1.258464  0  -0.239626  -0.588208  0  2.322368  0
O  O39  1  0.98922211  0.68151301  0.48244037  1  -1.245231  0  -0.224849  -0.568666  0  2.336544  0
O  O40  1  0.45407253  0.53576915  0.34841164  1  -1.266188  0  -0.240911  -0.595696  0  2.324117  0
O  O41  1  0.30358072  0.67502973  0.52386105  1  -1.250272  0  -0.228206  -0.571421  0  2.345045  0
O  O42  1  0.14489959  0.48771446  0.34846989  1  -1.267456  0  -0.24748  -0.615554  0  2.374047  0
O  O43  1  0.97869075  0.33286573  0.50700174  1  -1.253265  0  -0.23586  -0.596604  0  2.333315  0
O  O44  1  0.50867090  0.48578225  0.64441990  1  -1.262204  0  -0.232645  -0.583778  0  2.368684  0
O  O45  1  0.23553422  0.44615337  0.54588986  1  -1.429236  0  -0.44775  -0.980617  0  2.188106  0
O  O46  1  0.72823196  0.56303616  0.44438408  1  -1.413565  0  -0.449135  -0.989538  0  2.202968  0
O  O47  1  0.66416309  0.23815442  0.25622738  1  -0.451423  0  -0.115287  -0.309492  0  1.950254  0
O  O48  1  0.70756421  0.11243609  0.12999570  1  -0.433142  0  -0.132888  -0.323613  0  1.876591  0
O  O49  1  0.82261151  0.76096898  0.23477712  1  -0.468156  0  -0.122617  -0.330349  0  1.925769  0
O  O50  1  0.94327831  0.91527273  0.25628522  1  -0.443046  0  -0.122347  -0.320566  0  1.925802  0
