# generated using pymatgen
data_CdH14C16S2(N2O)2
_symmetry_space_group_name_H-M   'P 1'
_cell_length_a   5.77524700
_cell_length_b   11.39467399
_cell_length_c   13.76660014
_cell_angle_alpha   90.00069489
_cell_angle_beta   99.54565060
_cell_angle_gamma   90.00097148
_symmetry_Int_Tables_number   1
_chemical_formula_structural   CdH14C16S2(N2O)2
_chemical_formula_sum   'Cd2 H28 C32 S4 N8 O4'
_cell_volume   893.39560520
_cell_formula_units_Z   2
loop_
 _symmetry_equiv_pos_site_id
 _symmetry_equiv_pos_as_xyz
  1  'x, y, z'
loop_
 _atom_site_type_symbol
 _atom_site_label
 _atom_site_symmetry_multiplicity
 _atom_site_fract_x
 _atom_site_fract_y
 _atom_site_fract_z
 _atom_site_occupancy
 _atom_site_hle17_bader_spin_density
 _atom_site_hle17_ddec_charge
 _atom_site_hle17_ddec_spin_density
 _atom_site_hle17_ddec_sum_bond_order
 _atom_site_hle17_magmom
 _atom_site_hse06_10hf_bader_spin_density
 _atom_site_hse06_10hf_ddec_charge
 _atom_site_hse06_10hf_ddec_spin_density
 _atom_site_hse06_10hf_ddec_sum_bond_order
 _atom_site_hse06_10hf_magmom
 _atom_site_hse06_bader_spin_density
 _atom_site_hse06_ddec_charge
 _atom_site_hse06_ddec_spin_density
 _atom_site_hse06_ddec_sum_bond_order
 _atom_site_hse06_magmom
 _atom_site_pbe_bader_spin_density
 _atom_site_pbe_cm5_charge
 _atom_site_pbe_ddec_charge
 _atom_site_pbe_ddec_spin_density
 _atom_site_pbe_ddec_sum_bond_order
 _atom_site_pbe_magmom
Cd  Cd0  1  0.50000569  0.50000463  0.00000402  1  0  0.947216  0  2.018415  0  0  0.761872  0  2.492038  0  0  0.806542  0  2.454644  0  0  0.730821  0.730689  0  2.517368  0
Cd  Cd1  1  0.49998761  0.00000377  0.50000719  1  0  0.947173  0  2.018267  0  0  0.761827  0  2.491859  0  0  0.8065  0  2.454463  0  0  0.730767  0.730646  0  2.517188  0
H  H2  1  0.12217061  0.28788195  0.99563423  1  0  0.081565  0  0.963646  0  0  0.089087  0  1.02878  0  0  0.090556  0  1.028372  0  0  0.113006  0.087921  0  1.029253  0
H  H3  1  0.87782636  0.78788461  0.50436740  1  0  0.081572  0  0.963674  0  0  0.089105  0  1.028786  0  0  0.090573  0  1.028378  0  0  0.113006  0.087939  0  1.029253  0
H  H4  1  0.87785399  0.71211296  0.00436776  1  0  0.081646  0  0.963294  0  0  0.089127  0  1.028476  0  0  0.090601  0  1.028057  0  0  0.113005  0.087936  0  1.02897  0
H  H5  1  0.12215785  0.21211557  0.49563163  1  0  0.08155  0  0.963527  0  0  0.089053  0  1.02869  0  0  0.090524  0  1.028277  0  0  0.112999  0.087892  0  1.029159  0
H  H6  1  0.09148311  0.07708500  0.03662807  1  0  0.113131  0  0.971182  0  0  0.116756  0  1.044093  0  0  0.121391  0  1.040375  0  0  0.108486  0.11341  0  1.046832  0
H  H7  1  0.90850192  0.57708315  0.46337100  1  0  0.113012  0  0.971313  0  0  0.116673  0  1.044203  0  0  0.121307  0  1.040486  0  0  0.108467  0.11333  0  1.046932  0
H  H8  1  0.90850811  0.92292308  0.96337220  1  0  0.112969  0  0.971331  0  0  0.116624  0  1.044211  0  0  0.121258  0  1.040496  0  0  0.108464  0.113275  0  1.046961  0
H  H9  1  0.09149638  0.42292843  0.53662761  1  0  0.112965  0  0.971297  0  0  0.116637  0  1.044183  0  0  0.121273  0  1.040467  0  0  0.108478  0.113295  0  1.046925  0
H  H10  1  0.81795683  0.09186757  0.17923696  1  0  0.1022  0  0.982595  0  0  0.110295  0  1.049068  0  0  0.112889  0  1.049287  0  0  0.102008  0.108414  0  1.049052  0
H  H11  1  0.18203879  0.59186439  0.32076280  1  0  0.102178  0  0.982655  0  0  0.110338  0  1.049078  0  0  0.112933  0  1.049295  0  0  0.10201  0.108458  0  1.049055  0
H  H12  1  0.18205386  0.90812997  0.82075820  1  0  0.102189  0  0.982549  0  0  0.110254  0  1.04908  0  0  0.112856  0  1.049279  0  0  0.101998  0.108374  0  1.049068  0
H  H13  1  0.81794016  0.40813930  0.67923584  1  0  0.102196  0  0.982593  0  0  0.110313  0  1.049061  0  0  0.112912  0  1.049269  0  0  0.102034  0.108429  0  1.049048  0
H  H14  1  0.81789789  0.30240720  0.13205115  1  0  0.073152  0  0.945861  0  0  0.079726  0  1.012878  0  0  0.081814  0  1.011597  0  0  0.110659  0.078109  0  1.013944  0
H  H15  1  0.18210714  0.80240219  0.36795074  1  0  0.073134  0  0.945847  0  0  0.079702  0  1.012892  0  0  0.081792  0  1.01161  0  0  0.110648  0.078088  0  1.013952  0
H  H16  1  0.18212331  0.69758771  0.86794551  1  0  0.073193  0  0.945852  0  0  0.079781  0  1.012855  0  0  0.081877  0  1.011578  0  0  0.110661  0.078164  0  1.013921  0
H  H17  1  0.81788928  0.19759711  0.63205282  1  0  0.073181  0  0.945854  0  0  0.079753  0  1.012885  0  0  0.081848  0  1.011601  0  0  0.110664  0.07814  0  1.013951  0
H  H18  1  0.60901063  0.78229521  0.19566357  1  0  0.137642  0  0.961932  0  0  0.152998  0  1.027512  0  0  0.155575  0  1.026773  0  0  0.08956  0.150993  0  1.028309  0
H  H19  1  0.39097520  0.28228749  0.30432931  1  0  0.13768  0  0.961799  0  0  0.152999  0  1.027437  0  0  0.155577  0  1.026698  0  0  0.089532  0.150995  0  1.02824  0
H  H20  1  0.39098765  0.21769970  0.80433576  1  0  0.137623  0  0.961906  0  0  0.152982  0  1.027483  0  0  0.15556  0  1.026745  0  0  0.089551  0.150982  0  1.028283  0
H  H21  1  0.60900206  0.71770566  0.69566631  1  0  0.137696  0  0.961844  0  0  0.153035  0  1.02744  0  0  0.155615  0  1.0267  0  0  0.089548  0.151028  0  1.028245  0
H  H22  1  0.66188031  0.91230151  0.26959449  1  0  0.137916  0  0.962147  0  0  0.155488  0  1.027363  0  0  0.15594  0  1.029118  0  0  0.095772  0.155104  0  1.026195  0
H  H23  1  0.33810758  0.41230355  0.23040370  1  0  0.137894  0  0.962056  0  0  0.155489  0  1.027265  0  0  0.155943  0  1.029018  0  0  0.095761  0.155103  0  1.026101  0
H  H24  1  0.33810386  0.08769428  0.73040671  1  0  0.137885  0  0.962034  0  0  0.155504  0  1.027198  0  0  0.155957  0  1.028953  0  0  0.095805  0.155122  0  1.026033  0
H  H25  1  0.66190299  0.58769312  0.76959654  1  0  0.137954  0  0.961968  0  0  0.155541  0  1.027169  0  0  0.155996  0  1.028921  0  0  0.095813  0.155153  0  1.026009  0
H  H26  1  0.80427759  0.89452339  0.16673548  1  0  0.139248  0  0.945238  0  0  0.158114  0  1.007564  0  0  0.15985  0  1.00723  0  0  0.098582  0.156832  0  1.007842  0
H  H27  1  0.19570843  0.39452120  0.33326501  1  0  0.139253  0  0.945385  0  0  0.158123  0  1.007707  0  0  0.159857  0  1.007377  0  0  0.098577  0.156843  0  1.007982  0
H  H28  1  0.19572236  0.10546889  0.83326761  1  0  0.139323  0  0.945326  0  0  0.158184  0  1.007654  0  0  0.159919  0  1.007321  0  0  0.098619  0.156908  0  1.00793  0
H  H29  1  0.80427935  0.60547635  0.66673210  1  0  0.139259  0  0.945235  0  0  0.158141  0  1.00754  0  0  0.159876  0  1.007207  0  0  0.098585  0.156874  0  1.007801  0
C  C30  1  0.04165787  0.55545493  0.12027866  1  0  0.29365  0  4.022409  0  0  0.274293  0  4.325376  0  0  0.296184  0  4.337802  0  0  0.14906  0.259392  0  4.316743  0
C  C31  1  0.95833226  0.05545529  0.37972489  1  0  0.293813  0  4.022992  0  0  0.274453  0  4.325929  0  0  0.29634  0  4.338343  0  0  0.149157  0.259561  0  4.317303  0
C  C32  1  0.95836504  0.44454700  0.87972030  1  0  0.293703  0  4.022581  0  0  0.274342  0  4.325543  0  0  0.296232  0  4.337963  0  0  0.149061  0.259441  0  4.316923  0
C  C33  1  0.04165368  0.94454576  0.62027572  1  0  0.293791  0  4.022836  0  0  0.274415  0  4.325807  0  0  0.296304  0  4.338218  0  0  0.149189  0.259523  0  4.317186  0
C  C34  1  0.27241403  0.24160842  0.03668125  1  0  0.126028  0  3.692923  0  0  0.100203  0  3.940269  0  0  0.105545  0  3.960546  0  0  0.048523  0.096738  0  3.926379  0
C  C35  1  0.72759794  0.74160819  0.46331652  1  0  0.125982  0  3.693023  0  0  0.100164  0  3.940368  0  0  0.10551  0  3.960637  0  0  0.048499  0.096703  0  3.926468  0
C  C36  1  0.72761238  0.75839263  0.96331870  1  0  0.125951  0  3.692639  0  0  0.100181  0  3.939968  0  0  0.105527  0  3.960229  0  0  0.048512  0.096738  0  3.926077  0
C  C37  1  0.27238806  0.25839374  0.53668119  1  0  0.126133  0  3.692825  0  0  0.10032  0  3.940164  0  0  0.105668  0  3.960421  0  0  0.048541  0.096849  0  3.926279  0
C  C38  1  0.25566407  0.12370190  0.05995384  1  0  -0.119342  0  3.699023  0  0  -0.142882  0  3.950978  0  0  -0.148547  0  3.971157  0  0  -0.075607  -0.138942  0  3.937175  0
C  C39  1  0.74432804  0.62370104  0.44004972  1  0  -0.119318  0  3.699424  0  0  -0.142886  0  3.951356  0  0  -0.148551  0  3.971534  0  0  -0.075657  -0.138948  0  3.937551  0
C  C40  1  0.74433576  0.87630004  0.94005433  1  0  -0.119236  0  3.69907  0  0  -0.142809  0  3.950971  0  0  -0.148472  0  3.971151  0  0  -0.07565  -0.138871  0  3.937155  0
C  C41  1  0.25566496  0.37629738  0.55994995  1  0  -0.119241  0  3.699526  0  0  -0.142831  0  3.951408  0  0  -0.148495  0  3.971588  0  0  -0.075622  -0.138904  0  3.937607  0
C  C42  1  0.45239415  0.06568302  0.11122583  1  0  -0.005201  0  3.718188  0  0  0.010741  0  3.949888  0  0  0.009871  0  3.972467  0  0  -0.003017  0.01156  0  3.934364  0
C  C43  1  0.54761737  0.56568763  0.38876638  1  0  -0.005218  0  3.717812  0  0  0.010771  0  3.949493  0  0  0.009904  0  3.972069  0  0  -0.002977  0.011583  0  3.933978  0
C  C44  1  0.54762011  0.93431364  0.88876669  1  0  -0.005214  0  3.718067  0  0  0.010867  0  3.949691  0  0  0.009998  0  3.972267  0  0  -0.00291  0.011686  0  3.934168  0
C  C45  1  0.45237403  0.43431342  0.61122591  1  0  -0.005316  0  3.718246  0  0  0.01077  0  3.949888  0  0  0.0099  0  3.972464  0  0  -0.003048  0.011602  0  3.934355  0
C  C46  1  0.65844004  0.13078795  0.13861299  1  0  -0.110115  0  3.666773  0  0  -0.128426  0  3.906777  0  0  -0.13475  0  3.928997  0  0  -0.071525  -0.12448  0  3.892047  0
C  C47  1  0.34155034  0.63078301  0.36139077  1  0  -0.110101  0  3.666557  0  0  -0.128483  0  3.906573  0  0  -0.134808  0  3.928793  0  0  -0.071528  -0.124539  0  3.891846  0
C  C48  1  0.34156517  0.86921310  0.86139121  1  0  -0.11005  0  3.666682  0  0  -0.128394  0  3.906708  0  0  -0.134713  0  3.928931  0  0  -0.071549  -0.124455  0  3.891988  0
C  C49  1  0.65844097  0.36921541  0.63860587  1  0  -0.109968  0  3.666445  0  0  -0.128343  0  3.906441  0  0  -0.134664  0  3.92866  0  0  -0.071498  -0.124406  0  3.891728  0
C  C50  1  0.66060813  0.24881533  0.11210834  1  0  0.141809  0  3.686839  0  0  0.11346  0  3.937133  0  0  0.119971  0  3.955227  0  0  0.05389  0.109199  0  3.924927  0
C  C51  1  0.33940208  0.74881065  0.38789036  1  0  0.141831  0  3.686894  0  0  0.113471  0  3.937274  0  0  0.119977  0  3.955373  0  0  0.053905  0.109197  0  3.925071  0
C  C52  1  0.33940956  0.75118309  0.88788806  1  0  0.141787  0  3.686716  0  0  0.113445  0  3.937048  0  0  0.11994  0  3.955157  0  0  0.053959  0.10918  0  3.924846  0
C  C53  1  0.66059271  0.25118777  0.61210800  1  0  0.141787  0  3.686853  0  0  0.11345  0  3.937196  0  0  0.119952  0  3.955296  0  0  0.053936  0.109179  0  3.925  0
C  C54  1  0.43372750  0.93647691  0.13285059  1  0  0.484822  0  3.676466  0  0  0.473499  0  3.943088  0  0  0.492566  0  3.947325  0  0  0.163945  0.460492  0  3.939739  0
C  C55  1  0.56629528  0.43646652  0.36716336  1  0  0.485079  0  3.676699  0  0  0.473759  0  3.943311  0  0  0.492819  0  3.947547  0  0  0.16405  0.460753  0  3.939974  0
C  C56  1  0.56626870  0.06352590  0.86716312  1  0  0.484971  0  3.676249  0  0  0.473476  0  3.9431  0  0  0.49254  0  3.94734  0  0  0.163931  0.46048  0  3.939743  0
C  C57  1  0.43373980  0.56352225  0.63284158  1  0  0.484992  0  3.676248  0  0  0.47347  0  3.943125  0  0  0.492537  0  3.947367  0  0  0.163927  0.46046  0  3.939774  0
C  C58  1  0.63934678  0.87697548  0.19417108  1  0  -0.438852  0  3.674785  0  0  -0.517627  0  3.904426  0  0  -0.522963  0  3.910122  0  0  -0.252117  -0.51359  0  3.900471  0
C  C59  1  0.36064098  0.37697025  0.30582760  1  0  -0.438973  0  3.674289  0  0  -0.517784  0  3.903974  0  0  -0.523117  0  3.909669  0  0  -0.252139  -0.51375  0  3.900029  0
C  C60  1  0.36065140  0.12302206  0.80583260  1  0  -0.438966  0  3.674701  0  0  -0.517726  0  3.904391  0  0  -0.523062  0  3.910087  0  0  -0.252179  -0.513695  0  3.900438  0
C  C61  1  0.63934852  0.62302466  0.69417109  1  0  -0.439031  0  3.674626  0  0  -0.517765  0  3.904315  0  0  -0.523105  0  3.910009  0  0  -0.252155  -0.513739  0  3.900355  0
S  S62  1  0.80545691  0.55433572  0.17046799  1  0  -0.323366  0  2.16809  0  0  -0.288376  0  2.490402  0  0  -0.304867  0  2.48431  0  0  -0.124182  -0.276618  0  2.494429  0
S  S63  1  0.19454748  0.05432608  0.32952722  1  0  -0.323531  0  2.167698  0  0  -0.288516  0  2.489951  0  0  -0.305013  0  2.483859  0  0  -0.124224  -0.276766  0  2.493985  0
S  S64  1  0.19456952  0.44566358  0.82953051  1  0  -0.323453  0  2.168056  0  0  -0.288467  0  2.490371  0  0  -0.304966  0  2.484292  0  0  -0.124226  -0.276706  0  2.494406  0
S  S65  1  0.80544027  0.94567497  0.67047134  1  0  -0.32349  0  2.167707  0  0  -0.288472  0  2.489983  0  0  -0.304987  0  2.483925  0  0  -0.124229  -0.276722  0  2.494026  0
N  N66  1  0.21382828  0.55856057  0.08434929  1  0  -0.526432  0  2.902481  0  0  -0.472417  0  3.184123  0  0  -0.492585  0  3.18972  0  0  -0.395317  -0.458631  0  3.180261  0
N  N67  1  0.78619536  0.05856220  0.41565073  1  0  -0.526465  0  2.903306  0  0  -0.472457  0  3.184919  0  0  -0.492616  0  3.190502  0  0  -0.395384  -0.458682  0  3.181066  0
N  N68  1  0.78619638  0.44143873  0.91564980  1  0  -0.526478  0  2.902555  0  0  -0.472474  0  3.184177  0  0  -0.492638  0  3.189768  0  0  -0.395332  -0.458689  0  3.18032  0
N  N69  1  0.21378883  0.94143885  0.58434975  1  0  -0.526423  0  2.903149  0  0  -0.472412  0  3.18478  0  0  -0.492569  0  3.190359  0  0  -0.395408  -0.458634  0  3.180926  0
N  N70  1  0.47228089  0.30338092  0.06154148  1  0  -0.319938  0  3.257001  0  0  -0.245658  0  3.515259  0  0  -0.264327  0  3.53632  0  0  -0.320236  -0.232747  0  3.500577  0
N  N71  1  0.52772779  0.80337411  0.43845482  1  0  -0.319917  0  3.257034  0  0  -0.245662  0  3.515359  0  0  -0.264335  0  3.536424  0  0  -0.320233  -0.232752  0  3.500676  0
N  N72  1  0.52774201  0.69662189  0.93845749  1  0  -0.319954  0  3.257023  0  0  -0.245726  0  3.515349  0  0  -0.264399  0  3.536428  0  0  -0.320261  -0.232805  0  3.500647  0
N  N73  1  0.47226532  0.19662606  0.56153978  1  0  -0.320049  0  3.257107  0  0  -0.245796  0  3.515421  0  0  -0.264469  0  3.536491  0  0  -0.320272  -0.232874  0  3.500735  0
O  O74  1  0.25078439  0.88385836  0.10047015  1  0  -0.461505  0  1.90016  0  0  -0.420164  0  2.10092  0  0  -0.437338  0  2.099857  0  0  -0.256874  -0.40845  0  2.101538  0
O  O75  1  0.74918426  0.38386574  0.39951949  1  0  -0.461504  0  1.901278  0  0  -0.42019  0  2.102081  0  0  -0.43737  0  2.101031  0  0  -0.256889  -0.408467  0  2.102691  0
O  O76  1  0.74920508  0.11614533  0.89952999  1  0  -0.461532  0  1.900167  0  0  -0.420165  0  2.101049  0  0  -0.437336  0  2.099985  0  0  -0.256874  -0.408451  0  2.101665  0
O  O77  1  0.25078773  0.61614497  0.60047574  1  0  -0.461553  0  1.899939  0  0  -0.420165  0  2.10081  0  0  -0.437336  0  2.099748  0  0  -0.256856  -0.408448  0  2.101428  0
