# generated using pymatgen
data_CuBH13(C3N2)4
_symmetry_space_group_name_H-M   'P 1'
_cell_length_a   7.58410977
_cell_length_b   13.32075453
_cell_length_c   14.69672737
_cell_angle_alpha   104.67063622
_cell_angle_beta   90.00034150
_cell_angle_gamma   89.99965778
_symmetry_Int_Tables_number   1
_chemical_formula_structural   CuBH13(C3N2)4
_chemical_formula_sum   'Cu4 B4 H52 C48 N32'
_cell_volume   1436.34614424
_cell_formula_units_Z   4
loop_
 _symmetry_equiv_pos_site_id
 _symmetry_equiv_pos_as_xyz
  1  'x, y, z'
loop_
 _atom_site_type_symbol
 _atom_site_label
 _atom_site_symmetry_multiplicity
 _atom_site_fract_x
 _atom_site_fract_y
 _atom_site_fract_z
 _atom_site_occupancy
 _atom_site_hle17_ddec_charge
 _atom_site_hle17_ddec_spin_density
 _atom_site_hle17_ddec_sum_bond_order
 _atom_site_hle17_magmom
 _atom_site_hse06_10hf_ddec_charge
 _atom_site_hse06_10hf_ddec_spin_density
 _atom_site_hse06_10hf_ddec_sum_bond_order
 _atom_site_hse06_10hf_magmom
 _atom_site_hse06_ddec_charge
 _atom_site_hse06_ddec_spin_density
 _atom_site_hse06_ddec_sum_bond_order
 _atom_site_hse06_magmom
 _atom_site_pbe_cm5_charge
 _atom_site_pbe_ddec_charge
 _atom_site_pbe_ddec_spin_density
 _atom_site_pbe_ddec_sum_bond_order
 _atom_site_pbe_magmom
Cu  Cu0  1  0.46937365  0.79145220  0.40903538  1  0.683859  -0.713202  2.049915  -0.527  0.622989  -0.78741  2.459844  -0.624  0.701256  -0.850176  2.403946  -0.697  0.78995  0.576944  -0.744192  2.496582  -0.578
Cu  Cu1  1  0.96936235  0.70852977  0.09097546  1  0.683837  -0.713182  2.049885  -0.527  0.62323  -0.787378  2.459377  -0.624  0.701501  -0.850161  2.403489  -0.697  0.78996  0.577173  -0.744156  2.496125  -0.578
Cu  Cu2  1  0.53044172  0.20849272  0.59093699  1  0.679178  0.742037  2.053831  0.498  0.620021  0.82929  2.464094  0.611  0.699352  0.919686  2.407825  0.691  0.787803  0.571706  0.739662  2.501298  0.541
Cu  Cu3  1  0.03043982  0.29151758  0.90905108  1  0.679355  -0.675994  2.053496  -0.498  0.619907  -0.773382  2.464039  -0.611  0.699294  -0.844222  2.407791  -0.691  0.787764  0.571592  -0.698497  2.501235  -0.541
B  B4  1  0.47284532  0.77172129  0.61850510  1  0.483395  0.00015  3.232679  0.0  0.291643  -0.000225  3.571795  -0.001  0.310238  -0.000117  3.57371  0.0  -0.058223  0.278463  -0.000336  3.571604  -0.001
B  B5  1  0.97284106  0.72826834  0.88150162  1  0.483559  0.00015  3.232598  0.0  0.291841  -0.000224  3.571659  -0.001  0.310458  -0.000119  3.573511  0.0  -0.058113  0.27868  -0.000336  3.571466  -0.001
B  B6  1  0.52707685  0.22832132  0.38173060  1  0.48301  -0.000166  3.232447  0.0  0.292014  0.00017  3.570099  0.0  0.310759  9.5e-05  3.571624  0.0  -0.058772  0.278669  0.000232  3.570454  0.001
B  B7  1  0.02710484  0.27169684  0.11825768  1  0.482947  0.000199  3.232404  0.0  0.291887  -0.00014  3.570131  0.0  0.310583  -6.5e-05  3.571769  0.0  -0.058828  0.27859  -0.000208  3.570468  -0.001
H  H8  1  0.15135192  0.68023848  0.28245709  1  0.075718  0.000382  0.950676  0.0  0.082031  2.9e-05  1.02164  0.0  0.08251  6.1e-05  1.020333  0.0  0.122106  0.081401  -1.2e-05  1.022824  0.0
H  H9  1  0.65132789  0.81972980  0.21754824  1  0.075643  0.000339  0.951145  0.0  0.082118  -6e-06  1.021897  0.0  0.082547  2.6e-05  1.020643  0.0  0.122091  0.081487  -4.4e-05  1.023086  0.0
H  H10  1  0.84939961  0.32053305  0.71729703  1  0.075764  1.6e-05  0.951338  0.0  0.082323  6.1e-05  1.021549  0.0  0.082627  5.9e-05  1.020281  0.0  0.122757  0.081886  6.2e-05  1.022753  0.0
H  H11  1  0.34937882  0.17947464  0.78269758  1  0.075765  5.6e-05  0.95143  0.0  0.082311  -1.7e-05  1.021628  0.0  0.082618  -1.2e-05  1.020359  0.0  0.122772  0.081871  -2e-05  1.022833  0.0
H  H12  1  0.36932364  0.97829718  0.31297513  1  0.099193  -0.000604  0.968077  -0.001  0.104014  -0.000704  1.033453  -0.001  0.105286  -0.000491  1.03381  -0.001  0.108092  0.102961  -0.000882  1.033421  -0.001
H  H13  1  0.86935197  0.52168356  0.18704804  1  0.099214  -0.000578  0.968197  -0.001  0.104024  -0.000679  1.033583  -0.001  0.105296  -0.000471  1.03394  -0.001  0.108093  0.102971  -0.000853  1.033548  -0.001
H  H14  1  0.63030844  0.02279472  0.68717854  1  0.099632  -0.000631  0.96885  0.0  0.105007  -0.00032  1.033493  0.0  0.106308  -0.000263  1.033857  0.0  0.10854  0.103819  -0.000331  1.033543  0.0
H  H15  1  0.13027353  0.47720827  0.81280137  1  0.099437  0.000702  0.969085  0.0  0.104897  0.000364  1.033627  0.0  0.106215  0.000301  1.033972  0.0  0.108495  0.103692  0.000379  1.033699  0.0
H  H16  1  0.13698853  0.93337113  0.16014210  1  0.093531  -0.000574  0.993453  -0.001  0.098297  -0.000773  1.063295  -0.001  0.099036  -0.000562  1.064262  -0.001  0.1074  0.097562  -0.000944  1.062852  -0.001
H  H17  1  0.63704586  0.56662124  0.33988641  1  0.093782  -0.000575  0.993939  -0.001  0.098621  -0.000789  1.063642  -0.001  0.099366  -0.000574  1.064598  -0.001  0.10745  0.097885  -0.000962  1.063199  -0.001
H  H18  1  0.86340436  0.06768814  0.84009593  1  0.09378  0.000526  0.992361  0.0  0.09881  0.000239  1.06193  0.0  0.099554  0.000199  1.062907  0.0  0.107826  0.097979  0.000252  1.061544  0.0
H  H19  1  0.36342878  0.43232649  0.65991392  1  0.093899  -0.00048  0.992334  0.0  0.09884  -0.000227  1.061999  0.0  0.099572  -0.000185  1.062989  0.0  0.107824  0.098019  -0.000242  1.061599  0.0
H  H20  1  0.90523762  0.77723712  0.40231496  1  0.098332  0.000157  0.956579  0.0  0.109233  1.8e-05  1.017112  0.0  0.111038  4e-05  1.015787  0.0  0.118638  0.107922  -6e-06  1.01798  0.0
H  H21  1  0.40521570  0.72276058  0.09770270  1  0.098108  0.00015  0.956754  0.0  0.109026  9e-06  1.017326  0.0  0.110844  3.2e-05  1.015963  0.0  0.118545  0.107711  -1.6e-05  1.018195  0.0
H  H22  1  0.09424415  0.22302751  0.59774315  1  0.097723  -1.1e-05  0.957132  0.0  0.109001  6.2e-05  1.017275  0.0  0.110956  3.5e-05  1.01576  0.0  0.118212  0.107483  8.2e-05  1.018374  0.0
H  H23  1  0.59424102  0.27695774  0.90224957  1  0.097829  2e-05  0.957139  0.0  0.109031  -6.1e-05  1.017354  0.0  0.110988  -3.1e-05  1.01584  0.0  0.118213  0.107514  -8.3e-05  1.018455  0.0
H  H24  1  0.08791128  0.75340459  0.55698578  1  0.127229  -0.000501  1.004549  -0.001  0.131315  -0.000406  1.066711  -0.001  0.133694  -0.000306  1.068298  0.0  0.108537  0.129638  -0.000488  1.065692  -0.001
H  H25  1  0.58789437  0.74659019  0.94303179  1  0.12722  -0.000508  1.004552  -0.001  0.131225  -0.000415  1.066811  -0.001  0.133621  -0.000315  1.068354  0.0  0.108495  0.129542  -0.000497  1.065803  -0.001
H  H26  1  0.91181047  0.24642630  0.44284880  1  0.127349  0.000506  1.004568  0.001  0.13166  0.000426  1.066381  0.001  0.134017  0.000331  1.067981  0.0  0.108642  0.129973  0.000482  1.065417  0.001
H  H27  1  0.41186298  0.25358359  0.05716193  1  0.127212  -0.000473  1.004694  -0.001  0.13141  -0.000407  1.066672  -0.001  0.133762  -0.000313  1.068278  0.0  0.108522  0.129735  -0.000463  1.065697  -0.001
H  H28  1  0.82676998  0.75539761  0.68873890  1  0.094723  -0.000471  0.973791  -0.001  0.105193  -0.000321  1.038693  0.0  0.107395  -0.000225  1.036221  0.0  0.116285  0.103533  -0.000399  1.040487  -0.001
H  H29  1  0.32675818  0.74458552  0.81127335  1  0.094737  -0.000471  0.973977  -0.001  0.105208  -0.00032  1.038846  0.0  0.107411  -0.000224  1.036373  0.0  0.116288  0.103553  -0.000398  1.040633  -0.001
H  H30  1  0.17320624  0.24450075  0.31124862  1  0.094795  0.00051  0.973643  0.001  0.105276  0.000352  1.038529  0.0  0.10748  0.000261  1.036063  0.0  0.116226  0.103607  0.000405  1.040324  0.0
H  H31  1  0.67328002  0.25555262  0.18875637  1  0.095028  -0.000458  0.973506  -0.001  0.105491  -0.000326  1.038375  0.0  0.107693  -0.000234  1.035909  0.0  0.116329  0.103828  -0.00038  1.04016  0.0
H  H32  1  0.21236376  0.00058988  0.47260644  1  0.101551  3e-05  0.949629  0.0  0.112491  -4.9e-05  1.009552  0.0  0.114307  -2.4e-05  1.008475  0.0  0.119442  0.111208  -7.3e-05  1.010258  0.0
H  H33  1  0.71236109  0.49940903  0.02739841  1  0.101584  0.00011  0.949594  0.0  0.112531  -1e-06  1.009486  0.0  0.11435  2.2e-05  1.008408  0.0  0.11949  0.111237  -2.7e-05  1.010211  0.0
H  H34  1  0.78802122  0.99928671  0.52745094  1  0.101336  2.3e-05  0.949942  0.0  0.112518  7.2e-05  1.009401  0.0  0.114418  5.4e-05  1.00822  0.0  0.119412  0.111125  8.6e-05  1.010253  0.0
H  H35  1  0.28805949  0.50072061  0.97253001  1  0.101097  7.8e-05  0.949889  0.0  0.112332  -1e-05  1.009334  0.0  0.114221  6e-06  1.008155  0.0  0.119385  0.110942  -2.4e-05  1.010183  0.0
H  H36  1  0.09321539  0.06331491  0.65604878  1  0.124947  -0.000444  0.982612  -0.001  0.134345  -0.0004  1.041386  -0.001  0.137233  -0.0003  1.042222  0.0  0.104536  0.132325  -0.000486  1.040904  -0.001
H  H37  1  0.59321417  0.43668665  0.84395109  1  0.124939  -0.000557  0.982647  -0.001  0.134348  -0.000454  1.041401  -0.001  0.137231  -0.000344  1.042236  0.0  0.104538  0.132327  -0.000545  1.040921  -0.001
H  H38  1  0.90669095  0.93675574  0.34392188  1  0.125004  0.000604  0.982227  0.001  0.134432  0.00051  1.040956  0.001  0.137285  0.000404  1.041821  0.0  0.104712  0.132479  0.000574  1.040403  0.001
H  H39  1  0.40671327  0.56323576  0.15605830  1  0.124902  -0.000379  0.982471  -0.001  0.134332  -0.000356  1.041196  0.0  0.137178  -0.000263  1.042064  0.0  0.104647  0.132379  -0.000417  1.040639  -0.001
H  H40  1  0.25621214  0.92629636  0.74229924  1  0.095128  -0.000509  0.960313  -0.001  0.108818  -0.000374  1.018113  0.0  0.11103  -0.000265  1.015498  0.0  0.122289  0.107129  -0.000465  1.020025  -0.001
H  H41  1  0.75621575  0.57370485  0.75770538  1  0.095147  -0.00052  0.960297  -0.001  0.10881  -0.000386  1.018126  0.0  0.111021  -0.000275  1.015512  0.0  0.122302  0.107119  -0.000476  1.020037  -0.001
H  H42  1  0.74330392  0.07385413  0.25792179  1  0.094655  0.000536  0.959713  0.001  0.108425  0.000396  1.017506  0.0  0.110647  0.000295  1.014884  0.0  0.122218  0.106728  0.000459  1.019414  0.0
H  H43  1  0.24330426  0.42614625  0.24204743  1  0.094815  -0.000485  0.959589  -0.001  0.10855  -0.000373  1.0174  0.0  0.110775  -0.000273  1.014775  0.0  0.12232  0.106853  -0.000434  1.019313  0.0
H  H44  1  0.22534060  0.53829860  0.36715961  1  0.075207  -7e-06  0.97302  0.0  0.090954  -1.8e-05  1.02945  0.0  0.092794  -1.3e-05  1.027347  0.0  0.109871  0.089562  -2.4e-05  1.030976  0.0
H  H45  1  0.72531834  0.96169582  0.13283427  1  0.075277  1.1e-05  0.973013  0.0  0.090917  2.5e-05  1.02962  0.0  0.092759  1.1e-05  1.027509  0.0  0.109829  0.089522  3.8e-05  1.031151  0.0
H  H46  1  0.77476089  0.46188145  0.63287362  1  0.075063  -1e-06  0.973342  0.0  0.090758  -2.6e-05  1.029887  0.0  0.092636  -1.2e-05  1.027734  0.0  0.109825  0.089315  -3.9e-05  1.031492  0.0
H  H47  1  0.27477919  0.03812959  0.86713037  1  0.075047  -4e-06  0.973353  0.0  0.090702  -7e-06  1.029935  0.0  0.092598  1e-06  1.027758  0.0  0.109752  0.089251  -1.4e-05  1.031548  0.0
H  H48  1  0.16265548  0.45262444  0.51650183  1  0.119021  -7e-06  0.984422  0.0  0.128364  -3e-06  1.045138  0.0  0.130992  -0.0  1.046021  0.0  0.101835  0.126478  -6e-06  1.044697  0.0
H  H49  1  0.66266448  0.04737301  0.98348847  1  0.118977  4.4e-05  0.984467  0.0  0.128279  3.5e-05  1.045218  0.0  0.130941  3e-05  1.046068  0.0  0.101804  0.126392  3.7e-05  1.044782  0.0
H  H50  1  0.83742623  0.54740897  0.48343237  1  0.119062  -4e-06  0.984175  0.0  0.128374  -6e-06  1.044935  0.0  0.131057  -6e-06  1.045771  0.0  0.101763  0.126474  -5e-06  1.044493  0.0
H  H51  1  0.33738954  0.95257887  0.01656307  1  0.118959  3.2e-05  0.984248  0.0  0.128279  2.2e-05  1.045009  0.0  0.130959  1.9e-05  1.045841  0.0  0.101753  0.126375  2.2e-05  1.044572  0.0
H  H52  1  0.31285658  0.59582840  0.66706430  1  0.090554  3.1e-05  0.961155  0.0  0.106075  2.3e-05  1.01891  0.0  0.108665  2.4e-05  1.016307  0.0  0.119568  0.104206  2.2e-05  1.020711  0.0
H  H53  1  0.81288453  0.90416177  0.83293183  1  0.090523  4.1e-05  0.961265  0.0  0.106062  3.2e-05  1.018972  0.0  0.108648  3e-05  1.016375  0.0  0.119607  0.104194  3.2e-05  1.020768  0.0
H  H54  1  0.68723040  0.40405908  0.33295067  1  0.090923  1.1e-05  0.960776  0.0  0.106082  -2e-06  1.018905  0.0  0.108702  -1e-06  1.016256  0.0  0.119648  0.104235  -3e-06  1.02069  0.0
H  H55  1  0.18719849  0.09592983  0.16704636  1  0.090909  6e-06  0.960722  0.0  0.10612  3e-06  1.018786  0.0  0.108761  -1e-06  1.01611  0.0  0.119676  0.104273  8e-06  1.020566  0.0
H  H56  1  0.48107351  0.77119149  0.70042134  1  -0.205904  0.0001  0.921989  0.0  -0.160857  4.1e-05  1.009546  0.0  -0.165111  4.3e-05  1.008519  0.0  0.063056  -0.157884  3.4e-05  1.010262  0.0
H  H57  1  0.98107756  0.72879734  0.79957978  1  -0.205915  9.8e-05  0.92186  0.0  -0.160901  3.9e-05  1.009462  0.0  -0.165158  4.1e-05  1.008435  0.0  0.062987  -0.157929  3.1e-05  1.010178  0.0
H  H58  1  0.51897128  0.22868272  0.29976477  1  -0.205644  -0.000165  0.921148  0.0  -0.160691  -0.000132  1.008665  0.0  -0.164949  -0.000103  1.007626  0.0  0.06319  -0.157712  -0.000151  1.009415  0.0
H  H59  1  0.01898305  0.27136573  0.20023044  1  -0.20566  0.000175  0.921132  0.0  -0.160661  0.000138  1.008653  0.0  -0.164919  0.000109  1.007632  0.0  0.063225  -0.15768  0.000157  1.009394  0.0
C  C60  1  0.17802703  0.75596241  0.27072084  1  0.178672  0.00509  3.725126  0.004  0.134535  0.000221  4.006544  0.0  0.150966  0.002377  4.023051  0.002  0.109753  0.124085  -0.001379  3.995691  -0.002
C  C61  1  0.67800248  0.74400811  0.22928645  1  0.178473  0.005009  3.725577  0.004  0.134254  0.000203  4.00694  0.0  0.15072  0.002368  4.023483  0.002  0.109718  0.123804  -0.001407  3.996076  -0.002
C  C62  1  0.82237772  0.24493556  0.72920047  1  0.178989  0.003631  3.726112  0.003  0.135643  0.000728  4.007492  0.0  0.152792  0.000539  4.023852  0.0  0.110639  0.124024  0.000849  3.996976  0.0
C  C63  1  0.32236404  0.25506835  0.77078910  1  0.179016  -0.002917  3.726247  -0.003  0.135715  -0.000365  4.007587  0.0  0.152859  -0.000158  4.023947  0.0  0.110759  0.124101  -0.000559  3.997071  0.0
C  C64  1  0.28958073  0.90993447  0.28425713  1  -0.046436  -0.003356  3.769045  -0.004  -0.067804  -0.004005  4.034132  -0.004  -0.065757  -0.002598  4.056724  -0.003  -0.025997  -0.068928  -0.005066  4.019061  -0.006
C  C65  1  0.78960087  0.59004032  0.21576102  1  -0.046055  -0.003506  3.768383  -0.004  -0.067426  -0.004063  4.033441  -0.005  -0.065377  -0.002632  4.056033  -0.003  -0.025823  -0.06855  -0.005148  4.01837  -0.006
C  C66  1  0.71048120  0.09091138  0.71595703  1  -0.048097  -0.004086  3.769921  -0.004  -0.069929  -0.000496  4.03546  -0.001  -0.067803  -0.000874  4.058188  -0.001  -0.026192  -0.071223  -0.000269  4.020207  0.0
C  C67  1  0.21046633  0.40910221  0.78403306  1  -0.047739  0.00455  3.769685  0.004  -0.069618  0.000735  4.035127  0.001  -0.067509  0.001163  4.057848  0.001  -0.026077  -0.070899  0.000428  4.019888  0.0
C  C68  1  0.17404938  0.88847483  0.20908099  1  -0.033004  -0.008353  3.781709  -0.009  -0.062637  -0.004469  4.048869  -0.005  -0.06033  -0.002719  4.072831  -0.003  -0.023017  -0.063869  -0.005866  4.032823  -0.006
C  C69  1  0.67407677  0.61151044  0.29094465  1  -0.03352  -0.008572  3.782105  -0.009  -0.063207  -0.004569  4.049193  -0.005  -0.060902  -0.002779  4.073153  -0.003  -0.023024  -0.064439  -0.006011  4.033146  -0.006
C  C70  1  0.82601255  0.11228339  0.79097490  1  -0.032249  0.00741  3.780321  0.007  -0.062218  0.001832  4.047676  0.002  -0.059814  0.002133  4.071805  0.002  -0.023684  -0.063596  0.001635  4.03146  0.002
C  C71  1  0.32602077  0.38772670  0.70902291  1  -0.032315  -0.006776  3.780233  -0.007  -0.062203  -0.001619  4.047716  -0.002  -0.059785  -0.001849  4.071831  -0.003  -0.023547  -0.063588  -0.001526  4.031492  -0.002
C  C72  1  0.85570286  0.77444799  0.47083070  1  0.053637  0.002738  3.712094  0.001  0.020967  -0.000417  3.977597  -0.001  0.031247  0.000721  3.992147  0.0  0.017525  0.014643  -0.001236  3.967589  -0.002
C  C73  1  0.35569466  0.72554677  0.02918068  1  0.053793  0.002736  3.712182  0.001  0.021066  -0.000417  3.977649  -0.001  0.031348  0.000715  3.99221  0.0  0.017607  0.014747  -0.001233  3.967635  -0.002
C  C74  1  0.14393054  0.22579956  0.52925274  1  0.053903  -0.002115  3.712491  -0.001  0.021331  0.00062  3.977203  0.001  0.03174  -0.000413  3.99144  0.0  0.01734  0.014849  0.001302  3.967615  0.002
C  C75  1  0.64393216  0.27420571  0.97074407  1  0.053583  0.002732  3.712786  0.001  0.021018  -0.000344  3.977441  -0.001  0.031422  0.000727  3.99168  0.0  0.017301  0.01454  -0.001074  3.967837  -0.002
C  C76  1  0.94734760  0.76203270  0.55007647  1  -0.207302  -0.004093  3.788685  -0.005  -0.219863  -0.00194  4.047865  -0.002  -0.229357  -0.001694  4.069148  -0.002  -0.119642  -0.213686  -0.002169  4.03334  -0.002
C  C77  1  0.44733477  0.73796478  0.94993742  1  -0.207224  -0.004113  3.788732  -0.005  -0.219724  -0.001956  4.047966  -0.002  -0.229227  -0.001712  4.069274  -0.002  -0.119654  -0.213542  -0.002184  4.03343  -0.002
C  C78  1  0.05239128  0.23799527  0.44989254  1  -0.207787  0.004263  3.788372  0.004  -0.220535  0.002057  4.047684  0.002  -0.230002  0.001848  4.069007  0.002  -0.119924  -0.214393  0.002152  4.033164  0.002
C  C79  1  0.55242785  0.26201815  0.05011445  1  -0.207246  -0.003911  3.788486  -0.004  -0.2199  -0.00192  4.047785  -0.002  -0.229359  -0.001694  4.069106  -0.002  -0.119633  -0.213764  -0.002035  4.033268  -0.002
C  C80  1  0.81784431  0.76338224  0.61728638  1  0.024646  0.002899  3.705112  0.002  -0.019612  0.000282  3.958579  0.0  -0.011196  0.00111  3.972911  0.0  0.021885  -0.024814  -0.000332  3.948594  -0.001
C  C81  1  0.31783733  0.73659704  0.88272019  1  0.024578  0.002907  3.705226  0.002  -0.019655  0.000287  3.958691  0.0  -0.011245  0.001112  3.97303  0.0  0.021862  -0.024862  -0.000328  3.948709  -0.001
C  C82  1  0.18203698  0.23667829  0.38275815  1  0.024167  -0.002562  3.705348  -0.002  -0.020126  -0.000229  3.958986  0.0  -0.011735  -0.00096  3.973372  -0.001  0.021653  -0.025299  0.0003  3.948948  0.001
C  C83  1  0.68207429  0.26336419  0.11724300  1  0.02368  0.003018  3.705784  0.002  -0.020632  0.000408  3.959442  0.0  -0.012238  0.001171  3.973821  0.001  0.021446  -0.025811  -0.000151  3.949409  -0.001
C  C84  1  0.24424628  0.97000283  0.53228239  1  0.062096  0.002913  3.713312  0.002  0.020934  -0.000539  3.994871  -0.001  0.031568  0.000652  4.008645  0.0  0.018557  0.014141  -0.001373  3.985872  -0.002
C  C85  1  0.74423021  0.52999609  0.96772098  1  0.062237  0.00332  3.712902  0.002  0.02111  3.6e-05  3.994456  -0.001  0.031743  0.001194  4.008228  0.0  0.018625  0.014317  -0.000822  3.985451  -0.002
C  C86  1  0.75590136  0.02997151  0.46786549  1  0.061155  -0.002046  3.714556  -0.001  0.020415  0.000821  3.99552  0.001  0.031231  -0.000248  4.00901  0.0  0.018034  0.013362  0.001515  3.986867  0.002
C  C87  1  0.25593061  0.47004279  0.03211786  1  0.061416  0.003069  3.71436  0.001  0.020533  -1e-05  3.995375  -0.001  0.031369  0.001085  4.008851  0.0  0.018075  0.013478  -0.000772  3.986721  -0.002
C  C88  1  0.18491379  0.00157947  0.62569170  1  -0.221469  -0.004139  3.79712  -0.004  -0.235977  -0.002252  4.06422  -0.002  -0.245637  -0.002014  4.084165  -0.002  -0.12012  -0.229872  -0.002451  4.050967  -0.002
C  C89  1  0.68490974  0.49841791  0.87430751  1  -0.221549  -0.003741  3.797137  -0.004  -0.236084  -0.00168  4.064253  -0.002  -0.245738  -0.001479  4.084192  -0.002  -0.120133  -0.229979  -0.001885  4.050999  -0.002
C  C90  1  0.81502288  0.99846087  0.37440944  1  -0.221137  0.004291  3.796545  0.004  -0.235764  0.002379  4.063516  0.002  -0.24546  0.002192  4.083481  0.002  -0.120189  -0.229631  0.002433  4.050274  0.002
C  C91  1  0.31505330  0.50154413  0.12557354  1  -0.221066  -0.003461  3.796866  -0.004  -0.235696  -0.00164  4.063879  -0.002  -0.245383  -0.001439  4.083837  -0.002  -0.120099  -0.229561  -0.001745  4.05063  -0.002
C  C92  1  0.26632891  0.93403884  0.67083531  1  0.02307  0.002805  3.723085  0.002  -0.022422  0.000116  3.979288  -0.001  -0.013522  0.00097  3.993268  0.0  0.022804  -0.02791  -0.000515  3.969575  -0.001
C  C93  1  0.76632284  0.56595614  0.82916654  1  0.023016  0.002875  3.723118  0.002  -0.022442  0.000218  3.979343  -0.001  -0.013545  0.001031  3.993327  0.0  0.02273  -0.027922  -0.00038  3.969622  -0.001
C  C94  1  0.73339811  0.06601698  0.32937008  1  0.024344  -0.002325  3.721347  -0.002  -0.020966  -2.1e-05  3.977541  0.001  -0.012088  -0.000782  3.991561  0.0  0.023297  -0.026418  0.00051  3.967735  0.001
C  C95  1  0.23341737  0.43399507  0.17061064  1  0.024128  0.002655  3.721389  0.002  -0.021141  0.000169  3.977612  -0.001  -0.01227  0.000958  3.991624  0.0  0.023214  -0.026596  -0.000398  3.967812  -0.001
C  C96  1  0.26396770  0.56695807  0.44023454  1  0.038992  1.7e-05  3.773254  0.0  0.008616  7.7e-05  4.041663  0.0  0.016194  0.000131  4.056384  0.0  0.007407  0.004258  6e-06  4.031238  0.0
C  C97  1  0.76395806  0.93303390  0.05976161  1  0.038928  1e-06  3.773199  0.0  0.008605  0.000128  4.04159  0.0  0.016185  0.000161  4.056318  0.0  0.007423  0.004251  6.9e-05  4.031166  0.0
C  C98  1  0.73611533  0.43317930  0.55980860  1  0.03873  -2.2e-05  3.773307  0.0  0.008596  -0.000168  4.04142  0.0  0.016242  -0.00017  4.056009  0.0  0.007221  0.004099  -0.000139  4.031205  0.0
C  C99  1  0.23611838  0.06683265  0.94019207  1  0.038919  8.9e-05  3.773098  0.0  0.008842  0.000155  4.041149  0.0  0.016479  0.000181  4.055727  0.0  0.007418  0.00436  0.000103  4.030924  0.0
C  C100  1  0.23143318  0.52406049  0.51684082  1  -0.209355  4.4e-05  3.795566  0.0  -0.222351  2.2e-05  4.05117  0.0  -0.230238  9e-06  4.071001  0.0  -0.123207  -0.217128  3.5e-05  4.037374  0.0
C  C101  1  0.73144505  0.97593461  0.98315074  1  -0.209219  8.6e-05  3.7956  0.0  -0.222162  1.8e-05  4.051193  0.0  -0.230092  1.1e-05  4.071017  0.0  -0.123138  -0.216942  2.3e-05  4.037403  0.0
C  C102  1  0.76866962  0.47598454  0.48314912  1  -0.209771  -9.9e-05  3.795291  0.0  -0.222729  -4e-05  4.050802  0.0  -0.230684  -2.2e-05  4.070626  0.0  -0.123382  -0.217492  -6.5e-05  4.037041  0.0
C  C103  1  0.26864853  0.02401341  0.01685024  1  -0.20972  -1.7e-05  3.795208  0.0  -0.222686  -2.1e-05  4.050712  0.0  -0.23063  -2.1e-05  4.070532  0.0  -0.123417  -0.217441  -1.9e-05  4.036931  0.0
C  C104  1  0.30639398  0.59469122  0.59309194  1  0.015881  -0.000156  3.727632  0.0  -0.027071  2e-05  3.978781  0.0  -0.018859  6.9e-05  3.992833  0.0  0.017189  -0.031929  -4.9e-05  3.968652  0.0
C  C105  1  0.80641220  0.90529741  0.90690382  1  0.015876  -0.000172  3.728161  0.0  -0.027077  1.1e-05  3.979282  0.0  -0.018868  5.8e-05  3.993353  0.0  0.017188  -0.031935  -5.6e-05  3.969149  0.0
C  C106  1  0.69370883  0.40528783  0.40693931  1  0.015738  -2.6e-05  3.726804  0.0  -0.027012  -0.000105  3.978136  0.0  -0.018896  -0.000107  3.992282  0.0  0.017153  -0.031836  -8.6e-05  3.967911  0.0
C  C107  1  0.19368270  0.09471348  0.09305855  1  0.015768  -4e-05  3.726754  0.0  -0.027016  5.9e-05  3.978089  0.0  -0.018914  8.4e-05  3.992216  0.0  0.017156  -0.031797  8e-06  3.967892  0.0
N  N108  1  0.29094733  0.82548178  0.32267993  1  -0.351496  -0.092183  3.361724  -0.12  -0.310497  -0.062599  3.678836  -0.085  -0.342972  -0.051067  3.700957  -0.073  -0.39172  -0.290589  -0.069738  3.664806  -0.091
N  N109  1  0.79094389  0.67449147  0.17733242  1  -0.351798  -0.092209  3.361245  -0.12  -0.310869  -0.062625  3.678454  -0.085  -0.34335  -0.051091  3.700561  -0.073  -0.391926  -0.290956  -0.069769  3.664425  -0.091
N  N110  1  0.70945478  0.17543164  0.67743204  1  -0.347295  0.085777  3.355031  0.102  -0.308673  0.061236  3.673709  0.078  -0.34242  0.052456  3.696774  0.069  -0.390287  -0.286489  0.062792  3.657964  0.078
N  N111  1  0.20943581  0.32457497  0.82254827  1  -0.347473  -0.07824  3.355136  -0.102  -0.308813  -0.057056  3.673873  -0.078  -0.342578  -0.047964  3.696964  -0.069  -0.390458  -0.286626  -0.059309  3.658118  -0.078
N  N112  1  0.10420240  0.79128675  0.20134169  1  -0.353005  -0.098413  3.362417  -0.128  -0.31022  -0.066742  3.674813  -0.09  -0.343657  -0.054443  3.698671  -0.078  -0.388705  -0.289724  -0.074244  3.659712  -0.097
N  N113  1  0.60421189  0.70869486  0.29867676  1  -0.352662  -0.098394  3.362151  -0.128  -0.309852  -0.066794  3.67467  -0.09  -0.343269  -0.054479  3.698479  -0.078  -0.388734  -0.28936  -0.074309  3.659573  -0.097
N  N114  1  0.89607049  0.20951734  0.79849067  1  -0.349274  -0.086411  3.36078  -0.112  -0.308532  -0.061537  3.674651  -0.084  -0.343222  -0.051697  3.699222  -0.074  -0.387107  -0.285798  -0.063971  3.658114  -0.084
N  N115  1  0.39607156  0.29048943  0.70150183  1  -0.34937  0.094695  3.360849  0.112  -0.308729  0.065969  3.674767  0.084  -0.343401  0.056463  3.699312  0.074  -0.387237  -0.285996  0.067654  3.658239  0.084
N  N116  1  0.68211103  0.78314484  0.48935890  1  -0.227133  -0.06907  3.240863  -0.089  -0.198341  -0.05056  3.542482  -0.068  -0.221835  -0.042686  3.562537  -0.06  -0.261807  -0.184264  -0.05542  3.53011  -0.072
N  N117  1  0.18209874  0.71684739  0.01065203  1  -0.226893  -0.069041  3.240838  -0.089  -0.198044  -0.050537  3.542387  -0.068  -0.221546  -0.042662  3.562455  -0.06  -0.261691  -0.183968  -0.055392  3.530009  -0.072
N  N118  1  0.31758698  0.21725942  0.51086875  1  -0.227531  0.070483  3.243153  0.083  -0.198048  0.052862  3.544007  0.067  -0.221401  0.046151  3.563862  0.06  -0.261807  -0.184072  0.054342  3.531896  0.067
N  N119  1  0.81758345  0.28274838  0.98912034  1  -0.227684  -0.064356  3.243203  -0.083  -0.198022  -0.049275  3.543922  -0.067  -0.221384  -0.042241  3.563788  -0.06  -0.26183  -0.184042  -0.051327  3.531807  -0.067
N  N120  1  0.65947740  0.77631265  0.57917076  1  -0.132243  -0.002213  3.521768  -0.002  -0.033577  -0.00163  3.751278  -0.001  -0.045867  -0.001037  3.777246  -0.001  -0.134292  -0.025314  -0.002064  3.733897  -0.002
N  N121  1  0.15946568  0.72367725  0.92083979  1  -0.132461  -0.002205  3.52221  -0.002  -0.033881  -0.001627  3.751827  -0.001  -0.046173  -0.001035  3.777806  -0.001  -0.134313  -0.025617  -0.002056  3.734436  -0.002
N  N122  1  0.34035906  0.22397832  0.42103765  1  -0.132349  0.002305  3.524791  0.002  -0.033936  0.0017  3.754046  0.001  -0.046314  0.00115  3.780125  0.001  -0.133841  -0.02558  0.001993  3.736598  0.002
N  N123  1  0.84038133  0.27604812  0.07895488  1  -0.13225  -0.002028  3.524638  -0.002  -0.033836  -0.00156  3.753863  -0.001  -0.046209  -0.001013  3.779945  -0.001  -0.133864  -0.025481  -0.001867  3.736407  -0.002
N  N124  1  0.35511654  0.88926276  0.52219601  1  -0.223182  -0.06847  3.219002  -0.088  -0.19793  -0.052172  3.528516  -0.07  -0.221037  -0.043992  3.547881  -0.062  -0.259065  -0.184132  -0.05732  3.516724  -0.075
N  N125  1  0.85510779  0.61073037  0.97780707  1  -0.223172  -0.068309  3.218914  -0.088  -0.197992  -0.051997  3.528451  -0.07  -0.221105  -0.04383  3.547826  -0.062  -0.259187  -0.184188  -0.057139  3.516654  -0.075
N  N126  1  0.64490979  0.11068670  0.47808905  1  -0.223034  0.069922  3.220195  0.082  -0.19738  0.054265  3.529598  0.068  -0.220407  0.047257  3.548731  0.061  -0.259558  -0.183497  0.055944  3.517916  0.069
N  N127  1  0.14494623  0.38932874  0.02189557  1  -0.222922  -0.063693  3.22005  -0.082  -0.197049  -0.050448  3.529313  -0.068  -0.2201  -0.043116  3.548463  -0.061  -0.259491  -0.183164  -0.052716  3.517627  -0.069
N  N128  1  0.36910425  0.86774652  0.60756458  1  -0.142041  -0.002438  3.523068  -0.002  -0.041829  -0.001989  3.752549  -0.002  -0.054048  -0.00136  3.777984  -0.001  -0.13678  -0.033609  -0.002444  3.735529  -0.002
N  N129  1  0.86909568  0.63224889  0.89243974  1  -0.14207  -0.002388  3.523152  -0.002  -0.041866  -0.001891  3.752671  -0.002  -0.054094  -0.001263  3.778138  -0.001  -0.136696  -0.033653  -0.002349  3.735642  -0.002
N  N130  1  0.63069397  0.13225882  0.39273399  1  -0.143414  0.002454  3.522655  0.002  -0.04379  0.001982  3.7527  0.002  -0.056044  0.001401  3.778152  0.001  -0.137233  -0.035513  0.002282  3.735625  0.002
N  N131  1  0.13071968  0.36775590  0.10725041  1  -0.143407  -0.002158  3.522776  -0.002  -0.043852  -0.001799  3.752893  -0.002  -0.056091  -0.001206  3.778351  -0.001  -0.137357  -0.03558  -0.002138  3.73581  -0.002
N  N132  1  0.35297461  0.65671080  0.46739952  1  -0.259524  0.000981  3.069135  0.0  -0.235735  0.000555  3.358174  0.0  -0.248126  0.00071  3.372997  0.0  -0.243987  -0.228096  0.000339  3.348791  0.0
N  N133  1  0.85296413  0.84327854  0.03260244  1  -0.259527  0.001066  3.068972  0.0  -0.235777  0.000578  3.357999  0.0  -0.248172  0.00073  3.372821  0.0  -0.243969  -0.228138  0.000373  3.348612  0.0
N  N134  1  0.64707414  0.34343119  0.53272294  1  -0.259571  -0.001541  3.068435  -0.001  -0.235714  -0.000862  3.357163  0.0  -0.248089  -0.000855  3.371883  0.0  -0.243719  -0.228009  -0.00086  3.347863  0.0
N  N135  1  0.14709517  0.15658648  0.96727877  1  -0.259862  0.001492  3.068595  0.001  -0.235994  0.000847  3.357333  0.0  -0.248376  0.000877  3.372061  0.0  -0.243817  -0.228247  0.000804  3.348068  0.0
N  N136  1  0.37850872  0.67299378  0.56170858  1  -0.147263  7.5e-05  3.543678  0.0  -0.04426  6.9e-05  3.772393  0.0  -0.058064  7.3e-05  3.797895  0.0  -0.140207  -0.034914  5.8e-05  3.755156  0.0
N  N137  1  0.87851610  0.82699616  0.93829520  1  -0.147321  6.8e-05  3.544158  0.0  -0.044348  7.6e-05  3.772921  0.0  -0.058148  8e-05  3.798419  0.0  -0.140314  -0.035006  6.8e-05  3.755682  0.0
N  N138  1  0.62155981  0.32705275  0.43841031  1  -0.147196  -3.3e-05  3.543669  0.0  -0.044483  -6.5e-05  3.772227  0.0  -0.058342  -6.1e-05  3.7978  0.0  -0.14038  -0.035072  -6.1e-05  3.754905  0.0
N  N139  1  0.12156429  0.17295733  0.06159069  1  -0.147027  6e-05  3.543824  0.0  -0.0443  7.8e-05  3.772422  0.0  -0.058151  7.7e-05  3.798002  0.0  -0.140302  -0.035023  7.4e-05  3.755269  0.0
