# generated using pymatgen
data_ZnH12C12NO6
_symmetry_space_group_name_H-M   'P 1'
_cell_length_a   7.32546893
_cell_length_b   9.15484312
_cell_length_c   23.73651866
_cell_angle_alpha   89.99984826
_cell_angle_beta   102.13911697
_cell_angle_gamma   90.00103177
_symmetry_Int_Tables_number   1
_chemical_formula_structural   ZnH12C12NO6
_chemical_formula_sum   'Zn4 H48 C48 N4 O24'
_cell_volume   1556.26043772
_cell_formula_units_Z   4
loop_
 _symmetry_equiv_pos_site_id
 _symmetry_equiv_pos_as_xyz
  1  'x, y, z'
loop_
 _atom_site_type_symbol
 _atom_site_label
 _atom_site_symmetry_multiplicity
 _atom_site_fract_x
 _atom_site_fract_y
 _atom_site_fract_z
 _atom_site_occupancy
 _atom_site_pbe_bader_charge
 _atom_site_pbe_bader_spin_density
 _atom_site_pbe_cm5_charge
 _atom_site_pbe_ddec_charge
 _atom_site_pbe_ddec_spin_density
 _atom_site_pbe_ddec_sum_bond_order
 _atom_site_pbe_magmom
Zn  Zn0  1  0.73005501  0.58535536  0.69145057  1  1.316097  0  0.692861  0.952635  0  2.221558  0
Zn  Zn1  1  0.76995136  0.08536001  0.80854982  1  1.316026  0  0.692876  0.95266  0  2.22159  0
Zn  Zn2  1  0.26994327  0.41465005  0.30854357  1  1.316139  0  0.692855  0.952766  0  2.221196  0
Zn  Zn3  1  0.23006832  0.91464431  0.19145744  1  1.316284  0  0.692912  0.952811  0  2.221246  0
H  H4  1  0.91398104  0.34296442  0.55624138  1  0.059255  0  0.108476  0.117848  0  0.984576  0
H  H5  1  0.58601199  0.84296458  0.94376019  1  0.059383  0  0.10847  0.117876  0  0.984517  0
H  H6  1  0.08599725  0.65701696  0.44376042  1  0.059125  0  0.108407  0.117732  0  0.984686  0
H  H7  1  0.41399555  0.15700587  0.05623771  1  0.059389  0  0.108476  0.117903  0  0.984722  0
H  H8  1  0.98928991  0.83392421  0.63223436  1  0.117889  0  0.107253  0.120466  0  1.044589  0
H  H9  1  0.51070859  0.33392366  0.86776466  1  0.118056  0  0.10723  0.120416  0  1.044698  0
H  H10  1  0.01075166  0.16606701  0.36777759  1  0.117968  0  0.107246  0.120449  0  1.044478  0
H  H11  1  0.48925549  0.66605772  0.13222515  1  0.118046  0  0.107228  0.120459  0  1.044668  0
H  H12  1  0.96594484  0.25514989  0.46127279  1  0.048062  0  0.109987  0.120895  0  0.97846  0
H  H13  1  0.53403666  0.75514976  0.03872844  1  0.048019  0  0.109993  0.120836  0  0.978507  0
H  H14  1  0.03403609  0.74482930  0.53873376  1  0.047393  0  0.109997  0.120858  0  0.978655  0
H  H15  1  0.46593344  0.24482179  0.96126331  1  0.047347  0  0.110006  0.120912  0  0.978625  0
H  H16  1  0.49806214  0.85498940  0.70378368  1  0.17971  0  0.129184  0.071585  0  1.031317  0
H  H17  1  0.00196085  0.35500408  0.79621531  1  0.179613  0  0.129237  0.071724  0  1.031186  0
H  H18  1  0.50198079  0.14502802  0.29621268  1  0.179624  0  0.129135  0.071508  0  1.031423  0
H  H19  1  0.99802500  0.64501772  0.20378383  1  0.179738  0  0.129171  0.071565  0  1.031316  0
H  H20  1  0.56440634  0.87870546  0.55764219  1  0.105869  0  0.111252  0.132424  0  0.997666  0
H  H21  1  0.93557690  0.37871139  0.94235315  1  0.106031  0  0.111246  0.132486  0  0.99759  0
H  H22  1  0.43559566  0.12134256  0.44235042  1  0.106008  0  0.111191  0.132381  0  0.997787  0
H  H23  1  0.06440756  0.62131368  0.05764593  1  0.105898  0  0.111307  0.1325  0  0.997649  0
H  H24  1  0.58722918  0.07359299  0.56461289  1  0.082494  0  0.105547  0.121166  0  1.008031  0
H  H25  1  0.91275846  0.57360369  0.93538278  1  0.08233  0  0.105545  0.12125  0  1.008038  0
H  H26  1  0.41278472  0.92644738  0.43538823  1  0.082586  0  0.105515  0.12106  0  1.008157  0
H  H27  1  0.08721233  0.42641920  0.06461153  1  0.082705  0  0.105587  0.121197  0  1.008116  0
H  H28  1  0.36221240  0.99337414  0.53953737  1  0.101596  0  0.100255  0.110948  0  1.03134  0
H  H29  1  0.13777858  0.49339088  0.96046499  1  0.101674  0  0.100261  0.111073  0  1.031162  0
H  H30  1  0.63779778  0.00668370  0.46046528  1  0.101524  0  0.100243  0.11085  0  1.031426  0
H  H31  1  0.86219661  0.50664730  0.03953034  1  0.10138  0  0.100249  0.110903  0  1.031344  0
H  H32  1  0.36495086  0.07131233  0.69223666  1  0.048033  0  0.110192  0.122506  0  1.013361  0
H  H33  1  0.13504915  0.57132899  0.80776194  1  0.048098  0  0.110172  0.122523  0  1.013335  0
H  H34  1  0.63506583  0.92869090  0.30776457  1  0.047923  0  0.110175  0.122606  0  1.013231  0
H  H35  1  0.86491468  0.42870591  0.19223208  1  0.047792  0  0.110179  0.122545  0  1.013291  0
H  H36  1  0.28594762  0.14340251  0.62176425  1  0.068466  0  0.101072  0.117893  0  1.027176  0
H  H37  1  0.21406780  0.64342152  0.87823936  1  0.068498  0  0.101031  0.117744  0  1.027247  0
H  H38  1  0.71405802  0.85661055  0.37824203  1  0.068339  0  0.101066  0.117891  0  1.027221  0
H  H39  1  0.78593080  0.35659700  0.12176114  1  0.068213  0  0.101048  0.117875  0  1.027243  0
H  H40  1  0.51735259  0.18339293  0.66070076  1  0.108594  0  0.107295  0.139737  0  1.002734  0
H  H41  1  0.98264471  0.68340554  0.83930310  1  0.10888  0  0.107334  0.139782  0  1.002785  0
H  H42  1  0.48264471  0.81662887  0.33930518  1  0.10885  0  0.107342  0.139854  0  1.002648  0
H  H43  1  0.01733194  0.31662936  0.16070286  1  0.108856  0  0.107284  0.139831  0  1.002468  0
H  H44  1  0.07475891  0.57547587  0.70977834  1  0.645289  0  0.30635  0.402937  0  0.913427  0
H  H45  1  0.42524685  0.07546270  0.79022505  1  0.645208  0  0.306326  0.402916  0  0.913434  0
H  H46  1  0.92523725  0.42451753  0.29022332  1  0.645308  0  0.306363  0.402963  0  0.913399  0
H  H47  1  0.57476833  0.92450994  0.20977569  1  0.645334  0  0.306398  0.403017  0  0.913326  0
H  H48  1  0.03172404  0.75347354  0.71794343  1  0.655606  0  0.298626  0.409798  0  0.918807  0
H  H49  1  0.46828196  0.25346349  0.78205873  1  0.655763  0  0.298553  0.409607  0  0.919041  0
H  H50  1  0.96828589  0.24651767  0.28206345  1  0.655321  0  0.298538  0.409681  0  0.918958  0
H  H51  1  0.53172001  0.74651134  0.21793895  1  0.655502  0  0.298606  0.409841  0  0.918751  0
C  C52  1  0.90143774  0.33347142  0.66631995  1  1.593214  0  0.207904  0.593293  0  4.216848  0
C  C53  1  0.59859436  0.83348075  0.83368128  1  1.593557  0  0.207649  0.592705  0  4.217575  0
C  C54  1  0.09856816  0.66652853  0.33368211  1  1.593209  0  0.207757  0.593065  0  4.217136  0
C  C55  1  0.40143360  0.16650719  0.16631575  1  1.593256  0  0.207719  0.592846  0  4.217455  0
C  C56  1  0.92143045  0.20412822  0.62905766  1  -0.001397  0  -0.004435  -0.023281  0  3.935547  0
C  C57  1  0.57854848  0.70413574  0.87094333  1  -0.001314  0  -0.004377  -0.023141  0  3.935478  0
C  C58  1  0.07855177  0.79585644  0.37094852  1  -0.00137  0  -0.004378  -0.023373  0  3.935796  0
C  C59  1  0.42145244  0.29584674  0.12905557  1  -0.001537  0  -0.00436  -0.023172  0  3.935775  0
C  C60  1  0.93136402  0.23137960  0.57272445  1  -0.038633  0  -0.086182  -0.165713  0  3.957138  0
C  C61  1  0.56865177  0.73137900  0.92727745  1  -0.03901  0  -0.086283  -0.165853  0  3.957329  0
C  C62  1  0.06863316  0.76860396  0.42728106  1  -0.038837  0  -0.086193  -0.165564  0  3.957462  0
C  C63  1  0.43135787  0.26858927  0.07271800  1  -0.039133  0  -0.086291  -0.166018  0  3.957237  0
C  C64  1  0.96667727  0.11782018  0.53543360  1  -0.062521  0  -0.011337  0.062643  0  4.062239  0
C  C65  1  0.53331718  0.61781602  0.96456394  1  -0.062398  0  -0.011251  0.062725  0  4.062093  0
C  C66  1  0.03332721  0.88216011  0.46457347  1  -0.062472  0  -0.011212  0.06293  0  4.062675  0
C  C67  1  0.46665968  0.38215990  0.03542216  1  -0.06225  0  -0.011378  0.062761  0  4.062453  0
C  C68  1  0.98679473  0.97035931  0.55771522  1  -0.055344  0  -0.010163  0.061914  0  4.040431  0
C  C69  1  0.51317455  0.47035615  0.94228268  1  -0.055511  0  -0.010189  0.06192  0  4.040624  0
C  C70  1  0.01319004  0.02961771  0.44229021  1  -0.055335  0  -0.010049  0.061914  0  4.040787  0
C  C71  1  0.48679916  0.52961540  0.05770710  1  -0.055404  0  -0.010136  0.062039  0  4.040196  0
C  C72  1  0.97532080  0.94558546  0.61605430  1  -0.038536  0  -0.078466  -0.138367  0  3.92439  0
C  C73  1  0.52467651  0.44557808  0.88394780  1  -0.038383  0  -0.07851  -0.13847  0  3.924415  0
C  C74  1  0.02470535  0.05440357  0.38395661  1  -0.038394  0  -0.078487  -0.138389  0  3.924374  0
C  C75  1  0.47530087  0.55440002  0.11605058  1  -0.038107  0  -0.078285  -0.138338  0  3.92373  0
C  C76  1  0.94445645  0.05807892  0.65147281  1  -0.022371  0  -0.012165  -0.057468  0  3.949395  0
C  C77  1  0.55554379  0.55807407  0.84852834  1  -0.022755  0  -0.012103  -0.05723  0  3.948776  0
C  C78  1  0.05554848  0.94191447  0.34853597  1  -0.022815  0  -0.012191  -0.057388  0  3.949195  0
C  C79  1  0.44444566  0.44189420  0.15146883  1  -0.022662  0  -0.012173  -0.057243  0  3.94932  0
C  C80  1  0.98147408  0.14398787  0.47837368  1  0.035889  0  -0.081785  -0.175159  0  3.923276  0
C  C81  1  0.51851525  0.64398028  0.02162854  1  0.03601  0  -0.081805  -0.175186  0  3.92337  0
C  C82  1  0.01853620  0.85599351  0.52163448  1  0.036191  0  -0.081815  -0.17531  0  3.923762  0
C  C83  1  0.48146437  0.35599018  0.97836274  1  0.036169  0  -0.081759  -0.175293  0  3.92385  0
C  C84  1  0.92487404  0.02621293  0.71207400  1  1.587992  0  0.211336  0.575703  0  4.210738  0
C  C85  1  0.57514804  0.52619239  0.78792574  1  1.588057  0  0.211202  0.575506  0  4.210618  0
C  C86  1  0.07512837  0.97378047  0.28793045  1  1.588941  0  0.211274  0.575606  0  4.210737  0
C  C87  1  0.42486509  0.47376933  0.21206731  1  1.588814  0  0.211243  0.575529  0  4.211199  0
C  C88  1  0.51983543  0.84956149  0.65921688  1  1.316527  0  0.18036  0.297258  0  4.029565  0
C  C89  1  0.98018559  0.34956271  0.84078440  1  1.317247  0  0.180221  0.296979  0  4.02974  0
C  C90  1  0.48018605  0.15046140  0.34077651  1  1.316595  0  0.18038  0.297197  0  4.029365  0
C  C91  1  0.01980293  0.65045362  0.15921442  1  1.316416  0  0.180391  0.297259  0  4.029871  0
C  C92  1  0.49878255  0.97898194  0.56868099  1  0.187229  0  -0.134107  -0.274034  0  3.880793  0
C  C93  1  0.00120887  0.47899722  0.93131705  1  0.187217  0  -0.13405  -0.274265  0  3.880523  0
C  C94  1  0.50123113  0.02106061  0.43131926  1  0.186917  0  -0.133993  -0.273766  0  3.88105  0
C  C95  1  0.99876643  0.52103113  0.06867871  1  0.18719  0  -0.134225  -0.274121  0  3.881062  0
C  C96  1  0.40732130  0.09992982  0.65214330  1  0.273355  0  -0.13406  -0.2791  0  3.867834  0
C  C97  1  0.09268841  0.59995552  0.84785720  1  0.27273  0  -0.134037  -0.27895  0  3.867499  0
C  C98  1  0.59268923  0.90008105  0.34786064  1  0.273451  0  -0.134128  -0.279418  0  3.867902  0
C  C99  1  0.90729280  0.40007720  0.15214006  1  0.273581  0  -0.13405  -0.279237  0  3.867666  0
N  N100  1  0.47411895  0.96907805  0.62775073  1  -1.219158  0  -0.272532  0.047104  0  3.724706  0
N  N101  1  0.02587533  0.46908974  0.87224552  1  -1.219118  0  -0.272578  0.047044  0  3.724562  0
N  N102  1  0.52591154  0.03094811  0.37225063  1  -1.218916  0  -0.272509  0.047261  0  3.724617  0
N  N103  1  0.97410137  0.53093424  0.12775029  1  -1.219145  0  -0.272511  0.047133  0  3.72487  0
O  O104  1  0.74704731  0.40529448  0.64995106  1  -1.150061  0  -0.331234  -0.565165  0  2.29307  0
O  O105  1  0.75299788  0.90530078  0.85005170  1  -1.150419  0  -0.330968  -0.564875  0  2.293347  0
O  O106  1  0.25296731  0.59470656  0.35004754  1  -1.149897  0  -0.331198  -0.565136  0  2.293077  0
O  O107  1  0.24702682  0.09468388  0.14994858  1  -1.150222  0  -0.33114  -0.565039  0  2.293271  0
O  O108  1  0.03516678  0.36728474  0.70652605  1  -1.169691  0  -0.319782  -0.555843  0  2.145892  0
O  O109  1  0.46484864  0.86727279  0.79347702  1  -1.169332  0  -0.319777  -0.555627  0  2.146119  0
O  O110  1  0.96482355  0.63271521  0.29347961  1  -1.169371  0  -0.319712  -0.555707  0  2.145877  0
O  O111  1  0.53518222  0.13271078  0.20652055  1  -1.169271  0  -0.319766  -0.555676  0  2.145931  0
O  O112  1  0.81704411  0.11644019  0.73174015  1  -1.161341  0  -0.316553  -0.56325  0  2.38779  0
O  O113  1  0.68296368  0.61644774  0.76826133  1  -1.16121  0  -0.316501  -0.563185  0  2.387869  0
O  O114  1  0.18297440  0.88355649  0.26826791  1  -1.161517  0  -0.316566  -0.563321  0  2.387952  0
O  O115  1  0.31703403  0.38353255  0.23173068  1  -1.161253  0  -0.316573  -0.563353  0  2.387665  0
O  O116  1  0.00476955  0.91955151  0.74006915  1  -1.182603  0  -0.312453  -0.541323  0  2.172773  0
O  O117  1  0.49523685  0.41953321  0.75993076  1  -1.182884  0  -0.312337  -0.541179  0  2.172653  0
O  O118  1  0.99525592  0.08045499  0.25993920  1  -1.182987  0  -0.312334  -0.541178  0  2.172751  0
O  O119  1  0.50472340  0.58045036  0.24006016  1  -1.183554  0  -0.312324  -0.541148  0  2.173071  0
O  O120  1  0.58534389  0.73592646  0.63984473  1  -1.167314  0  -0.313538  -0.46948  0  2.366528  0
O  O121  1  0.91466727  0.23593006  0.86015393  1  -1.167765  0  -0.313478  -0.469414  0  2.366687  0
O  O122  1  0.41469404  0.26410079  0.36015355  1  -1.167657  0  -0.31349  -0.469438  0  2.366253  0
O  O123  1  0.08532230  0.76408300  0.13984367  1  -1.167482  0  -0.313528  -0.469486  0  2.366566  0
O  O124  1  0.99740434  0.66087371  0.69521028  1  -1.262118  0  -0.569219  -0.770596  0  2.15739  0
O  O125  1  0.50259914  0.16086446  0.80479262  1  -1.262119  0  -0.569134  -0.770403  0  2.157607  0
O  O126  1  0.00259900  0.33912515  0.30479252  1  -1.261895  0  -0.56918  -0.770586  0  2.157385  0
O  O127  1  0.49740513  0.83911583  0.19520853  1  -1.262097  0  -0.569266  -0.770769  0  2.157125  0
