# generated using pymatgen
data_ZnH9C14NO5
_symmetry_space_group_name_H-M   'P 1'
_cell_length_a   9.71025711
_cell_length_b   11.05509661
_cell_length_c   11.06388228
_cell_angle_alpha   94.24190090
_cell_angle_beta   87.28816640
_cell_angle_gamma   88.99322788
_symmetry_Int_Tables_number   1
_chemical_formula_structural   ZnH9C14NO5
_chemical_formula_sum   'Zn2 H18 C28 N2 O10'
_cell_volume   1182.83917568
_cell_formula_units_Z   2
loop_
 _symmetry_equiv_pos_site_id
 _symmetry_equiv_pos_as_xyz
  1  'x, y, z'
loop_
 _atom_site_type_symbol
 _atom_site_label
 _atom_site_symmetry_multiplicity
 _atom_site_fract_x
 _atom_site_fract_y
 _atom_site_fract_z
 _atom_site_occupancy
 _atom_site_pbe_bader_charge
 _atom_site_pbe_bader_spin_density
 _atom_site_pbe_cm5_charge
 _atom_site_pbe_ddec_charge
 _atom_site_pbe_ddec_spin_density
 _atom_site_pbe_ddec_sum_bond_order
 _atom_site_pbe_magmom
Zn  Zn0  1  0.63629889  0.49749517  0.49095047  1  1.279604  0  0.668553  0.808557  0  2.426196  0
Zn  Zn1  1  0.35131312  0.50296680  0.50360862  1  1.266272  0  0.668659  0.816004  0  2.445056  0
H  H2  1  0.28721114  0.43721630  0.11804922  1  0.092316  0  0.106588  0.114657  0  1.010299  0
H  H3  1  0.31111807  0.87393221  0.40833853  1  0.126767  0  0.104911  0.108457  0  1.03389  0
H  H4  1  0.13670338  0.67180944  0.28334906  1  0.100349  0  0.118298  0.145227  0  0.952566  0
H  H5  1  0.11541331  0.77305922  0.41696697  1  0.120199  0  0.113591  0.139199  0  0.982936  0
H  H6  1  0.83213643  0.47243544  0.86577291  1  0.069087  0  0.096201  0.109013  0  0.993793  0
H  H7  1  0.72174836  0.14826171  0.68492556  1  0.068512  0  0.097775  0.107767  0  0.979866  0
H  H8  1  0.77856573  0.62751562  0.86575590  1  0.055344  0  0.096778  0.105864  0  0.979363  0
H  H9  1  0.82036989  0.12109846  0.54418952  1  0.06236  0  0.097798  0.10786  0  0.988214  0
H  H10  1  0.83661522  0.49212861  0.09207114  1  0.067417  0  0.102289  0.118988  0  0.973322  0
H  H11  1  0.72201209  0.92382435  0.70984042  1  0.091941  0  0.10164  0.112328  0  0.975374  0
H  H12  1  0.77764451  0.64672014  0.09328497  1  0.063766  0  0.097561  0.103524  0  0.991121  0
H  H13  1  0.82462199  0.89810881  0.57251924  1  0.065886  0  0.09642  0.104334  0  0.999734  0
H  H14  1  0.11953009  0.35548295  0.60840684  1  0.149756  0  0.136458  0.118354  0  0.975517  0
H  H15  1  0.86106430  0.34999367  0.60074809  1  0.159557  0  0.136156  0.11429  0  0.987667  0
H  H16  1  0.87701787  0.66171594  0.27244416  1  0.08433  0  0.111797  0.130822  0  0.99858  0
H  H17  1  0.85638392  0.76318392  0.40573098  1  0.099298  0  0.112057  0.134677  0  0.985747  0
H  H18  1  0.26256653  0.36154797  0.79068146  1  0.057027  0  0.095744  0.033592  0  0.993124  0
H  H19  1  0.28783169  0.19480618  0.33620992  1  0.078715  0  0.102306  0.04933  0  0.970569  0
C  C20  1  0.49799261  0.73515179  0.51144248  1  1.591436  0  0.214554  0.59724  0  4.181933  0
C  C21  1  0.49707784  0.49927975  0.26220933  1  1.549669  0  0.214922  0.597714  0  4.180467  0
C  C22  1  0.76372514  0.55393107  0.05331652  1  -0.064995  0  -0.148469  -0.198752  0  3.866075  0
C  C23  1  0.73487665  0.94877376  0.61570527  1  -0.079514  0  -0.147561  -0.197292  0  3.876881  0
C  C24  1  0.06642183  0.58254186  0.44641841  1  0.57825  0  0.149522  0.200182  0  3.849485  0
C  C25  1  0.06312758  0.42125374  0.56003486  1  0.452278  0  0.069704  0.051017  0  3.857331  0
C  C26  1  0.92008081  0.41755580  0.55500194  1  0.482398  0  0.069523  0.050226  0  3.865073  0
C  C27  1  0.92337169  0.57801568  0.44055203  1  0.551573  0  0.148977  0.200555  0  3.862571  0
C  C28  1  0.91481650  0.68424548  0.36303915  1  -0.022151  0  -0.134953  -0.224298  0  3.810513  0
C  C29  1  0.07785501  0.69009243  0.37006725  1  -0.055146  0  -0.132936  -0.225758  0  3.800486  0
C  C30  1  0.49229250  0.26340751  0.47929475  1  1.559741  0  0.215284  0.596429  0  4.189893  0
C  C31  1  0.49348121  0.48484593  0.73105702  1  1.553061  0  0.21455  0.594924  0  4.182143  0
C  C32  1  0.61492802  0.51455563  0.05356419  1  -0.016725  0  0.006654  0.080107  0  3.8617  0
C  C33  1  0.60418409  0.94408590  0.54573763  1  0.052295  0  0.003934  0.074554  0  3.868765  0
C  C34  1  0.49867809  0.49196408  0.12679845  1  0.036538  0  -0.01256  -0.076385  0  3.973706  0
C  C35  1  0.50000745  0.86924094  0.50282416  1  -0.106824  0  -0.012478  -0.077249  0  3.979261  0
C  C36  1  0.37974414  0.45942652  0.06527861  1  -0.015036  0  -0.070451  -0.10659  0  3.921115  0
C  C37  1  0.39388286  0.92773509  0.44618523  1  -0.0134  0  -0.070788  -0.104865  0  3.924238  0
C  C38  1  0.37596779  0.45189151  0.93835527  1  -0.025708  0  -0.017713  -0.010151  0  3.979421  0
C  C39  1  0.38975333  0.05316970  0.43402734  1  -0.010672  0  -0.01959  -0.016017  0  3.985416  0
C  C40  1  0.49483208  0.47763841  0.86515216  1  0.00957  0  -0.00342  -0.091711  0  3.934575  0
C  C41  1  0.49612845  0.12812522  0.47907887  1  -0.05243  0  -0.000167  -0.081307  0  3.926726  0
C  C42  1  0.61278262  0.50615193  0.92681204  1  -0.036362  0  -0.004899  0.056339  0  3.893819  0
C  C43  1  0.60204098  0.06907586  0.53304307  1  -0.001376  0  -0.005496  0.054826  0  3.8908  0
C  C44  1  0.76190515  0.54291024  0.91014034  1  -0.003518  0  -0.150531  -0.193071  0  3.866853  0
C  C45  1  0.73336783  0.08988131  0.60005081  1  -0.046047  0  -0.150535  -0.197201  0  3.868117  0
C  C46  1  0.24789622  0.40769393  0.88329498  1  0.927046  0  0.092018  0.281791  0  3.980682  0
C  C47  1  0.27373401  0.10289125  0.36888308  1  0.934798  0  0.091976  0.275349  0  3.966118  0
N  N48  1  0.13983811  0.50499594  0.50481958  1  -1.210958  0  -0.288263  -0.181242  0  3.462678  0
N  N49  1  0.84698305  0.49683953  0.49353528  1  -1.219309  0  -0.288017  -0.178961  0  3.474343  0
O  O50  1  0.61012554  0.68237846  0.53556242  1  -1.160114  0  -0.315711  -0.543882  0  2.285544  0
O  O51  1  0.60973597  0.52631041  0.31181705  1  -1.149442  0  -0.315181  -0.539742  0  2.291428  0
O  O52  1  0.38396473  0.68351491  0.49197999  1  -1.164335  0  -0.315194  -0.541918  0  2.333759  0
O  O53  1  0.38341277  0.47767660  0.31801700  1  -1.167744  0  -0.318644  -0.552037  0  2.329903  0
O  O54  1  0.60529888  0.31394464  0.45318137  1  -1.154616  0  -0.313826  -0.535635  0  2.287979  0
O  O55  1  0.60765554  0.46304911  0.67134822  1  -1.156316  0  -0.312812  -0.542396  0  2.318091  0
O  O56  1  0.37698634  0.31667882  0.50986941  1  -1.160813  0  -0.314677  -0.560452  0  2.33882  0
O  O57  1  0.37995338  0.51564553  0.68735503  1  -1.15419  0  -0.313612  -0.544872  0  2.320269  0
O  O58  1  0.13306378  0.41538379  0.93522343  1  -1.094463  0  -0.285156  -0.386094  0  2.101394  0
O  O59  1  0.16766944  0.04717026  0.34903697  1  -1.094948  0  -0.289558  -0.386221  0  2.086456  0
