# generated using pymatgen
data_CuH26C32(NO2)6
_symmetry_space_group_name_H-M   'P 1'
_cell_length_a   8.11125315
_cell_length_b   9.73458467
_cell_length_c   11.49365378
_cell_angle_alpha   63.85398417
_cell_angle_beta   87.39124160
_cell_angle_gamma   73.37787515
_symmetry_Int_Tables_number   1
_chemical_formula_structural   CuH26C32(NO2)6
_chemical_formula_sum   'Cu1 H26 C32 N6 O12'
_cell_volume   777.19802283
_cell_formula_units_Z   1
loop_
 _symmetry_equiv_pos_site_id
 _symmetry_equiv_pos_as_xyz
  1  'x, y, z'
loop_
 _atom_site_type_symbol
 _atom_site_label
 _atom_site_symmetry_multiplicity
 _atom_site_fract_x
 _atom_site_fract_y
 _atom_site_fract_z
 _atom_site_occupancy
 _atom_site_hle17_ddec_charge
 _atom_site_hle17_ddec_spin_density
 _atom_site_hle17_ddec_sum_bond_order
 _atom_site_hle17_magmom
 _atom_site_hse06_10hf_ddec_charge
 _atom_site_hse06_10hf_ddec_spin_density
 _atom_site_hse06_10hf_ddec_sum_bond_order
 _atom_site_hse06_10hf_magmom
 _atom_site_hse06_ddec_charge
 _atom_site_hse06_ddec_spin_density
 _atom_site_hse06_ddec_sum_bond_order
 _atom_site_hse06_magmom
 _atom_site_pbe_cm5_charge
 _atom_site_pbe_ddec_charge
 _atom_site_pbe_ddec_spin_density
 _atom_site_pbe_ddec_sum_bond_order
 _atom_site_pbe_magmom
Cu  Cu0  1  0.99999531  0.50000055  0.50000086  1  0.858152  0.693836  1.781104  0.509  0.838359  0.780088  2.157741  0.627  0.929358  0.846669  2.091999  0.713  0.736301  0.784531  0.732546  2.201725  0.57
H  H1  1  0.28486787  0.58389317  0.45862471  1  0.39758  -0.00019  0.930692  0.0  0.361099  -0.000185  1.006545  0.0  0.373297  -0.000211  0.988749  0.0  0.26963  0.352488  -0.000135  1.019092  0.0
H  H2  1  0.71512332  0.41611097  0.54137846  1  0.397737  -0.00019  0.930519  0.0  0.361234  -0.000185  1.006405  0.0  0.373431  -0.000211  0.988609  0.0  0.269676  0.352621  -0.000135  1.018954  0.0
H  H3  1  0.41226703  0.40590263  0.53430144  1  0.40253  3.1e-05  0.852652  0.0  0.391016  -1.2e-05  0.903989  0.0  0.399967  1e-06  0.893464  0.0  0.304084  0.384877  -2.9e-05  0.911251  0.0
H  H4  1  0.58772184  0.59409672  0.46569932  1  0.402437  3e-05  0.852717  0.0  0.390931  -1.2e-05  0.90404  0.0  0.399879  0.0  0.893523  0.0  0.304034  0.38479  -2.9e-05  0.911299  0.0
H  H5  1  0.85119247  0.47255758  0.09518157  1  0.317966  -1.7e-05  0.940694  0.0  0.29453  1e-06  1.012723  0.0  0.303681  3e-06  1.005036  0.0  0.30485  0.288315  6e-06  1.017657  0.0
H  H6  1  0.14879356  0.52744304  0.90481968  1  0.317997  -1.6e-05  0.940603  0.0  0.294562  1e-06  1.012637  0.0  0.303711  4e-06  1.004951  0.0  0.304856  0.288349  6e-06  1.017571  0.0
H  H7  1  0.45359990  0.27988292  0.86570901  1  0.304438  1.1e-05  0.953644  0.0  0.276306  1.3e-05  1.025121  0.0  0.288051  7e-06  1.017161  0.0  0.29231  0.2682  1.5e-05  1.030487  0.0
H  H8  1  0.54639642  0.72011623  0.13429068  1  0.304477  1e-05  0.953661  0.0  0.276354  1.3e-05  1.025153  0.0  0.288106  7e-06  1.01719  0.0  0.292339  0.268245  1.4e-05  1.030519  0.0
H  H9  1  0.76346417  0.64192554  0.88717160  1  0.123575  4e-06  0.94109  0.0  0.133563  4e-06  0.999042  0.0  0.136844  -1e-06  0.997016  0.0  0.116093  0.13114  1e-06  1.000568  0.0
H  H10  1  0.23653248  0.35807227  0.11282164  1  0.123633  7e-06  0.941019  0.0  0.133623  4e-06  0.998952  0.0  0.13691  -0.0  0.996928  0.0  0.11611  0.131197  1e-06  1.000473  0.0
H  H11  1  0.75447255  0.02991998  0.86223142  1  0.108254  -6.5e-05  0.940367  0.0  0.118015  -1.6e-05  1.001264  0.0  0.122087  -1.3e-05  0.998278  0.0  0.106215  0.114931  -5.3e-05  1.003691  0.0
H  H12  1  0.24554315  0.97007652  0.13777728  1  0.108255  -6.7e-05  0.940314  0.0  0.118025  -1.7e-05  1.001192  0.0  0.122066  -1.3e-05  0.998242  0.0  0.106202  0.114922  -5.4e-05  1.003629  0.0
H  H13  1  0.25062926  0.17360287  0.59896258  1  0.104602  0.00094  0.915057  0.002  0.11273  0.000813  0.974761  0.001  0.115535  0.000579  0.97145  0.001  0.12985  0.110399  0.000957  0.977451  0.001
H  H14  1  0.74937079  0.82640446  0.40103121  1  0.104543  0.000944  0.915108  0.002  0.112755  0.000813  0.97473  0.001  0.115559  0.000579  0.971423  0.001  0.129865  0.110417  0.000957  0.97742  0.001
H  H15  1  0.43103507  0.52534079  0.68048799  1  0.097722  4.4e-05  0.98197  0.0  0.106021  3.2e-05  1.045508  0.0  0.109319  3.7e-05  1.042004  0.0  0.119245  0.103461  2.5e-05  1.048205  0.0
H  H16  1  0.56896763  0.47465338  0.31950990  1  0.097647  4.4e-05  0.981864  0.0  0.105943  3.1e-05  1.045437  0.0  0.109245  3.7e-05  1.041927  0.0  0.119221  0.10338  2.5e-05  1.048133  0.0
H  H17  1  0.32061311  0.94847290  0.53657421  1  0.103003  0.000514  0.943103  0.0  0.115604  0.000536  0.996859  0.0  0.118417  0.000387  0.996753  0.0  0.108808  0.11352  0.00062  0.997196  0.001
H  H18  1  0.67938393  0.05152395  0.46343069  1  0.102965  0.000516  0.943001  0.0  0.115582  0.000536  0.996736  0.0  0.118395  0.000387  0.99663  0.0  0.108801  0.113496  0.00062  0.997073  0.001
H  H19  1  0.87531852  0.46023680  0.28905563  1  0.109525  0.000919  0.955346  0.002  0.113355  0.000744  1.023512  0.001  0.116255  0.000536  1.020431  0.001  0.127009  0.110968  0.000908  1.025863  0.002
H  H20  1  0.12468859  0.53976303  0.71093121  1  0.109539  0.000934  0.95533  0.002  0.113373  0.000745  1.023497  0.001  0.116275  0.000537  1.020414  0.001  0.126996  0.11099  0.000908  1.02585  0.002
H  H21  1  0.13971073  0.97558875  0.35087291  1  0.1211  0.000228  0.958503  0.001  0.127713  -3.1e-05  1.022606  0.0  0.131306  -5.9e-05  1.019568  0.0  0.112805  0.124943  4e-06  1.025135  0.0
H  H22  1  0.86028949  0.02440559  0.64913023  1  0.121118  0.000218  0.958464  0.001  0.127782  -3.1e-05  1.022515  0.0  0.131375  -5.9e-05  1.019474  0.0  0.112828  0.124998  5e-06  1.02507  0.0
H  H23  1  0.64104266  0.19274715  0.05525244  1  0.125464  6e-06  0.94376  0.0  0.130244  1.1e-05  1.005026  0.0  0.134476  4e-06  1.001324  0.0  0.133297  0.126978  1.4e-05  1.0081  0.0
H  H24  1  0.35894834  0.80725335  0.94474867  1  0.125438  1e-05  0.943813  0.0  0.130229  1.1e-05  1.005056  0.0  0.134459  4e-06  1.001359  0.0  0.133287  0.126967  1.5e-05  1.008132  0.0
H  H25  1  0.57991388  0.72260094  0.68491555  1  0.09735  -1.6e-05  0.957462  0.0  0.107867  -2e-06  1.016135  0.0  0.11012  -6e-06  1.016773  0.0  0.106081  0.106257  4e-06  1.015886  0.0
H  H26  1  0.42008703  0.27739911  0.31507492  1  0.097305  -1.3e-05  0.957599  0.0  0.107839  -2e-06  1.016248  0.0  0.110088  -6e-06  1.01689  0.0  0.106076  0.106225  4e-06  1.015999  0.0
C  C27  1  0.95964134  0.12374934  0.87162743  1  -0.060446  0.008885  3.718682  0.01  -0.049969  0.005348  3.959341  0.006  -0.055263  0.003704  3.978599  0.005  -0.013524  -0.046484  0.006772  3.946634  0.008
C  C28  1  0.04035874  0.87625822  0.12837671  1  -0.060503  0.008881  3.71906  0.01  -0.050264  0.005347  3.959897  0.006  -0.055457  0.003703  3.979021  0.005  -0.013639  -0.046769  0.006772  3.947163  0.008
C  C29  1  0.69861643  0.56183904  0.87986599  1  -0.082916  9.1e-05  3.635238  0.0  -0.11132  6e-06  3.890237  0.0  -0.10883  -4e-06  3.905262  0.0  -0.060091  -0.112421  -1.1e-05  3.879799  0.0
C  C30  1  0.30138325  0.43816117  0.12013056  1  -0.082963  9.8e-05  3.635444  0.0  -0.111356  7e-06  3.890378  0.0  -0.108875  -5e-06  3.905413  0.0  -0.060069  -0.112458  -1.1e-05  3.879934  0.0
C  C31  1  0.86291297  0.01543546  0.92361274  1  -0.092309  0.000887  3.714333  0.002  -0.130923  0.000606  3.976723  0.001  -0.131883  0.000253  3.995523  0.001  -0.084245  -0.130427  0.000781  3.96413  0.001
C  C32  1  0.13709475  0.98456720  0.07639474  1  -0.092239  0.000884  3.714635  0.002  -0.130783  0.000608  3.977074  0.001  -0.131746  0.000256  3.995847  0.001  -0.084176  -0.130272  0.000782  3.964457  0.001
C  C33  1  0.99112831  0.21948982  0.30623816  1  -0.100014  0.009297  3.737292  0.01  -0.073004  0.003515  3.970628  0.004  -0.083916  0.003161  3.992581  0.004  -0.005615  -0.066337  0.00379  3.956064  0.005
C  C34  1  0.00887066  0.78051276  0.69375663  1  -0.099883  0.009289  3.737134  0.01  -0.072953  0.003516  3.970576  0.004  -0.08387  0.00316  3.992527  0.004  -0.005569  -0.066292  0.003791  3.956027  0.005
C  C35  1  0.20384257  0.22408357  0.91005704  1  0.679832  0.000722  3.888126  0.0  0.628111  0.000731  4.196981  0.0  0.663267  0.000422  4.184874  0.0  0.213027  0.604045  0.000805  4.204788  0.0
C  C36  1  0.79615787  0.77592277  0.08994668  1  0.68003  0.000712  3.888294  0.0  0.628259  0.000731  4.197178  0.0  0.663419  0.000422  4.185078  0.0  0.213061  0.604195  0.000805  4.204993  0.0
C  C37  1  0.71811168  0.41168726  0.98750533  1  0.227207  -0.000141  3.766564  0.0  0.222505  -1.6e-05  4.017993  0.0  0.22713  -2.6e-05  4.03928  0.0  0.116547  0.21925  -1.2e-05  4.003341  0.0
C  C38  1  0.28188553  0.58831308  0.01249474  1  0.227131  -0.000138  3.766667  0.0  0.222472  -1.7e-05  4.018032  0.0  0.227092  -2.5e-05  4.039321  0.0  0.116523  0.219215  -1.2e-05  4.003383  0.0
C  C39  1  0.18467233  0.18460471  0.51332007  1  0.131033  -0.012  3.67281  -0.008  0.095827  -0.002833  3.938136  -0.002  0.107474  -0.00432  3.953231  -0.003  0.05578  0.088662  -0.001597  3.92833  -0.001
C  C40  1  0.81532327  0.81539678  0.48667614  1  0.130972  -0.012012  3.672978  -0.008  0.095688  -0.002833  3.938317  -0.002  0.107335  -0.004318  3.953408  -0.003  0.055758  0.088529  -0.001597  3.92849  -0.001
C  C41  1  0.91326066  0.24860004  0.73244544  1  0.648132  -0.006342  3.861042  -0.007  0.600982  -0.000841  4.167205  -0.002  0.638905  -0.001448  4.159717  -0.002  0.21325  0.574852  -0.000431  4.172041  -0.002
C  C42  1  0.08674050  0.75140398  0.26756264  1  0.648137  -0.006335  3.860682  -0.007  0.601129  -0.000841  4.16668  -0.002  0.639023  -0.001449  4.159194  -0.002  0.213285  0.574992  -0.000432  4.171503  -0.002
C  C43  1  0.09849592  0.10837529  0.94990473  1  -0.037404  -0.000745  3.691545  -0.001  -0.026065  -0.000169  3.931577  0.0  -0.027619  -0.000277  3.948231  0.0  -0.004429  -0.025037  3.3e-05  3.920477  0.0
C  C44  1  0.90150827  0.89162288  0.05011332  1  -0.037468  -0.000749  3.691576  -0.001  -0.025984  -0.000169  3.931535  0.0  -0.027576  -0.000272  3.948179  0.0  -0.004286  -0.024961  3.3e-05  3.920447  0.0
C  C45  1  0.51320209  0.50183268  0.76397193  1  0.112303  7.4e-05  3.642278  0.0  0.068873  -7e-06  3.902577  0.0  0.07535  4e-06  3.919783  0.0  0.047755  0.064445  -3e-06  3.89158  0.0
C  C46  1  0.48679386  0.49816758  0.23602300  1  0.112437  8.1e-05  3.641883  0.0  0.069016  -6e-06  3.902284  0.0  0.075494  3e-06  3.91949  0.0  0.047859  0.064613  -3e-06  3.891234  0.0
C  C47  1  0.22045722  0.05943552  0.47865207  1  -0.115895  0.009592  3.746228  0.01  -0.126467  0.00351  3.999515  0.004  -0.134587  0.003244  4.019071  0.004  -0.081639  -0.121245  0.003732  3.986145  0.004
C  C48  1  0.77954513  0.94055992  0.52134883  1  -0.115752  0.009586  3.746303  0.01  -0.126327  0.00351  3.999608  0.004  -0.13445  0.003244  4.019165  0.004  -0.081596  -0.121102  0.003733  3.986225  0.004
C  C49  1  0.96955069  0.34326001  0.34150163  1  0.118593  -0.012299  3.624077  -0.008  0.081759  -0.002872  3.8734  -0.002  0.092521  -0.004427  3.890514  -0.003  0.054344  0.074913  -0.00176  3.862215  -0.001
C  C50  1  0.03044596  0.65673780  0.65849160  1  0.118666  -0.012361  3.623797  -0.008  0.081824  -0.002877  3.873189  -0.002  0.092587  -0.004427  3.890305  -0.003  0.054434  0.07498  -0.001762  3.862011  -0.001
C  C51  1  0.12051925  0.07470679  0.37599012  1  -0.015265  -0.013519  3.668187  -0.009  -0.042028  -0.004686  3.909538  -0.003  -0.035615  -0.005215  3.924991  -0.003  -0.057326  -0.046173  -0.004342  3.899272  -0.002
C  C52  1  0.87947280  0.92529006  0.62400975  1  -0.015313  -0.013461  3.668172  -0.009  -0.042102  -0.004684  3.909546  -0.003  -0.035691  -0.005214  3.925005  -0.003  -0.057333  -0.046235  -0.004342  3.899305  -0.002
C  C53  1  0.63207018  0.31068554  0.97723505  1  0.038832  0.000133  3.577688  0.0  -0.004316  3e-05  3.831049  0.0  0.000681  2.2e-05  3.846023  0.0  0.061964  -0.007611  3.8e-05  3.821007  0.0
C  C54  1  0.36792633  0.68931727  0.02276757  1  0.038936  0.000117  3.577584  0.0  -0.00418  3.2e-05  3.83094  0.0  0.000814  2.1e-05  3.845929  0.0  0.062052  -0.007485  3.8e-05  3.820913  0.0
C  C55  1  0.87140980  0.23010190  0.20482102  1  0.544149  5.9e-05  3.838981  0.0  0.494676  0.000384  4.130425  0.0  0.523179  0.000249  4.13249  0.0  0.244774  0.475952  0.000519  4.127802  0.001
C  C56  1  0.12859092  0.76988625  0.79517405  1  0.544038  5e-05  3.838692  0.0  0.494668  0.000384  4.130059  0.0  0.523179  0.000248  4.132112  0.0  0.244811  0.475949  0.000519  4.127453  0.001
C  C57  1  0.59600271  0.60650399  0.76823950  1  -0.098284  -0.000154  3.756631  0.0  -0.114243  -5.3e-05  4.020041  0.0  -0.120632  -6.5e-05  4.042239  0.0  -0.081846  -0.110336  -5.4e-05  4.00515  0.0
C  C58  1  0.40399838  0.39349140  0.23175798  1  -0.098269  -0.000176  3.75668  0.0  -0.114232  -5.5e-05  4.020066  0.0  -0.12062  -6.4e-05  4.042276  0.0  -0.081893  -0.110331  -5.4e-05  4.005169  0.0
N  N59  1  0.06211228  0.32408160  0.44475420  1  -0.289235  0.071424  3.333635  0.091  -0.238807  0.049362  3.628131  0.068  -0.270126  0.040618  3.650553  0.06  -0.345106  -0.220759  0.054466  3.615126  0.071
N  N60  1  0.93788154  0.67592582  0.55523717  1  -0.289214  0.07143  3.333646  0.091  -0.238786  0.049366  3.628181  0.068  -0.270105  0.040618  3.650603  0.06  -0.345196  -0.220738  0.05447  3.615168  0.071
N  N61  1  0.81908812  0.37489363  0.09756283  1  -0.455105  0.000361  3.381056  0.0  -0.402016  7.7e-05  3.625132  0.0  -0.425388  6.8e-05  3.634832  0.0  -0.392489  -0.386103  8.2e-05  3.61736  0.0
N  N62  1  0.18090697  0.62511387  0.90243368  1  -0.45506  0.000362  3.381038  0.0  -0.40204  7.8e-05  3.625119  0.0  -0.425406  6.8e-05  3.634815  0.0  -0.392527  -0.386121  8.2e-05  3.617355  0.0
N  N63  1  0.53362765  0.35922454  0.86754185  1  -0.200281  1.6e-05  3.448079  0.0  -0.127138  2.3e-05  3.677261  0.0  -0.142565  2e-06  3.696518  0.0  -0.323827  -0.116906  2.8e-05  3.664128  0.0
N  N64  1  0.46637631  0.64077798  0.13245539  1  -0.200263  1.9e-05  3.447989  0.0  -0.127236  2.2e-05  3.677326  0.0  -0.14267  3e-06  3.69658  0.0  -0.323917  -0.117011  2.8e-05  3.664204  0.0
O  O65  1  0.01022503  0.34093681  0.68609660  1  -0.590862  0.091333  2.100623  0.124  -0.565774  0.056275  2.387947  0.085  -0.610449  0.041851  2.383702  0.068  -0.311063  -0.53497  0.067602  2.39037  0.096
O  O66  1  0.98977344  0.65906361  0.31390861  1  -0.590908  0.09136  2.100466  0.124  -0.565895  0.056286  2.387708  0.085  -0.610563  0.041859  2.383446  0.068  -0.311151  -0.53509  0.067619  2.390123  0.096
O  O67  1  0.78488849  0.25427145  0.66976182  1  -0.619402  -0.000341  1.97208  0.001  -0.569429  -0.000651  2.193155  0.001  -0.595499  -0.001464  2.183185  -0.001  -0.320954  -0.551392  2.7e-05  2.199887  0.001
O  O68  1  0.21511779  0.74571931  0.33024857  1  -0.619351  -0.000335  1.972079  0.001  -0.569379  -0.000652  2.193043  0.001  -0.595454  -0.001467  2.183076  -0.001  -0.320936  -0.551351  2.6e-05  2.199776  0.001
O  O69  1  0.82648259  0.11160799  0.22204478  1  -0.524232  0.002064  1.940793  0.003  -0.481384  0.000765  2.160349  0.001  -0.504764  0.000439  2.159279  0.001  -0.272659  -0.464899  0.001238  2.16037  0.002
O  O70  1  0.17355489  0.88839350  0.77794029  1  -0.524425  0.002074  1.940268  0.003  -0.481565  0.000765  2.15973  0.001  -0.504959  0.00044  2.158666  0.001  -0.272774  -0.465069  0.001239  2.15976  0.002
O  O71  1  0.35160827  0.18384827  0.87083505  1  -0.580517  0.001016  1.949966  0.001  -0.535073  0.000602  2.161816  0.001  -0.559693  0.000297  2.151454  0.0  -0.326227  -0.518007  0.000535  2.168778  0.001
O  O72  1  0.64839055  0.81615086  0.12916630  1  -0.58073  0.001018  1.950052  0.001  -0.535241  0.000602  2.161892  0.001  -0.559867  0.000297  2.151516  0.0  -0.326303  -0.518175  0.000535  2.168855  0.001
O  O73  1  0.14120466  0.34652872  0.92935696  1  -0.644861  0.001944  1.975037  0.003  -0.601487  0.000741  2.213319  0.001  -0.6266  0.000304  2.205136  0.0  -0.33334  -0.584175  0.000707  2.218042  0.001
O  O74  1  0.85879685  0.65348237  0.07064576  1  -0.644797  0.00195  1.974973  0.003  -0.601489  0.000742  2.213388  0.001  -0.626559  0.000304  2.205106  0.0  -0.333362  -0.584174  0.000707  2.218113  0.001
O  O75  1  0.31503354  0.48360909  0.54527250  1  -0.835293  -0.001687  1.848788  0.0  -0.800599  -0.001805  2.033758  -0.001  -0.819169  -0.001997  2.00277  -0.001  -0.5915  -0.787647  -0.001566  2.055394  0.0
O  O76  1  0.68496050  0.51639382  0.45473192  1  -0.835316  -0.001685  1.848713  0.0  -0.800588  -0.001805  2.033665  -0.001  -0.819193  -0.001997  2.002742  -0.001  -0.591488  -0.787636  -0.001566  2.055301  0.0
