# generated using pymatgen
data_Ag2H7C12N2ClO4
_symmetry_space_group_name_H-M   'P 1'
_cell_length_a   7.00985956
_cell_length_b   12.56356370
_cell_length_c   15.51700000
_cell_angle_alpha   113.15334201
_cell_angle_beta   90.00000000
_cell_angle_gamma   90.00000000
_symmetry_Int_Tables_number   1
_chemical_formula_structural   Ag2H7C12N2ClO4
_chemical_formula_sum   'Ag8 H28 C48 N8 Cl4 O16'
_cell_volume   1256.49509233
_cell_formula_units_Z   4
loop_
 _symmetry_equiv_pos_site_id
 _symmetry_equiv_pos_as_xyz
  1  'x, y, z'
loop_
 _atom_site_type_symbol
 _atom_site_label
 _atom_site_symmetry_multiplicity
 _atom_site_fract_x
 _atom_site_fract_y
 _atom_site_fract_z
 _atom_site_occupancy
 _atom_site_hle17_bader_spin_density
 _atom_site_hle17_ddec_charge
 _atom_site_hle17_ddec_spin_density
 _atom_site_hle17_ddec_sum_bond_order
 _atom_site_hle17_magmom
 _atom_site_hse06_10hf_bader_spin_density
 _atom_site_hse06_10hf_ddec_charge
 _atom_site_hse06_10hf_ddec_spin_density
 _atom_site_hse06_10hf_ddec_sum_bond_order
 _atom_site_hse06_10hf_magmom
 _atom_site_hse06_bader_spin_density
 _atom_site_hse06_ddec_charge
 _atom_site_hse06_ddec_spin_density
 _atom_site_hse06_ddec_sum_bond_order
 _atom_site_hse06_magmom
 _atom_site_pbe_bader_charge
 _atom_site_pbe_bader_spin_density
 _atom_site_pbe_cm5_charge
 _atom_site_pbe_ddec_charge
 _atom_site_pbe_ddec_spin_density
 _atom_site_pbe_ddec_sum_bond_order
 _atom_site_pbe_magmom
Ag  Ag0  1  0.71920984  0.48390956  0.49435646  1  0  0.533243  0  1.477395  0  0  0.422408  0  1.95704  0  0  0.461698  0  1.884451  0  0.599064  0  0.388444  0.395495  0  2.006945  0
Ag  Ag1  1  0.21920696  0.01609728  0.50564923  1  0  0.533193  0  1.477337  0  0  0.422344  0  1.957009  0  0  0.461637  0  1.884414  0  0.599138  0  0.388406  0.395428  0  2.006918  0
Ag  Ag2  1  0.28078023  0.51609287  0.50563845  1  0  0.533238  0  1.47745  0  0  0.42242  0  1.957127  0  0  0.461711  0  1.884533  0  0.599864  0  0.388477  0.395503  0  2.007037  0
Ag  Ag3  1  0.78076885  0.98391381  0.49436584  1  0  0.533244  0  1.477388  0  0  0.422425  0  1.957062  0  0  0.461719  0  1.88447  0  0.59986  0  0.388478  0.395509  0  2.006972  0
Ag  Ag4  1  0.44861098  0.28414575  0.45162300  1  0  0.576584  0  1.435287  0  0  0.44548  0  1.901634  0  0  0.477219  0  1.841827  0  0.607494  0  0.459041  0.42347  0  1.943367  0
Ag  Ag5  1  0.94860959  0.21585416  0.54837597  1  0  0.576501  0  1.435487  0  0  0.445457  0  1.901881  0  0  0.477174  0  1.842073  0  0.607435  0  0.459034  0.42345  0  1.943613  0
Ag  Ag6  1  0.55138765  0.71585235  0.54837568  1  0  0.576517  0  1.435405  0  0  0.445442  0  1.901808  0  0  0.477164  0  1.841996  0  0.607498  0  0.459036  0.423432  0  1.943544  0
Ag  Ag7  1  0.05137621  0.78414913  0.45162244  1  0  0.576561  0  1.435313  0  0  0.445518  0  1.90161  0  0  0.477239  0  1.841804  0  0.60744  0  0.459041  0.423509  0  1.94334  0
H  H8  1  0.67507201  0.56956059  0.82378665  1  0  0.085758  0  0.970948  0  0  0.093217  0  1.041242  0  0  0.096023  0  1.039863  0  0.070622  0  0.093727  0.091233  0  1.04225  0
H  H9  1  0.17507626  0.93045387  0.17622204  1  0  0.085884  0  0.971029  0  0  0.093348  0  1.04128  0  0  0.096157  0  1.039897  0  0.070863  0  0.093785  0.091362  0  1.042293  0
H  H10  1  0.32493661  0.43045050  0.17621166  1  0  0.08584  0  0.971003  0  0  0.093254  0  1.041347  0  0  0.096059  0  1.039969  0  0.070787  0  0.093729  0.091273  0  1.042353  0
H  H11  1  0.82493236  0.06954336  0.82379119  1  0  0.085904  0  0.971135  0  0  0.09336  0  1.041399  0  0  0.096169  0  1.040014  0  0.0709  0  0.093763  0.091376  0  1.042407  0
H  H12  1  0.70561043  0.52515478  0.96708299  1  0  0.086612  0  0.994445  0  0  0.087213  0  1.07439  0  0  0.090839  0  1.071921  0  0.113445  0  0.088838  0.084632  0  1.076144  0
H  H13  1  0.20560041  0.97485882  0.03292349  1  0  0.086553  0  0.99468  0  0  0.087191  0  1.074567  0  0  0.090856  0  1.072064  0  0.113723  0  0.088799  0.084608  0  1.076322  0
H  H14  1  0.29440105  0.47486063  0.03291669  1  0  0.086588  0  0.994524  0  0  0.087213  0  1.074429  0  0  0.090868  0  1.071935  0  0.113659  0  0.088815  0.084631  0  1.076181  0
H  H15  1  0.79438967  0.02512370  0.96707990  1  0  0.086591  0  0.994662  0  0  0.08726  0  1.074491  0  0  0.090916  0  1.071994  0  0.113365  0  0.088883  0.084677  0  1.076248  0
H  H16  1  0.62884855  0.32941810  0.95767709  1  0  0.079294  0  0.981332  0  0  0.089524  0  1.047345  0  0  0.092384  0  1.045415  0  0.064811  0  0.086203  0.087491  0  1.048778  0
H  H17  1  0.12882569  0.17059393  0.04232767  1  0  0.079223  0  0.981396  0  0  0.089462  0  1.047385  0  0  0.092327  0  1.045449  0  0.064711  0  0.086212  0.087428  0  1.048819  0
H  H18  1  0.37116007  0.67060077  0.04232821  1  0  0.079272  0  0.981335  0  0  0.089461  0  1.047408  0  0  0.092325  0  1.045472  0  0.065101  0  0.086211  0.087432  0  1.048839  0
H  H19  1  0.87114727  0.82938339  0.95766569  1  0  0.07932  0  0.981279  0  0  0.0895  0  1.047337  0  0  0.092366  0  1.0454  0  0.064992  0  0.086239  0.087469  0  1.048769  0
H  H20  1  0.52549698  0.17582955  0.80599162  1  0  0.087573  0  0.977349  0  0  0.098418  0  1.042917  0  0  0.10088  0  1.042143  0  0.079301  0  0.097364  0.096666  0  1.043581  0
H  H21  1  0.02547840  0.32418335  0.19401535  1  0  0.087633  0  0.977341  0  0  0.098526  0  1.042852  0  0  0.100975  0  1.042104  0  0.079093  0  0.097386  0.096775  0  1.043511  0
H  H22  1  0.47450309  0.82418586  0.19401709  1  0  0.087669  0  0.977372  0  0  0.098609  0  1.042809  0  0  0.101041  0  1.042076  0  0.079089  0  0.097439  0.096859  0  1.043461  0
H  H23  1  0.97450740  0.67580523  0.80597643  1  0  0.087605  0  0.977272  0  0  0.09854  0  1.042739  0  0  0.10098  0  1.041996  0  0.079006  0  0.097424  0.09679  0  1.043396  0
H  H24  1  0.46534884  0.31624941  0.26634487  1  0  0.114305  0  0.938075  0  0  0.120544  0  1.003375  0  0  0.123338  0  1.001139  0  0.170099  0  0.122425  0.118339  0  1.005327  0
H  H25  1  0.96533318  0.18374098  0.73364979  1  0  0.114249  0  0.93818  0  0  0.120492  0  1.003393  0  0  0.123325  0  1.001113  0  0.169869  0  0.122438  0.118289  0  1.005338  0
H  H26  1  0.53466406  0.68374089  0.73365134  1  0  0.114349  0  0.938113  0  0  0.12054  0  1.003363  0  0  0.123367  0  1.00109  0  0.169883  0  0.122437  0.118336  0  1.00531  0
H  H27  1  0.03466261  0.81625972  0.26634908  1  0  0.114355  0  0.938021  0  0  0.120565  0  1.00327  0  0  0.123392  0  1.000997  0  0.169904  0  0.12246  0.118362  0  1.005218  0
H  H28  1  0.57931260  0.03254169  0.33418850  1  0  0.112763  0  0.949063  0  0  0.118871  0  1.014369  0  0  0.12213  0  1.011031  0  0.172777  0  0.122075  0.116353  0  1.017025  0
H  H29  1  0.07930687  0.46744610  0.66580532  1  0  0.112671  0  0.94911  0  0  0.118867  0  1.014341  0  0  0.122098  0  1.011038  0  0.172765  0  0.12209  0.116352  0  1.016993  0
H  H30  1  0.42069887  0.96744515  0.66580531  1  0  0.11266  0  0.949145  0  0  0.118847  0  1.014374  0  0  0.122072  0  1.011077  0  0.172751  0  0.122095  0.116331  0  1.017028  0
H  H31  1  0.92067750  0.53255200  0.33418756  1  0  0.112704  0  0.94918  0  0  0.118849  0  1.014476  0  0  0.122095  0  1.011154  0  0.172841  0  0.122084  0.116333  0  1.017132  0
H  H32  1  0.71204708  0.92470318  0.17237865  1  0  0.078169  0  0.959696  0  0  0.080613  0  1.032498  0  0  0.083559  0  1.030704  0  0.101287  0  0.10901  0.078447  0  1.034  0
H  H33  1  0.21204276  0.57528272  0.82761837  1  0  0.078347  0  0.959471  0  0  0.080748  0  1.032306  0  0  0.083695  0  1.030512  0  0.101311  0  0.109059  0.078581  0  1.033809  0
H  H34  1  0.28797296  0.07528627  0.82761986  1  0  0.078295  0  0.959548  0  0  0.08072  0  1.032344  0  0  0.083664  0  1.030558  0  0.101218  0  0.10906  0.078554  0  1.033845  0
H  H35  1  0.78795587  0.42471365  0.17237396  1  0  0.078208  0  0.959589  0  0  0.080633  0  1.03241  0  0  0.083578  0  1.030618  0  0.101488  0  0.109028  0.078467  0  1.033911  0
C  C36  1  0.57808005  0.39887576  0.73597989  1  0  -0.078973  0  3.742286  0  0  -0.060801  0  3.970155  0  0  -0.067483  0  3.992485  0  -0.076375  0  -0.018253  -0.056336  0  3.955107  0
C  C37  1  0.07807432  0.10113541  0.26402524  1  0  -0.078724  0  3.742423  0  0  -0.060493  0  3.970214  0  0  -0.067181  0  3.992552  0  -0.076563  0  -0.018133  -0.056034  0  3.955173  0
C  C38  1  0.42192143  0.60113359  0.26402173  1  0  -0.078978  0  3.742278  0  0  -0.06073  0  3.970101  0  0  -0.06741  0  3.992427  0  -0.076225  0  -0.018188  -0.056267  0  3.955055  0
C  C39  1  0.92192717  0.89886616  0.73597841  1  0  -0.079066  0  3.742329  0  0  -0.060793  0  3.970107  0  0  -0.067499  0  3.992466  0  -0.076192  0  -0.018196  -0.056333  0  3.955066  0
C  C40  1  0.64083595  0.48366544  0.82098623  1  0  -0.082939  0  3.751966  0  0  -0.105692  0  4.001029  0  0  -0.106729  0  4.022305  0  -0.004989  0  -0.093016  -0.104874  0  3.986482  0
C  C41  1  0.14083164  0.01634746  0.17902268  1  0  -0.083233  0  3.752459  0  0  -0.105988  0  4.001487  0  0  -0.107022  0  4.022772  0  -0.004622  0  -0.093199  -0.105163  0  3.986921  0
C  C42  1  0.35917267  0.51634045  0.17901236  1  0  -0.082864  0  3.751884  0  0  -0.105613  0  4.000921  0  0  -0.106649  0  4.022198  0  -0.004719  0  -0.093042  -0.104796  0  3.986377  0
C  C43  1  0.85916557  0.98365064  0.82098567  1  0  -0.08298  0  3.752325  0  0  -0.105766  0  4.001352  0  0  -0.106795  0  4.022636  0  -0.004706  0  -0.09312  -0.104948  0  3.986803  0
C  C44  1  0.65724855  0.45953294  0.90084752  1  0  -0.058603  0  3.751349  0  0  -0.072059  0  4.003433  0  0  -0.073731  0  4.023708  0  -0.065684  0  -0.094578  -0.070759  0  3.989482  0
C  C45  1  0.15724423  0.04048342  0.09915669  1  0  -0.058546  0  3.751502  0  0  -0.072034  0  4.003545  0  0  -0.073743  0  4.0238  0  -0.066471  0  -0.094423  -0.070733  0  3.989598  0
C  C46  1  0.34275722  0.54048334  0.09915116  1  0  -0.058774  0  3.751209  0  0  -0.072267  0  4.003341  0  0  -0.073968  0  4.023601  0  -0.066276  0  -0.094517  -0.070967  0  3.989392  0
C  C47  1  0.84275298  0.95950689  0.90084596  1  0  -0.058784  0  3.751138  0  0  -0.072378  0  4.003455  0  0  -0.074078  0  4.023717  0  -0.065731  0  -0.094568  -0.071078  0  3.989507  0
C  C48  1  0.61365423  0.34870973  0.89550134  1  0  -0.064943  0  3.780749  0  0  -0.083108  0  4.038914  0  0  -0.084361  0  4.059163  0  -0.048933  0  -0.096444  -0.082063  0  4.025047  0
C  C49  1  0.11364422  0.15130403  0.10450720  1  0  -0.064734  0  3.780748  0  0  -0.082889  0  4.038855  0  0  -0.08415  0  4.059122  0  -0.04854  0  -0.096424  -0.081842  0  4.024988  0
C  C50  1  0.38635153  0.65130654  0.10450442  1  0  -0.064674  0  3.780727  0  0  -0.082791  0  4.038811  0  0  -0.084056  0  4.059084  0  -0.049074  0  -0.096389  -0.081754  0  4.024951  0
C  C51  1  0.88634443  0.84867589  0.89549021  1  0  -0.064693  0  3.780412  0  0  -0.082798  0  4.038526  0  0  -0.084061  0  4.058791  0  -0.04916  0  -0.096492  -0.081757  0  4.024666  0
C  C52  1  0.55495548  0.26302754  0.81084888  1  0  -0.092502  0  3.752316  0  0  -0.116965  0  4.005675  0  0  -0.11855  0  4.026456  0  -0.011401  0  -0.095071  -0.115808  0  3.991652  0
C  C53  1  0.05494261  0.23698449  0.18915910  1  0  -0.092662  0  3.752427  0  0  -0.117145  0  4.005778  0  0  -0.11873  0  4.026557  0  -0.012169  0  -0.095138  -0.115988  0  3.991745  0
C  C54  1  0.44504886  0.73698700  0.18915697  1  0  -0.092804  0  3.752484  0  0  -0.117335  0  4.005854  0  0  -0.118904  0  4.026638  0  -0.011541  0  -0.095233  -0.116186  0  3.991858  0
C  C55  1  0.94504746  0.76301101  0.81084004  1  0  -0.092721  0  3.752556  0  0  -0.117238  0  4.00592  0  0  -0.118813  0  4.026707  0  -0.01231  0  -0.09518  -0.116083  0  3.991897  0
C  C56  1  0.53621902  0.28641902  0.73013237  1  0  -0.05509  0  3.689855  0  0  -0.036178  0  3.916923  0  0  -0.041048  0  3.937957  0  -0.02781  0  -0.011134  -0.033115  0  3.902785  0
C  C57  1  0.03620329  0.21359128  0.26987378  1  0  -0.055137  0  3.689991  0  0  -0.036233  0  3.917161  0  0  -0.041103  0  3.938207  0  -0.026825  0  -0.011156  -0.033165  0  3.90302  0
C  C58  1  0.46378961  0.71359120  0.26987276  1  0  -0.055034  0  3.689867  0  0  -0.03613  0  3.916992  0  0  -0.040998  0  3.938014  0  -0.027609  0  -0.011123  -0.033063  0  3.902845  0
C  C59  1  0.96379677  0.78640422  0.73012601  1  0  -0.055026  0  3.689753  0  0  -0.036119  0  3.916876  0  0  -0.040981  0  3.937922  0  -0.027001  0  -0.011157  -0.033053  0  3.902733  0
C  C60  1  0.47954598  0.18882078  0.63963894  1  0  0.669332  0  3.870094  0  0  0.61324  0  4.160063  0  0  0.650137  0  4.153179  0  1.585695  0  0.19969  0.588051  0  4.163758  0
C  C61  1  0.97952319  0.31118953  0.36036463  1  0  0.669581  0  3.869632  0  0  0.613319  0  4.159888  0  0  0.650213  0  4.153011  0  1.585423  0  0.199878  0.588137  0  4.16357  0
C  C62  1  0.52045693  0.81118944  0.36036554  1  0  0.669447  0  3.869987  0  0  0.613298  0  4.16008  0  0  0.650202  0  4.153183  0  1.585408  0  0.199776  0.588107  0  4.163779  0
C  C63  1  0.02047687  0.68881117  0.63963424  1  0  0.669513  0  3.869916  0  0  0.613314  0  4.16008  0  0  0.650206  0  4.153204  0  1.585567  0  0.199882  0.588136  0  4.163759  0
C  C64  1  0.55801689  0.42896153  0.65222536  1  0  0.640167  0  3.900366  0  0  0.586611  0  4.182849  0  0  0.623735  0  4.17702  0  1.556317  0  0.204008  0.561223  0  4.186019  0
C  C65  1  0.05800544  0.07104791  0.34777858  1  0  0.639985  0  3.900411  0  0  0.586411  0  4.182909  0  0  0.623538  0  4.177078  0  1.555389  0  0.203855  0.561023  0  4.18608  0
C  C66  1  0.44197747  0.57104436  0.34777323  1  0  0.640181  0  3.900344  0  0  0.586549  0  4.182938  0  0  0.623672  0  4.177105  0  1.55634  0  0.203943  0.561162  0  4.18611  0
C  C67  1  0.94199319  0.92895712  0.65222811  1  0  0.640026  0  3.900423  0  0  0.586432  0  4.182939  0  0  0.623565  0  4.17711  0  1.555621  0  0.203891  0.561044  0  4.186111  0
C  C68  1  0.58429987  0.16302444  0.15435045  1  0  0.236161  0  3.810376  0  0  0.233495  0  4.089531  0  0  0.2386  0  4.107768  0  0.696251  0  0.15122  0.22955  0  4.077745  0
C  C69  1  0.08428700  0.33696422  0.84564559  1  0  0.236232  0  3.810251  0  0  0.233532  0  4.089356  0  0  0.238639  0  4.107602  0  0.696107  0  0.151191  0.229585  0  4.077571  0
C  C70  1  0.41571446  0.83696587  0.84564705  1  0  0.236141  0  3.81037  0  0  0.233423  0  4.089478  0  0  0.238528  0  4.107725  0  0.696181  0  0.151161  0.229478  0  4.077693  0
C  C71  1  0.91571021  0.66303475  0.15434951  1  0  0.236092  0  3.810207  0  0  0.233415  0  4.089308  0  0  0.23852  0  4.10755  0  0.696107  0  0.151144  0.22947  0  4.07752  0
C  C72  1  0.51781922  0.22806714  0.24483734  1  0  0.039192  0  3.655585  0  0  0.001079  0  3.903634  0  0  0.005808  0  3.92073  0  0.548789  0  0.05559  -0.002375  0  3.892735  0
C  C73  1  0.01781063  0.27192325  0.75515990  1  0  0.039257  0  3.655616  0  0  0.001363  0  3.903491  0  0  0.006019  0  3.920599  0  0.548371  0  0.055741  -0.00209  0  3.892591  0
C  C74  1  0.48219368  0.77192230  0.75516117  1  0  0.039122  0  3.655547  0  0  0.001274  0  3.903401  0  0  0.005952  0  3.920475  0  0.548568  0  0.055708  -0.002182  0  3.892509  0
C  C75  1  0.98218516  0.72807225  0.24483990  1  0  0.03925  0  3.655838  0  0  0.001325  0  3.903705  0  0  0.005999  0  3.920805  0  0.549604  0  0.055741  -0.002125  0  3.892794  0
C  C76  1  0.58204447  0.07129463  0.28277109  1  0  0.099699  0  3.617201  0  0  0.061241  0  3.872105  0  0  0.067321  0  3.888138  0  0.464163  0  0.053935  0.056939  0  3.861915  0
C  C77  1  0.08204159  0.42869144  0.71722219  1  0  0.099749  0  3.61702  0  0  0.061217  0  3.872061  0  0  0.067298  0  3.888092  0  0.463568  0  0.053968  0.056917  0  3.861869  0
C  C78  1  0.41796700  0.92869222  0.71722402  1  0  0.099706  0  3.61729  0  0  0.061204  0  3.872259  0  0  0.067286  0  3.888298  0  0.463554  0  0.053953  0.056904  0  3.862063  0
C  C79  1  0.91795420  0.57130580  0.28277429  1  0  0.099602  0  3.616716  0  0  0.061073  0  3.87172  0  0  0.067148  0  3.887746  0  0.463624  0  0.053887  0.056772  0  3.861528  0
C  C80  1  0.65246243  0.01132739  0.19260142  1  0  0.087472  0  3.681444  0  0  0.064882  0  3.946125  0  0  0.065114  0  3.962946  0  0.551188  0  0.053179  0.064306  0  3.935287  0
C  C81  1  0.15245669  0.48865954  0.80739277  1  0  0.087419  0  3.681275  0  0  0.064903  0  3.945973  0  0  0.065134  0  3.96279  0  0.55194  0  0.053201  0.064325  0  3.935138  0
C  C82  1  0.34755475  0.98866291  0.80739414  1  0  0.087461  0  3.681215  0  0  0.064918  0  3.945897  0  0  0.065147  0  3.962717  0  0.551885  0  0.053204  0.064341  0  3.935062  0
C  C83  1  0.84754194  0.51133683  0.19259634  1  0  0.087671  0  3.681209  0  0  0.065139  0  3.945899  0  0  0.065372  0  3.962722  0  0.551934  0  0.053282  0.064561  0  3.93506  0
N  N84  1  0.65259795  0.05680924  0.12763243  1  0  -0.281149  0  3.076992  0  0  -0.253178  0  3.339601  0  0  -0.261026  0  3.356443  0  -1.190082  0  -0.291157  -0.247519  0  3.328293  0
N  N85  1  0.15258366  0.44317596  0.87236443  1  0  -0.281305  0  3.077136  0  0  -0.253314  0  3.339655  0  0  -0.261163  0  3.356499  0  -1.189899  0  -0.291203  -0.247654  0  3.328345  0
N  N86  1  0.34742208  0.94317674  0.87236691  1  0  -0.281263  0  3.076982  0  0  -0.253254  0  3.339499  0  0  -0.261105  0  3.356347  0  -1.189799  0  -0.2912  -0.247595  0  3.328188  0
N  N87  1  0.84741498  0.55682041  0.12763177  1  0  -0.281337  0  3.077334  0  0  -0.253359  0  3.339865  0  0  -0.261208  0  3.356704  0  -1.190301  0  -0.291236  -0.247698  0  3.328551  0
N  N88  1  0.51696899  0.18028519  0.30840191  1  0  -0.231006  0  3.341748  0  0  -0.143074  0  3.61731  0  0  -0.161865  0  3.636016  0  -1.183267  0  -0.326212  -0.130508  0  3.604878  0
N  N89  1  0.01696182  0.31970607  0.69159560  1  0  -0.230959  0  3.341629  0  0  -0.143262  0  3.617422  0  0  -0.161987  0  3.636068  0  -1.182924  0  -0.3264  -0.130697  0  3.604992  0
N  N90  1  0.48304106  0.81970685  0.69159614  1  0  -0.230866  0  3.341621  0  0  -0.143129  0  3.617291  0  0  -0.161857  0  3.635943  0  -1.183165  0  -0.326324  -0.130564  0  3.60486  0
N  N91  1  0.98303111  0.68029636  0.30839931  1  0  -0.231003  0  3.341926  0  0  -0.143179  0  3.61754  0  0  -0.161921  0  3.636205  0  -1.183992  0  -0.326338  -0.130612  0  3.605106  0
Cl  Cl92  1  0.57976768  0.22478190  0.07198763  1  0  -0.079758  0  1.350165  0  0  -0.057978  0  1.584516  0  0  -0.062396  0  1.578801  0  -0.212189  0  0.04451  -0.054823  0  1.588782  0
Cl  Cl93  1  0.07974482  0.27520503  0.92800914  1  0  -0.079739  0  1.349995  0  0  -0.058008  0  1.584381  0  0  -0.062426  0  1.578668  0  -0.212094  0  0.044495  -0.054839  0  1.588618  0
Cl  Cl94  1  0.42024522  0.77520668  0.92801060  1  0  -0.079739  0  1.350059  0  0  -0.057992  0  1.584447  0  0  -0.062409  0  1.578736  0  -0.212131  0  0.044498  -0.05482  0  1.588674  0
Cl  Cl95  1  0.92025239  0.72479566  0.07198908  1  0  -0.079677  0  1.350144  0  0  -0.057935  0  1.584508  0  0  -0.062351  0  1.578791  0  -0.212154  0  0.044553  -0.054775  0  1.588758  0
O  O96  1  0.57633109  0.16879159  0.56569473  1  0  -0.672691  0  2.070335  0  0  -0.599569  0  2.356674  0  0  -0.630709  0  2.339196  0  -1.179829  0  -0.33989  -0.577673  0  2.368041  0
O  O97  1  0.07631109  0.33122564  0.43431040  1  0  -0.672685  0  2.069895  0  0  -0.599499  0  2.35631  0  0  -0.630637  0  2.338838  0  -1.17967  0  -0.33991  -0.577598  0  2.367648  0
O  O98  1  0.42366469  0.83122036  0.43430901  1  0  -0.672804  0  2.070073  0  0  -0.599653  0  2.356441  0  0  -0.630794  0  2.338959  0  -1.179757  0  -0.339941  -0.577757  0  2.367808  0
O  O99  1  0.92368898  0.66877679  0.56568966  1  0  -0.672705  0  2.070015  0  0  -0.59954  0  2.356401  0  0  -0.630678  0  2.338929  0  -1.179719  0  -0.339951  -0.577635  0  2.367728  0
O  O100  1  0.33428059  0.13027152  0.64553776  1  0  -0.610047  0  2.051664  0  0  -0.534  0  2.315056  0  0  -0.568522  0  2.306303  0  -1.126212  0  -0.322809  -0.50943  0  2.319926  0
O  O101  1  0.83425494  0.36973618  0.35446369  1  0  -0.610288  0  2.051688  0  0  -0.534175  0  2.315186  0  0  -0.568699  0  2.306435  0  -1.126436  0  -0.322979  -0.509611  0  2.320054  0
O  O102  1  0.66572090  0.86974216  0.35446911  1  0  -0.610124  0  2.051706  0  0  -0.534119  0  2.315233  0  0  -0.568649  0  2.306482  0  -1.126185  0  -0.322886  -0.509549  0  2.320104  0
O  O103  1  0.16574512  0.63026798  0.64553499  1  0  -0.610216  0  2.05182  0  0  -0.534194  0  2.315368  0  0  -0.568717  0  2.306617  0  -1.12638  0  -0.322937  -0.509631  0  2.320234  0
O  O104  1  0.68422056  0.49466734  0.64055047  1  0  -0.596671  0  2.070691  0  0  -0.52426  0  2.338514  0  0  -0.557354  0  2.327816  0  -1.126031  0  -0.314231  -0.501221  0  2.345042  0
O  O105  1  0.18420768  0.00533863  0.35945301  1  0  -0.596524  0  2.070703  0  0  -0.524132  0  2.338588  0  0  -0.557227  0  2.327893  0  -1.125843  0  -0.314129  -0.501092  0  2.345116  0
O  O106  1  0.31577237  0.50533942  0.35944646  1  0  -0.596682  0  2.070685  0  0  -0.524275  0  2.338611  0  0  -0.557366  0  2.327905  0  -1.125959  0  -0.314247  -0.501236  0  2.345142  0
O  O107  1  0.81579095  0.99466812  0.64055681  1  0  -0.596545  0  2.070723  0  0  -0.524156  0  2.33862  0  0  -0.557254  0  2.327922  0  -1.126302  0  -0.314208  -0.501116  0  2.345147  0
O  O108  1  0.41340201  0.38647666  0.59928334  1  0  -0.621903  0  2.189278  0  0  -0.529929  0  2.454051  0  0  -0.564948  0  2.444786  0  -1.12889  0  -0.326448  -0.505661  0  2.45975  0
O  O109  1  0.91339062  0.11353364  0.40072217  1  0  -0.621979  0  2.189458  0  0  -0.530001  0  2.454246  0  0  -0.565026  0  2.444996  0  -1.127964  0  -0.326451  -0.505733  0  2.459942  0
O  O110  1  0.58658950  0.61353010  0.40071811  1  0  -0.621931  0  2.189286  0  0  -0.52993  0  2.454094  0  0  -0.564954  0  2.444843  0  -1.128956  0  -0.326449  -0.505663  0  2.45979  0
O  O111  1  0.08659945  0.88646965  0.59927946  1  0  -0.621856  0  2.189313  0  0  -0.529899  0  2.454146  0  0  -0.564904  0  2.444847  0  -1.127993  0  -0.326411  -0.505631  0  2.459843  0
