# generated using pymatgen
data_KH4C12N7O12
_symmetry_space_group_name_H-M   'P 1'
_cell_length_a   11.00968535
_cell_length_b   12.23385320
_cell_length_c   13.01996562
_cell_angle_alpha   90.00004188
_cell_angle_beta   90.00008607
_cell_angle_gamma   94.35636575
_symmetry_Int_Tables_number   1
_chemical_formula_structural   KH4C12N7O12
_chemical_formula_sum   'K4 H16 C48 N28 O48'
_cell_volume   1748.60400450
_cell_formula_units_Z   4
loop_
 _symmetry_equiv_pos_site_id
 _symmetry_equiv_pos_as_xyz
  1  'x, y, z'
loop_
 _atom_site_type_symbol
 _atom_site_label
 _atom_site_symmetry_multiplicity
 _atom_site_fract_x
 _atom_site_fract_y
 _atom_site_fract_z
 _atom_site_occupancy
 _atom_site_hle17_bader_spin_density
 _atom_site_hle17_ddec_charge
 _atom_site_hle17_ddec_spin_density
 _atom_site_hle17_ddec_sum_bond_order
 _atom_site_hle17_magmom
 _atom_site_hse06_10hf_bader_spin_density
 _atom_site_hse06_10hf_ddec_charge
 _atom_site_hse06_10hf_ddec_spin_density
 _atom_site_hse06_10hf_ddec_sum_bond_order
 _atom_site_hse06_10hf_magmom
 _atom_site_hse06_bader_spin_density
 _atom_site_hse06_ddec_charge
 _atom_site_hse06_ddec_spin_density
 _atom_site_hse06_ddec_sum_bond_order
 _atom_site_hse06_magmom
 _atom_site_pbe_bader_spin_density
 _atom_site_pbe_cm5_charge
 _atom_site_pbe_ddec_charge
 _atom_site_pbe_ddec_spin_density
 _atom_site_pbe_ddec_sum_bond_order
 _atom_site_pbe_magmom
K  K0  1  0.84851183  0.60315547  0.51528936  1  0  0.899721  0  0.43427  0  0  0.8305  0  0.63654  0  0  0.849279  0  0.609247  0  0  0.770374  0.816686  0  0.655932  0
K  K1  1  0.65148889  0.89684287  0.01529032  1  0  0.899702  0  0.434289  0  0  0.830495  0  0.636558  0  0  0.849268  0  0.60927  0  0  0.77037  0.816678  0  0.655953  0
K  K2  1  0.15148417  0.39684453  0.48471273  1  0  0.899714  0  0.434286  0  0  0.830496  0  0.636558  0  0  0.849268  0  0.609269  0  0  0.770373  0.816678  0  0.655952  0
K  K3  1  0.34851522  0.10315632  0.98471177  1  0  0.899696  0  0.434294  0  0  0.830498  0  0.636544  0  0  0.849272  0  0.609252  0  0  0.770378  0.816682  0  0.655938  0
H  H4  1  0.46667830  0.62126062  0.69692017  1  0  0.154538  0  0.928524  0  0  0.154112  0  0.999844  0  0  0.159275  0  0.993555  0  0  0.130208  0.150329  0  1.004365  0
H  H5  1  0.03332200  0.87873899  0.19692097  1  0  0.154527  0  0.928564  0  0  0.154104  0  0.999876  0  0  0.159268  0  0.993585  0  0  0.130214  0.15032  0  1.004397  0
H  H6  1  0.53332140  0.37874020  0.30307961  1  0  0.154533  0  0.928522  0  0  0.154106  0  0.999833  0  0  0.159271  0  0.993539  0  0  0.130207  0.150313  0  1.004363  0
H  H7  1  0.96667847  0.12126020  0.80308035  1  0  0.154529  0  0.928517  0  0  0.154099  0  0.999843  0  0  0.159264  0  0.993549  0  0  0.130206  0.150306  0  1.004374  0
H  H8  1  0.89388181  0.08728351  0.52109567  1  0  0.146866  0  0.95875  0  0  0.147705  0  1.031438  0  0  0.152196  0  1.02604  0  0  0.126136  0.144557  0  1.035103  0
H  H9  1  0.60611656  0.41271582  0.02109582  1  0  0.146879  0  0.958723  0  0  0.147713  0  1.031422  0  0  0.152204  0  1.026023  0  0  0.126145  0.144564  0  1.035088  0
H  H10  1  0.10611594  0.91271568  0.47890333  1  0  0.146885  0  0.958738  0  0  0.147728  0  1.031421  0  0  0.152219  0  1.026022  0  0  0.126153  0.14458  0  1.035086  0
H  H11  1  0.39388405  0.58728501  0.97890473  1  0  0.146958  0  0.958686  0  0  0.14778  0  1.031393  0  0  0.152271  0  1.025994  0  0  0.126173  0.144628  0  1.035058  0
H  H12  1  0.79033797  0.56029803  0.86730252  1  0  0.143911  0  0.933682  0  0  0.147149  0  0.998527  0  0  0.15141  0  0.993925  0  0  0.129504  0.143988  0  1.001852  0
H  H13  1  0.70966262  0.93970227  0.36730282  1  0  0.143949  0  0.933646  0  0  0.147185  0  0.998494  0  0  0.151446  0  0.99389  0  0  0.129512  0.144022  0  1.001822  0
H  H14  1  0.20966172  0.43970280  0.13269649  1  0  0.143913  0  0.933667  0  0  0.147153  0  0.998513  0  0  0.151413  0  0.993913  0  0  0.129506  0.143992  0  1.001838  0
H  H15  1  0.29033701  0.06029773  0.63269696  1  0  0.14389  0  0.933572  0  0  0.147124  0  0.998438  0  0  0.151384  0  0.993835  0  0  0.129485  0.14396  0  1.001766  0
H  H16  1  0.63338060  0.91818677  0.72467467  1  0  0.147635  0  0.953508  0  0  0.143876  0  1.030386  0  0  0.148491  0  1.024748  0  0  0.129984  0.140574  0  1.034288  0
H  H17  1  0.86661875  0.58181258  0.22467339  1  0  0.147638  0  0.953527  0  0  0.143891  0  1.030395  0  0  0.148506  0  1.024758  0  0  0.129984  0.140591  0  1.034292  0
H  H18  1  0.36661910  0.08181405  0.27532664  1  0  0.14765  0  0.953476  0  0  0.143893  0  1.030368  0  0  0.148509  0  1.024731  0  0  0.129989  0.140592  0  1.034271  0
H  H19  1  0.13338172  0.41818661  0.77532562  1  0  0.147633  0  0.953505  0  0  0.143881  0  1.030371  0  0  0.148497  0  1.024733  0  0  0.129995  0.140579  0  1.034272  0
C  C20  1  0.61677043  0.38097650  0.71024356  1  0  0.252403  0  3.814879  0  0  0.22539  0  4.086299  0  0  0.247367  0  4.101304  0  0  0.163887  0.211266  0  4.075734  0
C  C21  1  0.88323010  0.11902299  0.21024309  1  0  0.252413  0  3.814839  0  0  0.225403  0  4.086263  0  0  0.24738  0  4.101269  0  0  0.163892  0.21128  0  4.075699  0
C  C22  1  0.38322927  0.61902432  0.28975621  1  0  0.252444  0  3.814784  0  0  0.225376  0  4.086313  0  0  0.247354  0  4.101317  0  0  0.163892  0.211253  0  4.075747  0
C  C23  1  0.11677037  0.88097619  0.78975592  1  0  0.252386  0  3.814909  0  0  0.225376  0  4.086327  0  0  0.247353  0  4.101331  0  0  0.163875  0.211252  0  4.075763  0
C  C24  1  0.71071020  0.42413577  0.78179759  1  0  -0.01417  0  3.605953  0  0  -0.029915  0  3.864758  0  0  -0.042285  0  3.885656  0  0  0.077085  -0.022475  0  3.850816  0
C  C25  1  0.78929054  0.07586461  0.28179927  1  0  -0.01424  0  3.605957  0  0  -0.029959  0  3.86477  0  0  -0.042335  0  3.885677  0  0  0.077056  -0.022518  0  3.850828  0
C  C26  1  0.28929041  0.57586505  0.21820142  1  0  -0.014209  0  3.605846  0  0  -0.029921  0  3.864702  0  0  -0.042293  0  3.885603  0  0  0.07707  -0.022481  0  3.850762  0
C  C27  1  0.21070993  0.92413458  0.71820204  1  0  -0.01422  0  3.606008  0  0  -0.029929  0  3.864822  0  0  -0.042299  0  3.88572  0  0  0.07708  -0.022489  0  3.850881  0
C  C28  1  0.53054892  0.46063670  0.68235637  1  0  -0.012615  0  3.60031  0  0  -0.019548  0  3.85849  0  0  -0.031679  0  3.879447  0  0  0.082224  -0.012311  0  3.844682  0
C  C29  1  0.96945156  0.03936277  0.18235672  1  0  -0.012625  0  3.600325  0  0  -0.019576  0  3.858537  0  0  -0.031702  0  3.879486  0  0  0.082203  -0.01234  0  3.844728  0
C  C30  1  0.46945071  0.53936330  0.31764264  1  0  -0.012679  0  3.600309  0  0  -0.019615  0  3.858532  0  0  -0.031744  0  3.879486  0  0  0.082177  -0.012378  0  3.84472  0
C  C31  1  0.03054898  0.96063723  0.81764306  1  0  -0.012666  0  3.600324  0  0  -0.019605  0  3.858527  0  0  -0.031735  0  3.879479  0  0  0.082193  -0.012368  0  3.844718  0
C  C32  1  0.66941902  0.99273108  0.68642500  1  0  -0.049351  0  3.663991  0  0  -0.09124  0  3.930037  0  0  -0.079011  0  3.940787  0  0  -0.044683  -0.098273  0  3.922339  0
C  C33  1  0.83058033  0.50726906  0.18642439  1  0  -0.049443  0  3.664127  0  0  -0.091353  0  3.930227  0  0  -0.079125  0  3.940982  0  0  -0.04469  -0.098387  0  3.92253  0
C  C34  1  0.33057977  0.00726975  0.31357554  1  0  -0.049385  0  3.664052  0  0  -0.09128  0  3.930145  0  0  -0.07905  0  3.940901  0  0  -0.04468  -0.098315  0  3.922447  0
C  C35  1  0.16942021  0.49273095  0.81357539  1  0  -0.049344  0  3.664093  0  0  -0.091231  0  3.930135  0  0  -0.079001  0  3.940886  0  0  -0.044669  -0.098267  0  3.92244  0
C  C36  1  0.53390584  0.56564096  0.72118677  1  0  -0.080798  0  3.687471  0  0  -0.123923  0  3.956349  0  0  -0.11347  0  3.970743  0  0  -0.052401  -0.130059  0  3.946295  0
C  C37  1  0.96609532  0.93435838  0.22118738  1  0  -0.080764  0  3.687506  0  0  -0.123867  0  3.95638  0  0  -0.113414  0  3.970773  0  0  -0.05239  -0.130002  0  3.946325  0
C  C38  1  0.46609469  0.43435904  0.27881301  1  0  -0.080712  0  3.687452  0  0  -0.123813  0  3.956316  0  0  -0.113359  0  3.970707  0  0  -0.052362  -0.129938  0  3.946265  0
C  C39  1  0.03390515  0.06564080  0.77881316  1  0  -0.080694  0  3.687438  0  0  -0.123805  0  3.956298  0  0  -0.113351  0  3.970688  0  0  -0.052372  -0.129931  0  3.94625  0
C  C40  1  0.62823871  0.60068373  0.78795276  1  0  0.065139  0  3.741445  0  0  0.047497  0  4.002074  0  0  0.034555  0  4.027022  0  0  0.072563  0.055625  0  3.985147  0
C  C41  1  0.87176174  0.89931650  0.28795247  1  0  0.065155  0  3.741388  0  0  0.047491  0  4.002033  0  0  0.034544  0  4.026988  0  0  0.072581  0.055619  0  3.985107  0
C  C42  1  0.37176099  0.39931709  0.21204702  1  0  0.065054  0  3.741484  0  0  0.047422  0  4.002125  0  0  0.034475  0  4.027076  0  0  0.072552  0.055549  0  3.985196  0
C  C43  1  0.12823873  0.10068269  0.71204731  1  0  0.064985  0  3.741495  0  0  0.047378  0  4.002115  0  0  0.034431  0  4.027067  0  0  0.07254  0.055505  0  3.985187  0
C  C44  1  0.71660836  0.53091354  0.81660648  1  0  -0.081324  0  3.721013  0  0  -0.128189  0  3.998905  0  0  -0.117498  0  4.013526  0  0  -0.058147  -0.13441  0  3.988551  0
C  C45  1  0.78339214  0.96908672  0.31660612  1  0  -0.081405  0  3.720982  0  0  -0.128251  0  3.998866  0  0  -0.117556  0  4.01349  0  0  -0.058174  -0.134472  0  3.988512  0
C  C46  1  0.28339134  0.46908729  0.18339330  1  0  -0.081317  0  3.720982  0  0  -0.128178  0  3.99887  0  0  -0.117485  0  4.013492  0  0  -0.058146  -0.134399  0  3.988518  0
C  C47  1  0.21660742  0.03091247  0.68339366  1  0  -0.081271  0  3.720975  0  0  -0.128129  0  3.998856  0  0  -0.117437  0  4.013481  0  0  -0.058125  -0.134347  0  3.9885  0
C  C48  1  0.76541885  0.99155274  0.61666835  1  0  0.063879  0  3.72228  0  0  0.050178  0  3.984652  0  0  0.038222  0  4.009358  0  0  0.071714  0.056647  0  3.968392  0
C  C49  1  0.73458037  0.50844733  0.11666761  1  0  0.064057  0  3.722293  0  0  0.050309  0  3.984743  0  0  0.038351  0  4.009453  0  0  0.071766  0.056782  0  3.96848  0
C  C50  1  0.23457987  0.00844727  0.38333066  1  0  0.063931  0  3.722362  0  0  0.050162  0  3.984845  0  0  0.038197  0  4.009568  0  0  0.071708  0.056637  0  3.968586  0
C  C51  1  0.26542023  0.49155349  0.88333139  1  0  0.063897  0  3.72243  0  0  0.050185  0  3.984813  0  0  0.038226  0  4.009523  0  0  0.071704  0.05666  0  3.968552  0
C  C52  1  0.81542140  0.08804103  0.57176396  1  0  -0.08162  0  3.678641  0  0  -0.127207  0  3.955861  0  0  -0.117477  0  3.971798  0  0  -0.058853  -0.132757  0  3.944828  0
C  C53  1  0.68457874  0.41195671  0.07176497  1  0  -0.081616  0  3.678721  0  0  -0.12719  0  3.955943  0  0  -0.11746  0  3.971881  0  0  -0.058845  -0.13274  0  3.94491  0
C  C54  1  0.18457725  0.91195816  0.42823428  1  0  -0.081623  0  3.678684  0  0  -0.127188  0  3.955937  0  0  -0.117457  0  3.971878  0  0  -0.05885  -0.132735  0  3.944888  0
C  C55  1  0.31542348  0.58804166  0.92823557  1  0  -0.081687  0  3.678812  0  0  -0.12728  0  3.956027  0  0  -0.117547  0  3.971964  0  0  -0.058865  -0.132818  0  3.944971  0
C  C56  1  0.66180453  0.19420860  0.65993848  1  0  0.259454  0  3.797949  0  0  0.233729  0  4.067338  0  0  0.256601  0  4.081619  0  0  0.16603  0.218804  0  4.057518  0
C  C57  1  0.83819591  0.30579085  0.15993961  1  0  0.259521  0  3.797867  0  0  0.233793  0  4.06724  0  0  0.256667  0  4.081515  0  0  0.16604  0.218869  0  4.057421  0
C  C58  1  0.33819517  0.80579222  0.34006130  1  0  0.259506  0  3.797801  0  0  0.233779  0  4.067215  0  0  0.25665  0  4.081496  0  0  0.166045  0.218852  0  4.057396  0
C  C59  1  0.16180546  0.69420834  0.84006093  1  0  0.259477  0  3.797821  0  0  0.233726  0  4.067236  0  0  0.256597  0  4.08152  0  0  0.166034  0.218801  0  4.057417  0
C  C60  1  0.76643175  0.18670753  0.59299674  1  0  0.001898  0  3.582358  0  0  -0.01896  0  3.839461  0  0  -0.031436  0  3.860263  0  0  0.081626  -0.011266  0  3.825726  0
C  C61  1  0.73356857  0.31329186  0.09299698  1  0  0.001776  0  3.582456  0  0  -0.019048  0  3.839486  0  0  -0.031525  0  3.860286  0  0  0.081614  -0.011357  0  3.825755  0
C  C62  1  0.23356788  0.81329247  0.40700304  1  0  0.00183  0  3.582415  0  0  -0.019046  0  3.839546  0  0  -0.031522  0  3.860345  0  0  0.08161  -0.01135  0  3.825809  0
C  C63  1  0.26643379  0.68670815  0.90700280  1  0  0.001842  0  3.582476  0  0  -0.018971  0  3.839509  0  0  -0.031449  0  3.860314  0  0  0.081619  -0.01128  0  3.825777  0
C  C64  1  0.61993716  0.09046942  0.70645928  1  0  0.006186  0  3.584289  0  0  -0.000574  0  3.837374  0  0  -0.012402  0  3.856039  0  0  0.092222  0.006511  0  3.825086  0
C  C65  1  0.88006252  0.40953089  0.20645900  1  0  0.006204  0  3.584246  0  0  -0.000543  0  3.837339  0  0  -0.012374  0  3.856005  0  0  0.092205  0.006541  0  3.82505  0
C  C66  1  0.38006065  0.90953058  0.29354050  1  0  0.006191  0  3.584236  0  0  -0.000553  0  3.837329  0  0  -0.012383  0  3.855996  0  0  0.092193  0.006531  0  3.825042  0
C  C67  1  0.11993801  0.59046911  0.79354154  1  0  0.006207  0  3.584296  0  0  -0.000543  0  3.837382  0  0  -0.01237  0  3.856047  0  0  0.092225  0.006541  0  3.825095  0
N  N68  1  0.60336441  0.28175853  0.67519504  1  0  -0.316548  0  3.352509  0  0  -0.292291  0  3.642737  0  0  -0.323288  0  3.66156  0  0  -0.288044  -0.271466  0  3.629263  0
N  N69  1  0.89663606  0.21824094  0.17519465  1  0  -0.316573  0  3.352551  0  0  -0.292288  0  3.64275  0  0  -0.323284  0  3.661571  0  0  -0.288026  -0.271463  0  3.629276  0
N  N70  1  0.39663620  0.71824230  0.32480550  1  0  -0.316601  0  3.35241  0  0  -0.292321  0  3.642678  0  0  -0.323317  0  3.661499  0  0  -0.288076  -0.271497  0  3.629204  0
N  N71  1  0.10336259  0.78175825  0.82480589  1  0  -0.316582  0  3.352451  0  0  -0.292298  0  3.642672  0  0  -0.323295  0  3.661495  0  0  -0.288049  -0.271473  0  3.629197  0
N  N72  1  0.80503476  0.35831005  0.82199743  1  0  0.485518  0  3.936379  0  0  0.536788  0  4.20084  0  0  0.560058  0  4.208994  0  0  0.05113  0.521232  0  4.195401  0
N  N73  1  0.69496689  0.14168955  0.32199750  1  0  0.485728  0  3.936383  0  0  0.536914  0  4.20094  0  0  0.560187  0  4.209094  0  0  0.051209  0.521359  0  4.195501  0
N  N74  1  0.19496585  0.64169078  0.17800235  1  0  0.485644  0  3.936192  0  0  0.536806  0  4.200796  0  0  0.560078  0  4.208951  0  0  0.051148  0.52125  0  4.195358  0
N  N75  1  0.30503358  0.85830963  0.67800228  1  0  0.485634  0  3.936271  0  0  0.536787  0  4.200884  0  0  0.560058  0  4.20904  0  0  0.051116  0.521231  0  4.195446  0
N  N76  1  0.43688709  0.43365147  0.60577699  1  0  0.522111  0  3.897944  0  0  0.547553  0  4.200682  0  0  0.57055  0  4.20938  0  0  0.046339  0.532169  0  4.194907  0
N  N77  1  0.06311244  0.06634822  0.10577761  1  0  0.522096  0  3.897896  0  0  0.547541  0  4.200635  0  0  0.570537  0  4.209336  0  0  0.046355  0.532159  0  4.194859  0
N  N78  1  0.56311254  0.56634854  0.39422202  1  0  0.522174  0  3.897746  0  0  0.547622  0  4.200476  0  0  0.570618  0  4.209178  0  0  0.046392  0.532239  0  4.194701  0
N  N79  1  0.93688810  0.93365179  0.89422217  1  0  0.522143  0  3.897811  0  0  0.547587  0  4.200544  0  0  0.570581  0  4.209243  0  0  0.04637  0.532202  0  4.19477  0
N  N80  1  0.81496139  0.88857006  0.59251928  1  0  0.466932  0  3.964582  0  0  0.512466  0  4.240707  0  0  0.533424  0  4.252867  0  0  0.046447  0.500682  0  4.232014  0
N  N81  1  0.68503863  0.61142917  0.09251779  1  0  0.466802  0  3.96461  0  0  0.512329  0  4.240767  0  0  0.533286  0  4.252927  0  0  0.046354  0.500537  0  4.232071  0
N  N82  1  0.18503733  0.11142994  0.40748126  1  0  0.466878  0  3.964628  0  0  0.512426  0  4.240771  0  0  0.53339  0  4.252931  0  0  0.046402  0.500627  0  4.232086  0
N  N83  1  0.31496282  0.38857084  0.90748122  1  0  0.466877  0  3.964769  0  0  0.512393  0  4.240924  0  0  0.533354  0  4.253085  0  0  0.046367  0.500596  0  4.232237  0
N  N84  1  0.82755939  0.28331221  0.54553202  1  0  0.497465  0  3.940934  0  0  0.558668  0  4.18734  0  0  0.582367  0  4.19434  0  0  0.052848  0.542844  0  4.182694  0
N  N85  1  0.67243992  0.21668714  0.04553211  1  0  0.497425  0  3.940973  0  0  0.558692  0  4.187335  0  0  0.582391  0  4.194335  0  0  0.052791  0.542869  0  4.182689  0
N  N86  1  0.17244114  0.71668779  0.45446776  1  0  0.497507  0  3.940895  0  0  0.55873  0  4.187294  0  0  0.582429  0  4.194295  0  0  0.052869  0.542904  0  4.182649  0
N  N87  1  0.32755964  0.78331205  0.95446767  1  0  0.497455  0  3.941007  0  0  0.558726  0  4.187345  0  0  0.582426  0  4.194345  0  0  0.052827  0.542902  0  4.182699  0
N  N88  1  0.52595563  0.08683442  0.78441180  1  0  0.530872  0  3.887025  0  0  0.556768  0  4.18651  0  0  0.580395  0  4.194141  0  0  0.036502  0.541035  0  4.181249  0
N  N89  1  0.97404329  0.41316597  0.28441165  1  0  0.530842  0  3.887049  0  0  0.556741  0  4.186533  0  0  0.580368  0  4.194164  0  0  0.036494  0.541007  0  4.181272  0
N  N90  1  0.47404316  0.91316641  0.21558874  1  0  0.530874  0  3.886894  0  0  0.556777  0  4.186365  0  0  0.580405  0  4.193995  0  0  0.036543  0.541044  0  4.181103  0
N  N91  1  0.02595725  0.58683404  0.71558813  1  0  0.530831  0  3.887001  0  0  0.556727  0  4.186485  0  0  0.580353  0  4.194116  0  0  0.036491  0.540994  0  4.181223  0
N  N92  1  0.63548944  0.70995700  0.82772096  1  0  0.475948  0  3.974827  0  0  0.53268  0  4.231631  0  0  0.555179  0  4.242388  0  0  0.027901  0.517736  0  4.224252  0
N  N93  1  0.86451109  0.79004326  0.32772135  1  0  0.475939  0  3.974862  0  0  0.532677  0  4.231672  0  0  0.555176  0  4.242431  0  0  0.027911  0.517732  0  4.224294  0
N  N94  1  0.36451026  0.29004382  0.17227882  1  0  0.475977  0  3.974791  0  0  0.532662  0  4.231667  0  0  0.55516  0  4.242425  0  0  0.027874  0.517717  0  4.224288  0
N  N95  1  0.13548945  0.20995675  0.67227843  1  0  0.476151  0  3.974602  0  0  0.532812  0  4.231481  0  0  0.555312  0  4.242234  0  0  0.027959  0.517866  0  4.224106  0
O  O96  1  0.76037465  0.80240329  0.62504235  1  0  -0.361268  0  1.752142  0  0  -0.352726  0  1.954393  0  0  -0.364353  0  1.951421  0  0  -0.150595  -0.345904  0  1.956494  0
O  O97  1  0.73962459  0.69759679  0.12504251  1  0  -0.361219  0  1.752137  0  0  -0.352679  0  1.954402  0  0  -0.364306  0  1.951429  0  0  -0.150576  -0.345853  0  1.956501  0
O  O98  1  0.23962414  0.19759753  0.37495820  1  0  -0.361225  0  1.752079  0  0  -0.352693  0  1.954343  0  0  -0.364322  0  1.951368  0  0  -0.150561  -0.345863  0  1.956446  0
O  O99  1  0.26037595  0.30240322  0.87495880  1  0  -0.361242  0  1.752214  0  0  -0.3527  0  1.954476  0  0  -0.364328  0  1.951503  0  0  -0.150559  -0.345873  0  1.956578  0
O  O100  1  0.45772759  0.36845204  0.53614853  1  0  -0.33355  0  1.730946  0  0  -0.32255  0  1.934723  0  0  -0.333005  0  1.930949  0  0  -0.115413  -0.315272  0  1.937343  0
O  O101  1  0.04227271  0.13154759  0.03614917  1  0  -0.333576  0  1.73085  0  0  -0.322577  0  1.934626  0  0  -0.333034  0  1.930856  0  0  -0.115436  -0.315299  0  1.937246  0
O  O102  1  0.54227295  0.63154797  0.46385125  1  0  -0.33361  0  1.73075  0  0  -0.32261  0  1.934526  0  0  -0.333066  0  1.930753  0  0  -0.115459  -0.315332  0  1.937146  0
O  O103  1  0.95772783  0.86845242  0.96385214  1  0  -0.333604  0  1.730802  0  0  -0.322609  0  1.934582  0  0  -0.333065  0  1.930813  0  0  -0.11546  -0.315329  0  1.937202  0
O  O104  1  0.34039066  0.48086132  0.61297819  1  0  -0.406188  0  1.763046  0  0  -0.39282  0  1.988219  0  0  -0.408883  0  1.985038  0  0  -0.186317  -0.381939  0  1.990344  0
O  O105  1  0.15960978  0.01913837  0.11297890  1  0  -0.406167  0  1.763021  0  0  -0.392815  0  1.988221  0  0  -0.408871  0  1.985019  0  0  -0.186325  -0.381934  0  1.990344  0
O  O106  1  0.65960890  0.51913786  0.38702082  1  0  -0.406176  0  1.763014  0  0  -0.392817  0  1.988201  0  0  -0.408874  0  1.985003  0  0  -0.186311  -0.381936  0  1.990324  0
O  O107  1  0.84039076  0.98086163  0.88702164  1  0  -0.406183  0  1.763047  0  0  -0.392808  0  1.988215  0  0  -0.408872  0  1.98504  0  0  -0.186311  -0.381926  0  1.990339  0
O  O108  1  0.90919292  0.89085685  0.53923579  1  0  -0.368178  0  1.800337  0  0  -0.356878  0  2.016472  0  0  -0.369878  0  2.014655  0  0  -0.13756  -0.349173  0  2.017683  0
O  O109  1  0.59080797  0.60914315  0.03923264  1  0  -0.368173  0  1.800395  0  0  -0.356829  0  2.016508  0  0  -0.369828  0  2.014695  0  0  -0.137515  -0.34912  0  2.017715  0
O  O110  1  0.09080476  0.10914151  0.46076475  1  0  -0.368162  0  1.800415  0  0  -0.356842  0  2.016533  0  0  -0.369833  0  2.014693  0  0  -0.137533  -0.349132  0  2.017743  0
O  O111  1  0.40919452  0.39085850  0.96076484  1  0  -0.368146  0  1.800419  0  0  -0.356823  0  2.016547  0  0  -0.36982  0  2.014724  0  0  -0.137513  -0.349113  0  2.017757  0
O  O112  1  0.78730309  0.25656052  0.82107649  1  0  -0.346768  0  1.792186  0  0  -0.337498  0  1.992878  0  0  -0.350186  0  1.989962  0  0  -0.122937  -0.328774  0  1.995021  0
O  O113  1  0.71269771  0.24343990  0.32107665  1  0  -0.346794  0  1.792209  0  0  -0.337498  0  1.992945  0  0  -0.350187  0  1.990031  0  0  -0.12292  -0.328773  0  1.995088  0
O  O114  1  0.21269751  0.74344031  0.17892329  1  0  -0.346802  0  1.792181  0  0  -0.337489  0  1.992918  0  0  -0.350179  0  1.990004  0  0  -0.122933  -0.328764  0  1.995063  0
O  O115  1  0.28730192  0.75656010  0.67892389  1  0  -0.346822  0  1.792215  0  0  -0.337511  0  1.992955  0  0  -0.350199  0  1.990042  0  0  -0.12294  -0.328785  0  1.995101  0
O  O116  1  0.89822492  0.40741326  0.85886473  1  0  -0.3559  0  1.743859  0  0  -0.349948  0  1.936282  0  0  -0.364318  0  1.933992  0  0  -0.13882  -0.340114  0  1.937818  0
O  O117  1  0.60177589  0.09258637  0.35886388  1  0  -0.356031  0  1.743879  0  0  -0.350056  0  1.93635  0  0  -0.364426  0  1.934059  0  0  -0.1389  -0.340221  0  1.937885  0
O  O118  1  0.10177472  0.59258674  0.14113505  1  0  -0.355955  0  1.74377  0  0  -0.349963  0  1.936237  0  0  -0.364333  0  1.933947  0  0  -0.138828  -0.34013  0  1.937774  0
O  O119  1  0.39822458  0.90741281  0.64113513  1  0  -0.355933  0  1.743777  0  0  -0.349932  0  1.936238  0  0  -0.364302  0  1.93395  0  0  -0.138801  -0.340098  0  1.937776  0
O  O120  1  0.90648198  0.26977734  0.47934679  1  0  -0.374961  0  1.82078  0  0  -0.381115  0  2.040761  0  0  -0.394757  0  2.037412  0  0  -0.153461  -0.371914  0  2.043109  0
O  O121  1  0.59351724  0.23022240  0.97934636  1  0  -0.374976  0  1.820769  0  0  -0.381117  0  2.040698  0  0  -0.39476  0  2.03735  0  0  -0.153441  -0.371917  0  2.043044  0
O  O122  1  0.09351758  0.73022185  0.52065376  1  0  -0.374943  0  1.820734  0  0  -0.38111  0  2.040704  0  0  -0.394752  0  2.037356  0  0  -0.15345  -0.371911  0  2.043052  0
O  O123  1  0.40648246  0.76977842  0.02065342  1  0  -0.374963  0  1.820797  0  0  -0.381109  0  2.040737  0  0  -0.394752  0  2.037389  0  0  -0.15343  -0.37191  0  2.043083  0
O  O124  1  0.80020940  0.37558064  0.57393072  1  0  -0.383226  0  1.821758  0  0  -0.378567  0  2.031091  0  0  -0.390962  0  2.026907  0  0  -0.159435  -0.370164  0  2.033927  0
O  O125  1  0.69978997  0.12441873  0.07393079  1  0  -0.383074  0  1.82171  0  0  -0.378579  0  2.031152  0  0  -0.39097  0  2.026962  0  0  -0.15941  -0.370175  0  2.033987  0
O  O126  1  0.19979107  0.62441854  0.42606905  1  0  -0.383268  0  1.821756  0  0  -0.378609  0  2.031078  0  0  -0.391005  0  2.026898  0  0  -0.159456  -0.370204  0  2.033914  0
O  O127  1  0.30020875  0.87558127  0.92606899  1  0  -0.383124  0  1.821665  0  0  -0.378635  0  2.031104  0  0  -0.391026  0  2.026909  0  0  -0.159457  -0.370231  0  2.033939  0
O  O128  1  0.52979115  0.01636255  0.85356173  1  0  -0.424904  0  1.801605  0  0  -0.414967  0  2.039058  0  0  -0.430091  0  2.03384  0  0  -0.198817  -0.404402  0  2.042305  0
O  O129  1  0.97020874  0.48363707  0.35356085  1  0  -0.42489  0  1.801621  0  0  -0.414968  0  2.039097  0  0  -0.43009  0  2.033878  0  0  -0.198823  -0.404403  0  2.042342  0
O  O130  1  0.47021030  0.98363745  0.14643881  1  0  -0.424945  0  1.801527  0  0  -0.415011  0  2.038975  0  0  -0.430134  0  2.033755  0  0  -0.198872  -0.404442  0  2.042214  0
O  O131  1  0.02979089  0.51636293  0.64643816  1  0  -0.424895  0  1.801596  0  0  -0.414966  0  2.039064  0  0  -0.430088  0  2.033845  0  0  -0.198825  -0.404398  0  2.042306  0
O  O132  1  0.72797549  0.74232842  0.87802761  1  0  -0.394183  0  1.803508  0  0  -0.392776  0  2.019434  0  0  -0.405672  0  2.015352  0  0  -0.194654  -0.384012  0  2.022261  0
O  O133  1  0.77202422  0.75767188  0.37802786  1  0  -0.394178  0  1.803556  0  0  -0.392757  0  2.019461  0  0  -0.405654  0  2.015377  0  0  -0.194651  -0.383993  0  2.022287  0
O  O134  1  0.27202505  0.25767158  0.12197217  1  0  -0.394174  0  1.803559  0  0  -0.392729  0  2.019468  0  0  -0.405624  0  2.015385  0  0  -0.194622  -0.383967  0  2.022296  0
O  O135  1  0.22797541  0.24232812  0.62197268  1  0  -0.394263  0  1.803514  0  0  -0.392811  0  2.019438  0  0  -0.405707  0  2.015351  0  0  -0.194662  -0.384049  0  2.022267  0
O  O136  1  0.44544504  0.15256990  0.77987413  1  0  -0.357545  0  1.783955  0  0  -0.343821  0  2.005231  0  0  -0.355621  0  2.0012  0  0  -0.146809  -0.335541  0  2.007797  0
O  O137  1  0.05455481  0.34742994  0.27987340  1  0  -0.35753  0  1.78393  0  0  -0.343801  0  2.005204  0  0  -0.3556  0  2.001172  0  0  -0.146785  -0.33552  0  2.00777  0
O  O138  1  0.55455459  0.84743010  0.22012718  1  0  -0.357519  0  1.783922  0  0  -0.343791  0  2.005197  0  0  -0.355592  0  2.001164  0  0  -0.14678  -0.335511  0  2.007762  0
O  O139  1  0.94544483  0.65257006  0.72012638  1  0  -0.357518  0  1.78392  0  0  -0.343794  0  2.005199  0  0  -0.355595  0  2.001168  0  0  -0.146796  -0.335515  0  2.007764  0
O  O140  1  0.54858646  0.76776548  0.81150122  1  0  -0.377378  0  1.78153  0  0  -0.369532  0  1.988291  0  0  -0.383081  0  1.985515  0  0  -0.14778  -0.360448  0  1.990323  0
O  O141  1  0.95141404  0.73223477  0.31150091  1  0  -0.377384  0  1.781536  0  0  -0.369546  0  1.988308  0  0  -0.383094  0  1.985532  0  0  -0.147786  -0.360461  0  1.990339  0
O  O142  1  0.45141415  0.23223534  0.18850010  1  0  -0.377401  0  1.781463  0  0  -0.369538  0  1.988241  0  0  -0.383089  0  1.985468  0  0  -0.147781  -0.360455  0  1.990272  0
O  O143  1  0.04858650  0.26776524  0.68850040  1  0  -0.377434  0  1.781417  0  0  -0.369607  0  1.988266  0  0  -0.383158  0  1.985492  0  0  -0.147805  -0.360517  0  1.990291  0
