# generated using pymatgen
data_CdH12C13N3O7
_symmetry_space_group_name_H-M   'P 1'
_cell_length_a   8.39059240
_cell_length_b   10.00872275
_cell_length_c   10.59492912
_cell_angle_alpha   92.05003449
_cell_angle_beta   103.47113601
_cell_angle_gamma   112.77721698
_symmetry_Int_Tables_number   1
_chemical_formula_structural   CdH12C13N3O7
_chemical_formula_sum   'Cd2 H24 C26 N6 O14'
_cell_volume   789.88562405
_cell_formula_units_Z   2
loop_
 _symmetry_equiv_pos_site_id
 _symmetry_equiv_pos_as_xyz
  1  'x, y, z'
loop_
 _atom_site_type_symbol
 _atom_site_label
 _atom_site_symmetry_multiplicity
 _atom_site_fract_x
 _atom_site_fract_y
 _atom_site_fract_z
 _atom_site_occupancy
 _atom_site_hle17_bader_spin_density
 _atom_site_hle17_ddec_charge
 _atom_site_hle17_ddec_spin_density
 _atom_site_hle17_ddec_sum_bond_order
 _atom_site_hle17_magmom
 _atom_site_hse06_10hf_bader_spin_density
 _atom_site_hse06_10hf_ddec_charge
 _atom_site_hse06_10hf_ddec_spin_density
 _atom_site_hse06_10hf_ddec_sum_bond_order
 _atom_site_hse06_10hf_magmom
 _atom_site_hse06_bader_spin_density
 _atom_site_hse06_ddec_charge
 _atom_site_hse06_ddec_spin_density
 _atom_site_hse06_ddec_sum_bond_order
 _atom_site_hse06_magmom
 _atom_site_pbe_bader_spin_density
 _atom_site_pbe_cm5_charge
 _atom_site_pbe_ddec_charge
 _atom_site_pbe_ddec_spin_density
 _atom_site_pbe_ddec_sum_bond_order
 _atom_site_pbe_magmom
Cd  Cd0  1  0.74254066  0.08212749  0.44138294  1  0  1.18382  0  1.607282  0  0  1.003954  0  2.042089  0  0  1.061383  0  1.988527  0  0  0.775382  0.962789  0  2.078853  0
Cd  Cd1  1  0.25745917  0.91787299  0.55861732  1  0  1.183842  0  1.607244  0  0  1.003979  0  2.04205  0  0  1.06141  0  1.988485  0  0  0.775384  0.962818  0  2.078812  0
H  H2  1  0.12982385  0.78000857  0.00074037  1  0  0.090034  0  0.923036  0  0  0.103098  0  0.986363  0  0  0.104317  0  0.985042  0  0  0.113588  0.102148  0  0.987398  0
H  H3  1  0.87017787  0.21999079  0.99926022  1  0  0.090087  0  0.923007  0  0  0.103137  0  0.986326  0  0  0.104352  0  0.985005  0  0  0.113592  0.102185  0  0.98736  0
H  H4  1  0.15747705  0.90822325  0.88724719  1  0  0.088745  0  0.939648  0  0  0.104595  0  1.001622  0  0  0.105587  0  1.001227  0  0  0.110071  0.103733  0  1.002031  0
H  H5  1  0.84252345  0.09177612  0.11275316  1  0  0.088725  0  0.939662  0  0  0.104582  0  1.001615  0  0  0.105577  0  1.001208  0  0  0.110057  0.103718  0  1.002028  0
H  H6  1  0.86929563  0.83982985  0.94721993  1  0  0.0687  0  0.95504  0  0  0.084357  0  1.021731  0  0  0.084411  0  1.023166  0  0  0.089266  0.084092  0  1.021016  0
H  H7  1  0.13070432  0.16016842  0.05277934  1  0  0.068647  0  0.955109  0  0  0.084315  0  1.021777  0  0  0.08437  0  1.023213  0  0  0.089252  0.084049  0  1.021064  0
H  H8  1  0.98504866  0.90794219  0.11358845  1  0  0.07552  0  0.934237  0  0  0.095787  0  0.991241  0  0  0.09686  0  0.991049  0  0  0.091547  0.094916  0  0.99144  0
H  H9  1  0.01495128  0.09205609  0.88641177  1  0  0.075507  0  0.934275  0  0  0.095774  0  0.991273  0  0  0.096849  0  0.991079  0  0  0.091534  0.094904  0  0.991472  0
H  H10  1  0.24209416  0.28953053  0.28273288  1  0  0.128215  0  0.936287  0  0  0.135367  0  0.999878  0  0  0.139918  0  0.995428  0  0  0.120736  0.132057  0  1.003121  0
H  H11  1  0.75790868  0.71047101  0.71726702  1  0  0.12821  0  0.936278  0  0  0.135362  0  0.999865  0  0  0.139917  0  0.995403  0  0  0.120746  0.132036  0  1.00313  0
H  H12  1  0.77550969  0.42427370  0.53916303  1  0  0.121386  0  0.934186  0  0  0.126677  0  0.999975  0  0  0.130999  0  0.995967  0  0  0.11437  0.123513  0  1.002892  0
H  H13  1  0.22449070  0.57572785  0.46083548  1  0  0.12137  0  0.934176  0  0  0.126666  0  0.999974  0  0  0.130988  0  0.995968  0  0  0.114362  0.123501  0  1.002891  0
H  H14  1  0.70068828  0.27682744  0.18519942  1  0  0.115689  0  0.932694  0  0  0.129157  0  0.984692  0  0  0.131319  0  0.984228  0  0  0.124516  0.127656  0  0.985055  0
H  H15  1  0.29931155  0.72317304  0.81480178  1  0  0.115711  0  0.932655  0  0  0.129179  0  0.984655  0  0  0.13134  0  0.984192  0  0  0.124534  0.127684  0  0.985014  0
H  H16  1  0.33382370  0.86681327  0.23866927  1  0  0.113345  0  0.940265  0  0  0.123034  0  1.001959  0  0  0.125934  0  0.998349  0  0  0.136388  0.120857  0  1.004768  0
H  H17  1  0.66617680  0.13318610  0.76133108  1  0  0.113333  0  0.940284  0  0  0.123037  0  1.001963  0  0  0.125937  0  0.998352  0  0  0.136381  0.120859  0  1.00477  0
H  H18  1  0.66750164  0.68952653  0.24829942  1  0  0.125396  0  0.935906  0  0  0.132528  0  0.999056  0  0  0.13705  0  0.9945  0  0  0.118497  0.129419  0  1.001936  0
H  H19  1  0.33249819  0.31047394  0.75169990  1  0  0.125367  0  0.935977  0  0  0.132506  0  0.999109  0  0  0.137029  0  0.994556  0  0  0.118481  0.129394  0  1.00199  0
H  H20  1  0.40826831  0.16772460  0.96424830  1  0  0.121448  0  0.95628  0  0  0.132984  0  1.015022  0  0  0.135724  0  1.013173  0  0  0.124694  0.131045  0  1.016404  0
H  H21  1  0.59173208  0.83227697  0.03575304  1  0  0.121447  0  0.956296  0  0  0.133002  0  1.015019  0  0  0.135742  0  1.013169  0  0  0.124703  0.131062  0  1.016405  0
H  H22  1  0.04680337  0.08034506  0.36375556  1  0  0.424234  0  0.869955  0  0  0.39603  0  0.93209  0  0  0.406423  0  0.916955  0  0  0.293589  0.3886  0  0.942905  0
H  H23  1  0.95319590  0.91965432  0.63624456  1  0  0.424231  0  0.869955  0  0  0.396028  0  0.932094  0  0  0.40642  0  0.91696  0  0  0.293584  0.388598  0  0.94291  0
H  H24  1  0.92186424  0.91691409  0.34173492  1  0  0.421158  0  0.885051  0  0  0.389227  0  0.951618  0  0  0.400025  0  0.93597  0  0  0.285407  0.381591  0  0.962629  0
H  H25  1  0.07813503  0.08308530  0.65826615  1  0  0.421184  0  0.885019  0  0  0.389253  0  0.951586  0  0  0.40005  0  0.935938  0  0  0.285426  0.381618  0  0.962596  0
C  C26  1  0.14828834  0.89270959  0.98770337  1  0  -0.013005  0  3.625829  0  0  -0.075271  0  3.88384  0  0  -0.071361  0  3.895321  0  0  -0.055087  -0.07763  0  3.875763  0
C  C27  1  0.85171038  0.10728870  0.01229756  1  0  -0.01302  0  3.625802  0  0  -0.075234  0  3.883705  0  0  -0.071314  0  3.895172  0  0  -0.055047  -0.077596  0  3.875625  0
C  C28  1  0.99311811  0.92358811  0.01249647  1  0  -0.125966  0  3.686832  0  0  -0.167634  0  3.948694  0  0  -0.169035  0  3.962908  0  0  -0.167855  -0.166581  0  3.938938  0
C  C29  1  0.00688117  0.07641126  0.98750366  1  0  -0.125934  0  3.686852  0  0  -0.167599  0  3.94867  0  0  -0.169005  0  3.962881  0  0  -0.167848  -0.166548  0  3.938915  0
C  C30  1  0.44612592  0.20206470  0.47757495  1  0  0.653846  0  3.920806  0  0  0.597645  0  4.217764  0  0  0.632573  0  4.212819  0  0  0.204181  0.573727  0  4.22082  0
C  C31  1  0.55387391  0.79793577  0.52242436  1  0  0.653879  0  3.920802  0  0  0.59768  0  4.217754  0  0  0.632608  0  4.212809  0  0  0.204204  0.573762  0  4.22081  0
C  C32  1  0.38257804  0.36509611  0.31512255  1  0  -0.071888  0  3.670943  0  0  -0.116118  0  3.935435  0  0  -0.110985  0  3.951812  0  0  -0.06274  -0.118823  0  3.924377  0
C  C33  1  0.61742423  0.63490434  0.68487816  1  0  -0.071885  0  3.670975  0  0  -0.116088  0  3.935458  0  0  -0.110954  0  3.951836  0  0  -0.062726  -0.11878  0  3.924409  0
C  C34  1  0.50380026  0.33924856  0.41561790  1  0  -0.068847  0  3.751925  0  0  -0.040879  0  3.990202  0  0  -0.053022  0  4.015706  0  0  -0.011687  -0.033145  0  3.973134  0
C  C35  1  0.49620079  0.66075189  0.58438165  1  0  -0.068919  0  3.751962  0  0  -0.040929  0  3.990221  0  0  -0.053074  0  4.015724  0  0  -0.011683  -0.033194  0  3.973152  0
C  C36  1  0.68185019  0.44202130  0.45865700  1  0  -0.023726  0  3.637966  0  0  -0.067174  0  3.892317  0  0  -0.061702  0  3.909115  0  0  -0.055497  -0.070128  0  3.880557  0
C  C37  1  0.31815142  0.55798025  0.54134268  1  0  -0.023671  0  3.637912  0  0  -0.067153  0  3.892301  0  0  -0.061681  0  3.9091  0  0  -0.055478  -0.070106  0  3.880541  0
C  C38  1  0.44502619  0.49114386  0.25690219  1  0  0.06556  0  3.709447  0  0  0.052793  0  3.965949  0  0  0.04672  0  3.989714  0  0  0.076197  0.056382  0  3.950099  0
C  C39  1  0.55497542  0.50885768  0.74309655  1  0  0.065593  0  3.709442  0  0  0.052751  0  3.966028  0  0  0.046676  0  3.989796  0  0  0.076138  0.056344  0  3.950172  0
C  C40  1  0.93090031  0.68088730  0.45360903  1  0  0.642164  0  3.91749  0  0  0.590928  0  4.207631  0  0  0.625273  0  4.202711  0  0  0.19877  0.567644  0  4.210071  0
C  C41  1  0.06909952  0.31911317  0.54639029  1  0  0.642056  0  3.9175  0  0  0.590817  0  4.207649  0  0  0.625162  0  4.202733  0  0  0.198751  0.567535  0  4.210086  0
C  C42  1  0.58033611  0.17617341  0.16386875  1  0  -0.000298  0  3.75943  0  0  -0.037033  0  4.03411  0  0  -0.035093  0  4.056002  0  0  -0.004786  -0.038208  0  4.0191  0
C  C43  1  0.41966306  0.82382817  0.83613236  1  0  -0.000349  0  3.75944  0  0  -0.037093  0  4.034139  0  0  -0.035152  0  4.056028  0  0  -0.00482  -0.038274  0  4.019135  0
C  C44  1  0.39492371  0.96411339  0.19549290  1  0  0.163797  0  3.649556  0  0  0.100272  0  3.915391  0  0  0.114502  0  3.928815  0  0  0.138924  0.091182  0  3.906062  0
C  C45  1  0.60507800  0.03588597  0.80450862  1  0  0.163862  0  3.649657  0  0  0.10032  0  3.915481  0  0  0.11455  0  3.928902  0  0  0.138974  0.091232  0  3.906149  0
C  C46  1  0.62331232  0.59250752  0.29613191  1  0  -0.073333  0  3.662354  0  0  -0.114522  0  3.919103  0  0  -0.109424  0  3.93467  0  0  -0.063969  -0.116879  0  3.907897  0
C  C47  1  0.37668752  0.40749295  0.70386740  1  0  -0.073317  0  3.662431  0  0  -0.114479  0  3.919177  0  0  -0.109382  0  3.934743  0  0  -0.063926  -0.116833  0  3.907967  0
C  C48  1  0.74211338  0.56866473  0.39981465  1  0  -0.043195  0  3.71763  0  0  -0.016233  0  3.954265  0  0  -0.026767  0  3.97687  0  0  -0.005804  -0.010281  0  3.93999  0
C  C49  1  0.25788646  0.43133573  0.60018466  1  0  -0.043141  0  3.71765  0  0  -0.01618  0  3.954298  0  0  -0.02671  0  3.976897  0  0  -0.005795  -0.010228  0  3.940023  0
C  C50  1  0.43623677  0.12410326  0.05475150  1  0  -0.059286  0  3.66977  0  0  -0.104147  0  3.936058  0  0  -0.102577  0  3.955176  0  0  0.001045  -0.104801  0  3.923063  0
C  C51  1  0.56376072  0.87589504  0.94524920  1  0  -0.059251  0  3.66982  0  0  -0.104119  0  3.936079  0  0  -0.102551  0  3.955209  0  0  0.001056  -0.104768  0  3.923086  0
N  N52  1  0.32092311  0.99012535  0.07645113  1  0  -0.056149  0  3.585567  0  0  0.0398  0  3.803085  0  0  0.024748  0  3.830956  0  0  -0.242148  0.049643  0  3.78405  0
N  N53  1  0.67907439  0.00987295  0.92355051  1  0  -0.05619  0  3.585656  0  0  0.039732  0  3.803189  0  0  0.024676  0  3.831056  0  0  -0.242173  0.049576  0  3.784151  0
N  N54  1  0.31736483  0.51911016  0.15183917  1  0  0.466435  0  3.955649  0  0  0.532176  0  4.20155  0  0  0.553161  0  4.21032  0  0  0.059478  0.517997  0  4.195833  0
N  N55  1  0.68263445  0.48088921  0.84816001  1  0  0.466457  0  3.95556  0  0  0.532229  0  4.20144  0  0  0.553215  0  4.210211  0  0  0.059496  0.51805  0  4.195726  0
N  N56  1  0.55281186  0.07502275  0.25077301  1  0  -0.418302  0  3.309428  0  0  -0.334701  0  3.592841  0  0  -0.359227  0  3.61332  0  0  -0.369014  -0.317754  0  3.578185  0
N  N57  1  0.44718919  0.92497771  0.74922748  1  0  -0.418354  0  3.309607  0  0  -0.334748  0  3.593019  0  0  -0.359274  0  3.613496  0  0  -0.369053  -0.317803  0  3.578368  0
O  O58  1  0.91946211  0.01389855  0.32609725  1  0  -0.832329  0  1.842306  0  0  -0.775732  0  2.029535  0  0  -0.797846  0  1.997068  0  0  -0.589574  -0.759924  0  2.051974  0
O  O59  1  0.08053716  0.98610083  0.67390382  1  0  -0.832357  0  1.842282  0  0  -0.775765  0  2.029513  0  0  -0.797878  0  1.997046  0  0  -0.589586  -0.759956  0  2.051952  0
O  O60  1  0.37495012  0.63272981  0.10151639  1  0  -0.36118  0  1.761646  0  0  -0.360999  0  1.95579  0  0  -0.373932  0  1.951705  0  0  -0.132946  -0.352785  0  1.959171  0
O  O61  1  0.62504916  0.36726956  0.89848279  1  0  -0.361206  0  1.761637  0  0  -0.361034  0  1.955758  0  0  -0.373966  0  1.951673  0  0  -0.132953  -0.35282  0  1.959139  0
O  O62  1  0.56527562  0.16810305  0.54869974  1  0  -0.662635  0  2.013231  0  0  -0.602308  0  2.27095  0  0  -0.630339  0  2.259053  0  0  -0.326482  -0.582537  0  2.278608  0
O  O63  1  0.43472421  0.83189742  0.45130052  1  0  -0.662646  0  2.013235  0  0  -0.60232  0  2.270956  0  0  -0.630351  0  2.259055  0  0  -0.326499  -0.582549  0  2.278615  0
O  O64  1  0.72201946  0.87661516  0.54400842  1  0  -0.651535  0  2.039547  0  0  -0.577818  0  2.284085  0  0  -0.608395  0  2.274324  0  0  -0.316476  -0.556742  0  2.290336  0
O  O65  1  0.27798037  0.12338530  0.45599090  1  0  -0.651535  0  2.039569  0  0  -0.577816  0  2.284106  0  0  -0.608392  0  2.274346  0  0  -0.316465  -0.556742  0  2.290357  0
O  O66  1  0.99275490  0.78364362  0.38557785  1  0  -0.670973  0  1.993362  0  0  -0.600958  0  2.223919  0  0  -0.630365  0  2.212141  0  0  -0.334225  -0.580094  0  2.231173  0
O  O67  1  0.00724615  0.21635684  0.61442169  1  0  -0.670951  0  1.993347  0  0  -0.60093  0  2.223904  0  0  -0.630337  0  2.212128  0  0  -0.334237  -0.580067  0  2.231156  0
O  O68  1  0.02094734  0.67335868  0.56458002  1  0  -0.607383  0  1.900638  0  0  -0.551317  0  2.125979  0  0  -0.578905  0  2.118478  0  0  -0.318303  -0.531661  0  2.130289  0
O  O69  1  0.97905250  0.32664178  0.43541929  1  0  -0.607326  0  1.900611  0  0  -0.55126  0  2.125953  0  0  -0.578847  0  2.118455  0  0  -0.318283  -0.531603  0  2.130257  0
O  O70  1  0.15917706  0.42850852  0.11939436  1  0  -0.329448  0  1.751842  0  0  -0.327577  0  1.936128  0  0  -0.337969  0  1.930627  0  0  -0.120061  -0.321033  0  1.940278  0
O  O71  1  0.84082277  0.57149195  0.88060685  1  0  -0.32947  0  1.751778  0  0  -0.327588  0  1.936049  0  0  -0.33798  0  1.930547  0  0  -0.120076  -0.321044  0  1.940201  0
