# generated using pymatgen
data_CdH19C26N5O3
_symmetry_space_group_name_H-M   'P 1'
_cell_length_a   8.42023759
_cell_length_b   8.39055603
_cell_length_c   33.81390555
_cell_angle_alpha   87.38875423
_cell_angle_beta   87.40475732
_cell_angle_gamma   80.46722066
_symmetry_Int_Tables_number   1
_chemical_formula_structural   CdH19C26N5O3
_chemical_formula_sum   'Cd4 H76 C104 N20 O12'
_cell_volume   2351.80583427
_cell_formula_units_Z   4
loop_
 _symmetry_equiv_pos_site_id
 _symmetry_equiv_pos_as_xyz
  1  'x, y, z'
loop_
 _atom_site_type_symbol
 _atom_site_label
 _atom_site_symmetry_multiplicity
 _atom_site_fract_x
 _atom_site_fract_y
 _atom_site_fract_z
 _atom_site_occupancy
 _atom_site_pbe_bader_charge
 _atom_site_pbe_bader_spin_density
 _atom_site_pbe_cm5_charge
 _atom_site_pbe_ddec_charge
 _atom_site_pbe_ddec_spin_density
 _atom_site_pbe_ddec_sum_bond_order
 _atom_site_pbe_magmom
Cd  Cd0  1  0.68388179  0.95750370  0.86255444  1  1.225584  0  0.723697  0.783403  0  2.319291  0
Cd  Cd1  1  0.04205277  0.31565846  0.63749291  1  1.226581  0  0.724297  0.784685  0  2.316849  0
Cd  Cd2  1  0.31610885  0.04247255  0.13744643  1  1.225804  0  0.723709  0.783543  0  2.31911  0
Cd  Cd3  1  0.95794013  0.68437401  0.36250101  1  1.226255  0  0.724312  0.784649  0  2.316867  0
H  H4  1  0.73207734  0.91860463  0.93808244  1  0.562896  0  0.232759  0.29697  0  1.072629  0
H  H5  1  0.08165154  0.26823024  0.56193873  1  0.563881  0  0.233474  0.297819  0  1.071123  0
H  H6  1  0.26795869  0.08131139  0.06191661  1  0.562365  0  0.232805  0.297035  0  1.072409  0
H  H7  1  0.91840170  0.73177463  0.43806112  1  0.563371  0  0.233366  0.297699  0  1.071255  0
H  H8  1  0.08230748  0.70021184  0.76742562  1  0.099269  0  0.107547  0.117396  0  1.001721  0
H  H9  1  0.29991441  0.91708669  0.73266965  1  0.09743  0  0.107305  0.117134  0  1.002288  0
H  H10  1  0.91767817  0.29974581  0.23259401  1  0.099605  0  0.107539  0.117279  0  1.001755  0
H  H11  1  0.70005981  0.08296018  0.26731369  1  0.097346  0  0.107325  0.117131  0  1.002289  0
H  H12  1  0.17129807  0.54111485  0.70625940  1  0.113047  0  0.110919  0.084361  0  1.034883  0
H  H13  1  0.45881035  0.82777453  0.79380809  1  0.108734  0  0.110644  0.084057  0  1.034796  0
H  H14  1  0.82870622  0.45887453  0.29375460  1  0.113007  0  0.110927  0.08427  0  1.03527  0
H  H15  1  0.54115918  0.17225838  0.20618180  1  0.108613  0  0.110722  0.084157  0  1.03446  0
H  H16  1  0.74157157  0.36643972  0.70592762  1  0.089484  0  0.108556  0.075348  0  1.03889  0
H  H17  1  0.63333909  0.25889614  0.79395931  1  0.090731  0  0.10839  0.075658  0  1.038668  0
H  H18  1  0.25842456  0.63354782  0.29407679  1  0.089434  0  0.108586  0.075398  0  1.038749  0
H  H19  1  0.36659578  0.74113363  0.20605166  1  0.090788  0  0.108379  0.075681  0  1.038712  0
H  H20  1  0.63719441  0.51556895  0.76804883  1  0.078854  0  0.105416  0.112428  0  1.022764  0
H  H21  1  0.48453723  0.36362123  0.73184651  1  0.074096  0  0.105048  0.11241  0  1.021669  0
H  H22  1  0.36278119  0.48442591  0.23195405  1  0.078784  0  0.105368  0.112301  0  1.022947  0
H  H23  1  0.51541609  0.63643546  0.26815833  1  0.074034  0  0.105254  0.112528  0  1.021777  0
H  H24  1  0.00518585  0.03961563  0.80782895  1  0.142832  0  0.116416  0.095099  0  1.00552  0
H  H25  1  0.95977422  0.99437907  0.69215641  1  0.147082  0  0.116886  0.09523  0  1.00416  0
H  H26  1  0.99489047  0.96035157  0.19218417  1  0.143235  0  0.116389  0.095139  0  1.005423  0
H  H27  1  0.04025881  0.00565424  0.30783856  1  0.147155  0  0.116941  0.095384  0  1.004006  0
H  H28  1  0.20747106  0.23097896  0.80443368  1  0.096901  0  0.102693  0.10703  0  1.027938  0
H  H29  1  0.76893176  0.79148032  0.69571537  1  0.091299  0  0.10259  0.107026  0  1.029361  0
H  H30  1  0.79259302  0.76900190  0.19557350  1  0.097204  0  0.102876  0.107147  0  1.027779  0
H  H31  1  0.23114314  0.20850306  0.30428980  1  0.091057  0  0.102405  0.106954  0  1.029311  0
H  H32  1  0.14807288  0.47929529  0.84524424  1  0.064607  0  0.10917  0.106727  0  0.980553  0
H  H33  1  0.52116982  0.85095832  0.65497853  1  0.063375  0  0.109184  0.106975  0  0.980203  0
H  H34  1  0.85198497  0.52070383  0.15475474  1  0.064114  0  0.109157  0.106669  0  0.980892  0
H  H35  1  0.47888566  0.14901360  0.34503044  1  0.063993  0  0.109179  0.106924  0  0.980148  0
H  H36  1  0.88974932  0.53275922  0.88459243  1  0.080633  0  0.114785  0.132399  0  1.001608  0
H  H37  1  0.46792461  0.11010281  0.61553945  1  0.087388  0  0.115201  0.132885  0  1.000574  0
H  H38  1  0.11030054  0.46720100  0.11539732  1  0.114274  0  0.114808  0.132544  0  1.001248  0
H  H39  1  0.53205004  0.88986342  0.38446217  1  0.086747  0  0.115194  0.132901  0  1.000693  0
H  H40  1  0.66570373  0.57503679  0.91036015  1  0.14272  0  0.113762  0.136371  0  1.02806  0
H  H41  1  0.42568854  0.33426474  0.58972814  1  0.146358  0  0.113338  0.135332  0  1.027936  0
H  H42  1  0.33435959  0.42493408  0.08964159  1  0.142492  0  0.11384  0.136431  0  1.027772  0
H  H43  1  0.57429113  0.66568317  0.41026750  1  0.146444  0  0.113297  0.135223  0  1.0278  0
H  H44  1  0.24382674  0.36728035  0.94510363  1  0.075623  0  0.10695  0.111527  0  1.027735  0
H  H45  1  0.63300140  0.75731555  0.55472298  1  0.072391  0  0.107366  0.111238  0  1.027283  0
H  H46  1  0.75624373  0.63272281  0.05489980  1  0.075411  0  0.106956  0.111393  0  1.027587  0
H  H47  1  0.36698217  0.24265849  0.44526681  1  0.071259  0  0.107319  0.111267  0  1.027329  0
H  H48  1  0.11126232  0.20029307  0.93516228  1  0.065255  0  0.100013  0.097592  0  1.039083  0
H  H49  1  0.80022929  0.88968671  0.56482652  1  0.067901  0  0.099184  0.096317  0  1.04055  0
H  H50  1  0.88875972  0.79977388  0.06484857  1  0.065643  0  0.100054  0.097681  0  1.038874  0
H  H51  1  0.19971705  0.11027730  0.43517090  1  0.068542  0  0.099099  0.096267  0  1.040582  0
H  H52  1  0.96481514  0.96740230  0.92325054  1  0.170129  0  0.102748  0.112384  0  1.049615  0
H  H53  1  0.03271822  0.03635565  0.57664406  1  0.170513  0  0.102747  0.112366  0  1.051009  0
H  H54  1  0.03516564  0.03270249  0.07676126  1  0.170572  0  0.102808  0.112435  0  1.049775  0
H  H55  1  0.96718201  0.96368171  0.42334223  1  0.170056  0  0.102728  0.112186  0  1.050963  0
H  H56  1  0.09885224  0.74631786  0.88293167  1  0.096237  0  0.107739  0.116342  0  1.000439  0
H  H57  1  0.25298328  0.90135848  0.61691683  1  0.099235  0  0.107163  0.115577  0  1.000896  0
H  H58  1  0.90103025  0.25376194  0.11707371  1  0.096442  0  0.107728  0.116265  0  1.00049  0
H  H59  1  0.74694433  0.09870123  0.38307007  1  0.098888  0  0.107257  0.115594  0  1.000911  0
H  H60  1  0.38929563  0.74681870  0.85839594  1  0.074347  0  0.113608  0.088872  0  1.005797  0
H  H61  1  0.25199319  0.61000780  0.64151536  1  0.103691  0  0.114195  0.089726  0  1.007562  0
H  H62  1  0.61059643  0.25318821  0.14160435  1  0.074015  0  0.113669  0.089023  0  1.006183  0
H  H63  1  0.74800167  0.39003905  0.35848241  1  0.10454  0  0.11426  0.089763  0  1.00745  0
H  H64  1  0.14444428  0.58694403  0.96845570  1  0.074923  0  0.104562  0.109833  0  1.004175  0
H  H65  1  0.41312482  0.85664066  0.53140888  1  0.070209  0  0.104471  0.109872  0  1.004776  0
H  H66  1  0.85556625  0.41308685  0.03153231  1  0.075183  0  0.104521  0.109716  0  1.004312  0
H  H67  1  0.58685036  0.14332466  0.46858505  1  0.069951  0  0.104576  0.109981  0  1.004475  0
H  H68  1  0.08195357  0.79598154  0.01811078  1  0.036713  0  0.106724  0.073405  0  1.004045  0
H  H69  1  0.20413719  0.91920930  0.48189063  1  0.032265  0  0.106704  0.07366  0  1.004656  0
H  H70  1  0.91804742  0.20404319  0.98188106  1  0.036264  0  0.106822  0.073474  0  1.004241  0
H  H71  1  0.79585001  0.08075368  0.51810284  1  0.032312  0  0.106734  0.073538  0  1.004684  0
H  H72  1  0.55027077  0.88806714  0.01214814  1  0.073972  0  0.107382  0.069158  0  1.028712  0
H  H73  1  0.11229003  0.44918229  0.48810316  1  0.072279  0  0.106795  0.068978  0  1.027323  0
H  H74  1  0.44979420  0.11189009  0.98786329  1  0.074174  0  0.107374  0.068917  0  1.029086  0
H  H75  1  0.88773536  0.55080180  0.51187594  1  0.072105  0  0.106708  0.068746  0  1.027193  0
H  H76  1  0.63128285  0.69690002  0.95966572  1  0.188539  0  0.102882  0.125431  0  1.050098  0
H  H77  1  0.30344739  0.36800370  0.54043036  1  0.143055  0  0.102655  0.125476  0  1.050046  0
H  H78  1  0.36877165  0.30304438  0.04034109  1  0.188705  0  0.102939  0.125448  0  1.050122  0
H  H79  1  0.69657513  0.63196078  0.45955033  1  0.184385  0  0.102624  0.125491  0  1.050056  0
C  C80  1  0.79459470  0.70973883  0.80873903  1  1.597649  0  0.185524  0.542647  0  4.271282  0
C  C81  1  0.29026658  0.20567038  0.69128385  1  1.59946  0  0.186204  0.542795  0  4.270068  0
C  C82  1  0.20538494  0.29025692  0.19126820  1  1.596533  0  0.185807  0.542815  0  4.270882  0
C  C83  1  0.70972808  0.79440539  0.30871578  1  1.599374  0  0.186098  0.54291  0  4.270241  0
C  C84  1  0.85320216  0.61719246  0.77225272  1  -0.066122  0  -0.000537  0.017704  0  3.961434  0
C  C85  1  0.38277139  0.14696299  0.72776003  1  -0.059983  0  -2.7e-05  0.018444  0  3.960897  0
C  C86  1  0.14678446  0.38278319  0.22775799  1  -0.064603  0  -0.000529  0.017587  0  3.961595  0
C  C87  1  0.61720094  0.85309091  0.27224128  1  -0.059559  0  -0.000283  0.018077  0  3.961054  0
C  C88  1  0.00471131  0.62628287  0.75450330  1  -0.034913  0  -0.084591  -0.149712  0  3.965414  0
C  C89  1  0.37371600  0.99494026  0.74555578  1  -0.036851  0  -0.08449  -0.150119  0  3.966594  0
C  C90  1  0.99527199  0.37370300  0.24550759  1  -0.035922  0  -0.084575  -0.14959  0  3.965432  0
C  C91  1  0.62624797  0.00509773  0.25443825  1  -0.036611  0  -0.084143  -0.149528  0  3.966855  0
C  C92  1  0.05298103  0.54043327  0.72061196  1  0.476531  0  0.040075  0.082887  0  3.963553  0
C  C93  1  0.45947868  0.94651036  0.77942258  1  0.479257  0  0.039769  0.082981  0  3.964892  0
C  C94  1  0.94700036  0.45958704  0.27939333  1  0.476729  0  0.040108  0.083081  0  3.963899  0
C  C95  1  0.54047818  0.05352683  0.22057367  1  0.478693  0  0.039613  0.082648  0  3.964741  0
C  C96  1  0.81338303  0.44162468  0.72056231  1  0.511673  0  0.037864  0.08073  0  3.974676  0
C  C97  1  0.55820295  0.18688976  0.77936518  1  0.503081  0  0.038081  0.08009  0  3.975174  0
C  C98  1  0.18658848  0.55840762  0.27943672  1  0.511714  0  0.037806  0.080648  0  3.974285  0
C  C99  1  0.44173562  0.81314979  0.22064318  1  0.504096  0  0.038038  0.079967  0  3.975233  0
C  C100  1  0.75595152  0.52297967  0.75467324  1  -0.040623  0  -0.086494  -0.157434  0  3.966877  0
C  C101  1  0.47696908  0.24449245  0.74526396  1  -0.035038  0  -0.086312  -0.157674  0  3.967025  0
C  C102  1  0.24402805  0.47702295  0.24533091  1  -0.041571  0  -0.086432  -0.157205  0  3.966961  0
C  C103  1  0.52297971  0.75556545  0.25474419  1  -0.035251  0  -0.086401  -0.157728  0  3.967106  0
C  C104  1  0.98483844  0.15145524  0.82396100  1  0.462862  0  0.049058  0.098878  0  3.947077  0
C  C105  1  0.84826413  0.01469427  0.67605306  1  0.466935  0  0.049207  0.098509  0  3.946463  0
C  C106  1  0.01520110  0.84852403  0.17604339  1  0.461828  0  0.049222  0.098942  0  3.947238  0
C  C107  1  0.15176012  0.98532068  0.32394476  1  0.466977  0  0.04926  0.098452  0  3.946457  0
C  C108  1  0.09677486  0.25703562  0.82258533  1  0.041936  0  -0.083004  -0.120241  0  3.965104  0
C  C109  1  0.74293101  0.90245935  0.67752372  1  -0.024674  0  -0.083942  -0.121079  0  3.965387  0
C  C110  1  0.90326555  0.74294769  0.17741364  1  0.043225  0  -0.083158  -0.120347  0  3.965073  0
C  C111  1  0.25710561  0.09753746  0.32248308  1  -0.032163  0  -0.083934  -0.121194  0  3.965342  0
C  C112  1  0.06300734  0.39438978  0.84520387  1  -0.096608  0  -0.070686  -0.034017  0  3.989594  0
C  C113  1  0.60588840  0.93619864  0.65495995  1  -0.05896  0  -0.069882  -0.032932  0  3.989928  0
C  C114  1  0.93704874  0.60559747  0.15479268  1  -0.096351  0  -0.070708  -0.033947  0  3.989817  0
C  C115  1  0.39414659  0.06379104  0.34504434  1  -0.051952  0  -0.069796  -0.032747  0  3.989849  0
C  C116  1  0.91859144  0.42393312  0.86750195  1  -0.00219  0  -0.077537  -0.152808  0  3.919057  0
C  C117  1  0.57639074  0.08098663  0.63261208  1  0.01896  0  -0.077475  -0.15348  0  3.919358  0
C  C118  1  0.08146239  0.57602561  0.13249219  1  -0.036004  0  -0.077486  -0.152895  0  3.918891  0
C  C119  1  0.42359587  0.91900864  0.36739178  1  0.020013  0  -0.07761  -0.153726  0  3.919773  0
C  C120  1  0.81008196  0.31393314  0.86649454  1  0.490663  0  0.123494  0.170254  0  3.955604  0
C  C121  1  0.68614431  0.18969811  0.63351961  1  0.514949  0  0.123572  0.170357  0  3.95829  0
C  C122  1  0.18994463  0.68604406  0.13350094  1  0.490764  0  0.123492  0.170278  0  3.955628  0
C  C123  1  0.31383532  0.81031033  0.36648325  1  0.514296  0  0.123735  0.170643  0  3.95794  0
C  C124  1  0.65006604  0.33917771  0.88817589  1  0.548105  0  0.126756  0.189968  0  3.975084  0
C  C125  1  0.66089122  0.34995020  0.61178296  1  0.546372  0  0.126514  0.189758  0  3.980088  0
C  C126  1  0.34996563  0.66079884  0.11182247  1  0.547963  0  0.126763  0.190041  0  3.975304  0
C  C127  1  0.33910358  0.65002677  0.38820953  1  0.546815  0  0.126359  0.189538  0  3.979756  0
C  C128  1  0.59545394  0.47689050  0.91001194  1  0.004617  0  -0.066804  -0.179255  0  3.832216  0
C  C129  1  0.52356355  0.40468155  0.58998935  1  -0.057493  0  -0.066132  -0.177941  0  3.83325  0
C  C130  1  0.40459977  0.52308570  0.08998900  1  -0.058311  0  -0.066958  -0.179276  0  3.832526  0
C  C131  1  0.47641775  0.59528156  0.41000599  1  -0.057122  0  -0.066075  -0.177842  0  3.833148  0
C  C132  1  0.44825554  0.48735053  0.93179758  1  -0.052098  0  0.012891  0.112265  0  3.977675  0
C  C133  1  0.51313878  0.55221130  0.56811275  1  0.017293  0  0.012031  0.109908  0  3.975243  0
C  C134  1  0.55182304  0.51262183  0.06821186  1  0.011047  0  0.01297  0.111953  0  3.977397  0
C  C135  1  0.48686047  0.44774937  0.43188055  1  0.017093  0  0.011955  0.110041  0  3.975586  0
C  C136  1  0.35701668  0.36406415  0.92819012  1  -0.025195  0  -0.080421  -0.209645  0  3.93367  0
C  C137  1  0.63617428  0.64373648  0.57167411  1  -0.023869  0  -0.079037  -0.2067  0  3.928082  0
C  C138  1  0.64305099  0.63592177  0.07181484  1  -0.025558  0  -0.080318  -0.209359  0  3.93303  0
C  C139  1  0.36382406  0.35623627  0.42831870  1  -0.022101  0  -0.078866  -0.206753  0  3.928424  0
C  C140  1  0.41672351  0.23173313  0.90510047  1  0.525258  0  0.124872  0.18365  0  4.009637  0
C  C141  1  0.76814084  0.58381724  0.59478710  1  0.514062  0  0.124405  0.183228  0  4.009953  0
C  C142  1  0.58331979  0.76824327  0.09490627  1  0.524701  0  0.12492  0.183854  0  4.009427  0
C  C143  1  0.23184526  0.41617520  0.40521178  1  0.513983  0  0.124281  0.18321  0  4.009803  0
C  C144  1  0.32596619  0.09543188  0.90153242  1  0.531457  0  0.118372  0.163008  0  3.98294  0
C  C145  1  0.90437221  0.67430853  0.59841956  1  0.510675  0  0.117228  0.161205  0  3.985726  0
C  C146  1  0.67404141  0.90457612  0.09847144  1  0.530956  0  0.118262  0.16302  0  3.982774  0
C  C147  1  0.09561747  0.32568665  0.40157773  1  0.510067  0  0.117213  0.160962  0  3.985985  0
C  C148  1  0.16998690  0.09822040  0.91822451  1  -0.065393  0  -0.086391  -0.164825  0  3.966197  0
C  C149  1  0.90198938  0.83072388  0.58172760  1  -0.060913  0  -0.085174  -0.162837  0  3.967178  0
C  C150  1  0.83001524  0.90184501  0.08178109  1  -0.064519  0  -0.086421  -0.164931  0  3.965873  0
C  C151  1  0.09797597  0.16927453  0.41826770  1  -0.060095  0  -0.085111  -0.16264  0  3.967228  0
C  C152  1  0.08781150  0.97150712  0.91188197  1  0.011796  0  -0.070779  -0.023864  0  3.950338  0
C  C153  1  0.02843575  0.91294195  0.58803017  1  0.023351  0  -0.071041  -0.024854  0  3.95025  0
C  C154  1  0.91215612  0.02857694  0.08812480  1  -0.039186  0  -0.070853  -0.023948  0  3.950926  0
C  C155  1  0.97150743  0.08709159  0.41196342  1  0.023511  0  -0.071083  -0.024689  0  3.95054  0
C  C156  1  0.16339282  0.84407088  0.88916729  1  -0.142863  0  -0.076323  -0.109818  0  3.955325  0
C  C157  1  0.15536299  0.83681598  0.61072858  1  -0.136693  0  -0.075723  -0.107651  0  3.953535  0
C  C158  1  0.83651460  0.15599562  0.11083641  1  -0.092514  0  -0.076324  -0.109496  0  3.955583  0
C  C159  1  0.84457939  0.16322395  0.38926758  1  -0.137131  0  -0.075839  -0.107798  0  3.954172  0
C  C160  1  0.32071443  0.84602256  0.87493152  1  0.54165  0  0.04443  0.081297  0  3.970305  0
C  C161  1  0.15312200  0.67896986  0.62499728  1  0.514393  0  0.043733  0.079611  0  3.96881  0
C  C162  1  0.67920604  0.15399592  0.12507102  1  0.541556  0  0.044418  0.080885  0  3.970862  0
C  C163  1  0.84684745  0.32106439  0.37500531  1  0.513914  0  0.043732  0.0796  0  3.96923  0
C  C164  1  0.39706498  0.61661462  0.96017527  1  -0.065684  0  0.005981  0.093976  0  3.977972  0
C  C165  1  0.38387372  0.60312838  0.53978075  1  -0.059472  0  0.005449  0.093859  0  3.975692  0
C  C166  1  0.60298432  0.38335253  0.03983390  1  -0.064443  0  0.005626  0.093885  0  3.977952  0
C  C167  1  0.61612305  0.39683384  0.46021138  1  -0.060159  0  0.005397  0.093776  0  3.976599  0
C  C168  1  0.24046855  0.64883168  0.97731918  1  -0.041663  0  -0.086704  -0.176477  0  3.959655  0
C  C169  1  0.35138659  0.76023687  0.52259946  1  -0.03892  0  -0.086552  -0.175617  0  3.960119  0
C  C170  1  0.75955262  0.35117499  0.02267381  1  -0.04327  0  -0.086573  -0.176124  0  3.959929  0
C  C171  1  0.64858640  0.23973028  0.47739655  1  -0.037208  0  -0.086684  -0.175941  0  3.960387  0
C  C172  1  0.20446422  0.76722180  0.00540454  1  0.520455  0  0.035114  0.084046  0  4.01748  0
C  C173  1  0.23297996  0.79627005  0.49460866  1  0.546295  0  0.034508  0.0823  0  4.017182  0
C  C174  1  0.79555455  0.23278649  0.99458816  1  0.52107  0  0.034979  0.08367  0  4.017984  0
C  C175  1  0.76700012  0.20369905  0.50538453  1  0.544657  0  0.034672  0.082968  0  4.017129  0
C  C176  1  0.46170084  0.82028170  0.00170502  1  0.459978  0  0.036528  0.090401  0  4.004513  0
C  C177  1  0.18009094  0.53810536  0.49845648  1  0.466548  0  0.037493  0.090479  0  4.00221  0
C  C178  1  0.53835675  0.17969178  0.99829974  1  0.460881  0  0.036543  0.090576  0  4.004422  0
C  C179  1  0.81991194  0.46187774  0.50152926  1  0.466578  0  0.03764  0.090862  0  4.001996  0
C  C180  1  0.50907732  0.70786805  0.97272577  1  -0.030393  0  -0.084538  -0.16371  0  3.907946  0
C  C181  1  0.29260761  0.49065870  0.52734965  1  0.010206  0  -0.08456  -0.16375  0  3.906203  0
C  C182  1  0.49097071  0.29210965  0.02727909  1  -0.031836  0  -0.084467  -0.163635  0  3.90768  0
C  C183  1  0.70739378  0.50931394  0.47263630  1  -0.030561  0  -0.084686  -0.164028  0  3.906541  0
N  N184  1  0.95957821  0.44900743  0.70372911  1  -1.21259  0  -0.317366  -0.235448  0  3.447686  0
N  N185  1  0.55073624  0.04024030  0.79625159  1  -1.207616  0  -0.317347  -0.234972  0  3.447247  0
N  N186  1  0.04041966  0.55098617  0.29627931  1  -1.21227  0  -0.317343  -0.235418  0  3.447425  0
N  N187  1  0.44921597  0.95978644  0.20375055  1  -1.208573  0  -0.317502  -0.235048  0  3.447555  0
N  N188  1  0.84594440  0.17885349  0.84545580  1  -1.197385  0  -0.312531  -0.26975  0  3.444344  0
N  N189  1  0.82094112  0.15390672  0.65449257  1  -1.223507  0  -0.312865  -0.269479  0  3.445828  0
N  N190  1  0.15407368  0.82111257  0.15454328  1  -1.197462  0  -0.312676  -0.269866  0  3.444542  0
N  N191  1  0.17905193  0.84611434  0.34550687  1  -1.223784  0  -0.312867  -0.269546  0  3.44582  0
N  N192  1  0.56163055  0.22034966  0.88627189  1  -1.21842  0  -0.311586  -0.299098  0  3.466761  0
N  N193  1  0.77939296  0.43850055  0.61364585  1  -1.213485  0  -0.311373  -0.299882  0  3.467258  0
N  N194  1  0.43841834  0.77960554  0.11373660  1  -1.2184  0  -0.311463  -0.299329  0  3.466865  0
N  N195  1  0.22059720  0.56148215  0.38634722  1  -1.214278  0  -0.3111  -0.299608  0  3.466377  0
N  N196  1  0.39956087  0.96853453  0.88090926  1  -1.205711  0  -0.31709  -0.258631  0  3.482585  0
N  N197  1  0.03074605  0.60016187  0.61905674  1  -1.217854  0  -0.317526  -0.257367  0  3.484592  0
N  N198  1  0.60039639  0.03146238  0.11909124  1  -1.205871  0  -0.317217  -0.258666  0  3.482832  0
N  N199  1  0.96924649  0.39984369  0.38094210  1  -1.218265  0  -0.317581  -0.257338  0  3.484607  0
N  N200  1  0.31230850  0.85287196  0.01812948  1  -1.20453  0  -0.321157  -0.26856  0  3.334938  0
N  N201  1  0.14744524  0.68799532  0.48198999  1  -1.229064  0  -0.321065  -0.268334  0  3.332336  0
N  N202  1  0.68774472  0.14707836  0.98187459  1  -1.204465  0  -0.321194  -0.268425  0  3.334616  0
N  N203  1  0.85253830  0.31198678  0.51799669  1  -1.2285  0  -0.321176  -0.268704  0  3.332356  0
O  O204  1  0.66363206  0.68492634  0.82589028  1  -1.186845  0  -0.331483  -0.565117  0  2.18063  0
O  O205  1  0.31496877  0.33700941  0.67407832  1  -1.187317  0  -0.332363  -0.565879  0  2.177383  0
O  O206  1  0.33636929  0.31504567  0.17412378  1  -1.186278  0  -0.331686  -0.565193  0  2.18025  0
O  O207  1  0.68504069  0.66306740  0.32592399  1  -1.186771  0  -0.332128  -0.565678  0  2.177719  0
O  O208  1  0.88109726  0.81068211  0.81924534  1  -1.16362  0  -0.332528  -0.554396  0  2.226717  0
O  O209  1  0.18954326  0.11880242  0.68086847  1  -1.165046  0  -0.333241  -0.55507  0  2.224522  0
O  O210  1  0.11888121  0.18931967  0.18076032  1  -1.16339  0  -0.332668  -0.554595  0  2.226742  0
O  O211  1  0.81046304  0.88127526  0.31912501  1  -1.16509  0  -0.333336  -0.555296  0  2.224433  0
O  O212  1  0.76724112  0.83757880  0.91823130  1  -1.223828  0  -0.640242  -0.850612  0  1.836125  0
O  O213  1  0.16224359  0.23290129  0.58182540  1  -1.223895  0  -0.640148  -0.850639  0  1.837027  0
O  O214  1  0.23275355  0.16234121  0.08176486  1  -1.223203  0  -0.640242  -0.850615  0  1.83603  0
O  O215  1  0.83779867  0.76709630  0.41817625  1  -1.223205  0  -0.640021  -0.850426  0  1.837134  0
