# generated using pymatgen
data_CdH4C6(NO2)2
_symmetry_space_group_name_H-M   'P 1'
_cell_length_a   4.46238875
_cell_length_b   10.25600671
_cell_length_c   17.55801552
_cell_angle_alpha   89.99999693
_cell_angle_beta   95.35317379
_cell_angle_gamma   90.00001519
_symmetry_Int_Tables_number   1
_chemical_formula_structural   CdH4C6(NO2)2
_chemical_formula_sum   'Cd4 H16 C24 N8 O16'
_cell_volume   800.06049770
_cell_formula_units_Z   4
loop_
 _symmetry_equiv_pos_site_id
 _symmetry_equiv_pos_as_xyz
  1  'x, y, z'
loop_
 _atom_site_type_symbol
 _atom_site_label
 _atom_site_symmetry_multiplicity
 _atom_site_fract_x
 _atom_site_fract_y
 _atom_site_fract_z
 _atom_site_occupancy
 _atom_site_hle17_bader_spin_density
 _atom_site_hle17_ddec_charge
 _atom_site_hle17_ddec_spin_density
 _atom_site_hle17_ddec_sum_bond_order
 _atom_site_hle17_magmom
 _atom_site_hse06_10hf_bader_spin_density
 _atom_site_hse06_10hf_ddec_charge
 _atom_site_hse06_10hf_ddec_spin_density
 _atom_site_hse06_10hf_ddec_sum_bond_order
 _atom_site_hse06_10hf_magmom
 _atom_site_hse06_bader_spin_density
 _atom_site_hse06_ddec_charge
 _atom_site_hse06_ddec_spin_density
 _atom_site_hse06_ddec_sum_bond_order
 _atom_site_hse06_magmom
 _atom_site_pbe_bader_spin_density
 _atom_site_pbe_cm5_charge
 _atom_site_pbe_ddec_charge
 _atom_site_pbe_ddec_spin_density
 _atom_site_pbe_ddec_sum_bond_order
 _atom_site_pbe_magmom
Cd  Cd0  1  0.31816614  0.54410846  0.40201103  1  0  1.29342  0  1.608428  0  0  1.122259  0  2.065905  0  0  1.176852  0  2.007417  0  0  0.812986  1.082947  0  2.10641  0
Cd  Cd1  1  0.18183246  0.04410879  0.09798917  1  0  1.29344  0  1.608414  0  0  1.122273  0  2.065903  0  0  1.176864  0  2.007415  0  0  0.813  1.082964  0  2.106419  0
Cd  Cd2  1  0.68183326  0.45589187  0.59798886  1  0  1.293409  0  1.608431  0  0  1.122236  0  2.065914  0  0  1.176829  0  2.007427  0  0  0.812971  1.082922  0  2.106412  0
Cd  Cd3  1  0.81816694  0.95589154  0.90201129  1  0  1.293442  0  1.608421  0  0  1.122271  0  2.065902  0  0  1.176863  0  2.007415  0  0  0.812992  1.082961  0  2.106404  0
H  H4  1  0.73565799  0.16825166  0.51250709  1  0  0.165285  0  0.915913  0  0  0.173145  0  0.977713  0  0  0.176435  0  0.975524  0  0  0.125324  0.170691  0  0.979367  0
H  H5  1  0.76434204  0.66825132  0.98749306  1  0  0.165307  0  0.915885  0  0  0.173164  0  0.97769  0  0  0.176453  0  0.975502  0  0  0.12533  0.170708  0  0.979344  0
H  H6  1  0.26434367  0.83174964  0.48749342  1  0  0.165309  0  0.915885  0  0  0.173155  0  0.977702  0  0  0.176444  0  0.975513  0  0  0.125343  0.170698  0  0.979356  0
H  H7  1  0.23565736  0.33174902  0.01250626  1  0  0.165297  0  0.915939  0  0  0.173158  0  0.97773  0  0  0.176447  0  0.975542  0  0  0.125333  0.170698  0  0.979393  0
H  H8  1  0.50798957  0.89758328  0.32639988  1  0  0.165363  0  0.915161  0  0  0.171389  0  0.979622  0  0  0.174325  0  0.977918  0  0  0.124271  0.169333  0  0.980908  0
H  H9  1  0.99200969  0.39758267  0.17359970  1  0  0.165346  0  0.915152  0  0  0.171375  0  0.979615  0  0  0.174311  0  0.977912  0  0  0.124264  0.169321  0  0.980897  0
H  H10  1  0.49200983  0.10241705  0.67360001  1  0  0.165335  0  0.915131  0  0  0.171354  0  0.979615  0  0  0.174291  0  0.977911  0  0  0.124249  0.1693  0  0.980898  0
H  H11  1  0.00799197  0.60241669  0.82640024  1  0  0.165354  0  0.915166  0  0  0.171382  0  0.979629  0  0  0.174319  0  0.977926  0  0  0.124265  0.169324  0  0.98091  0
H  H12  1  0.46717724  0.77338289  0.25704527  1  0  0.175068  0  0.895605  0  0  0.186401  0  0.950257  0  0  0.189999  0  0.947968  0  0  0.130781  0.183891  0  0.951971  0
H  H13  1  0.03282150  0.27338320  0.24295435  1  0  0.175047  0  0.895614  0  0  0.186384  0  0.950269  0  0  0.189981  0  0.947981  0  0  0.130776  0.183871  0  0.951992  0
H  H14  1  0.53282216  0.22661744  0.74295518  1  0  0.175063  0  0.895594  0  0  0.186404  0  0.95025  0  0  0.190002  0  0.947962  0  0  0.130779  0.183893  0  0.951968  0
H  H15  1  0.96717565  0.72661714  0.75704548  1  0  0.175066  0  0.89558  0  0  0.186407  0  0.95023  0  0  0.190004  0  0.947943  0  0  0.130795  0.183896  0  0.951949  0
H  H16  1  0.53148280  0.18138055  0.42200412  1  0  0.167295  0  0.913372  0  0  0.17602  0  0.972029  0  0  0.179203  0  0.970495  0  0  0.126178  0.173663  0  0.973278  0
H  H17  1  0.96851633  0.68138124  0.07799660  1  0  0.16735  0  0.913286  0  0  0.176071  0  0.971947  0  0  0.179254  0  0.970415  0  0  0.126203  0.173712  0  0.973192  0
H  H18  1  0.46851660  0.81861881  0.57799691  1  0  0.167331  0  0.913318  0  0  0.17605  0  0.971979  0  0  0.179232  0  0.970447  0  0  0.126188  0.173693  0  0.973227  0
H  H19  1  0.03148308  0.31861910  0.92200329  1  0  0.167371  0  0.913279  0  0  0.176085  0  0.971944  0  0  0.179268  0  0.970411  0  0  0.126205  0.173731  0  0.973182  0
C  C20  1  0.87496028  0.32645945  0.44178410  1  0  0.755377  0  3.824985  0  0  0.700098  0  4.125681  0  0  0.735417  0  4.118321  0  0  0.228135  0.676031  0  4.129791  0
C  C21  1  0.62504119  0.82645815  0.05821610  1  0  0.755367  0  3.824904  0  0  0.700073  0  4.125609  0  0  0.735391  0  4.11825  0  0  0.228118  0.676012  0  4.12971  0
C  C22  1  0.12504137  0.67354186  0.55821584  1  0  0.755367  0  3.824897  0  0  0.700096  0  4.125583  0  0  0.735416  0  4.118222  0  0  0.228117  0.676037  0  4.129678  0
C  C23  1  0.37495821  0.17354218  0.94178436  1  0  0.755282  0  3.825135  0  0  0.700061  0  4.125735  0  0  0.735381  0  4.118375  0  0  0.228117  0.67599  0  4.129849  0
C  C24  1  0.76003626  0.18742970  0.45167512  1  0  -0.347086  0  3.717221  0  0  -0.371699  0  3.939379  0  0  -0.379124  0  3.943276  0  0  -0.133805  -0.366518  0  3.936735  0
C  C25  1  0.73996062  0.68743036  0.04832498  1  0  -0.347151  0  3.717167  0  0  -0.371756  0  3.939319  0  0  -0.379179  0  3.943217  0  0  -0.133819  -0.36658  0  3.936677  0
C  C26  1  0.23996540  0.81256966  0.54832483  1  0  -0.347175  0  3.717152  0  0  -0.371775  0  3.939312  0  0  -0.379198  0  3.943209  0  0  -0.133843  -0.366597  0  3.936674  0
C  C27  1  0.26003877  0.31256997  0.95167604  1  0  -0.347158  0  3.717305  0  0  -0.37177  0  3.939427  0  0  -0.379195  0  3.943328  0  0  -0.1338  -0.366585  0  3.93678  0
C  C28  1  0.95152751  0.08897131  0.42244451  1  0  0.386933  0  3.679247  0  0  0.371157  0  3.955427  0  0  0.384247  0  3.971048  0  0  0.202007  0.362173  0  3.945148  0
C  C29  1  0.54847157  0.58897098  0.07755564  1  0  0.386919  0  3.679337  0  0  0.371146  0  3.955514  0  0  0.384235  0  3.971137  0  0  0.201993  0.362159  0  3.945234  0
C  C30  1  0.04847189  0.91102902  0.57755595  1  0  0.386967  0  3.679299  0  0  0.371192  0  3.955472  0  0  0.384282  0  3.971094  0  0  0.20201  0.362205  0  3.945196  0
C  C31  1  0.45152783  0.41102838  0.92244481  1  0  0.386979  0  3.679321  0  0  0.371191  0  3.955516  0  0  0.384281  0  3.97114  0  0  0.201991  0.362201  0  3.945222  0
C  C32  1  0.81536431  0.73287299  0.34692355  1  0  0.730139  0  3.871203  0  0  0.677948  0  4.176837  0  0  0.712072  0  4.171208  0  0  0.216443  0.654834  0  4.179294  0
C  C33  1  0.68463485  0.23287332  0.15307603  1  0  0.730033  0  3.871241  0  0  0.677864  0  4.176848  0  0  0.711988  0  4.171222  0  0  0.21641  0.654763  0  4.179292  0
C  C34  1  0.18463510  0.26712734  0.65307633  1  0  0.730022  0  3.871394  0  0  0.677857  0  4.177005  0  0  0.711982  0  4.171376  0  0  0.216401  0.654747  0  4.179456  0
C  C35  1  0.31536455  0.76712701  0.84692386  1  0  0.730057  0  3.871221  0  0  0.677881  0  4.176841  0  0  0.712005  0  4.171214  0  0  0.216417  0.65477  0  4.179297  0
C  C36  1  0.63581151  0.82982592  0.29326781  1  0  -0.357626  0  3.715178  0  0  -0.383006  0  3.943758  0  0  -0.391034  0  3.947006  0  0  -0.13406  -0.377333  0  3.941293  0
C  C37  1  0.86418996  0.32982529  0.20673240  1  0  -0.357533  0  3.715115  0  0  -0.382935  0  3.94371  0  0  -0.390963  0  3.946958  0  0  -0.134025  -0.377261  0  3.941239  0
C  C38  1  0.36418789  0.17017441  0.70673265  1  0  -0.357542  0  3.715112  0  0  -0.382949  0  3.943729  0  0  -0.390979  0  3.946977  0  0  -0.134006  -0.377279  0  3.941267  0
C  C39  1  0.13581169  0.67017407  0.79326812  1  0  -0.357583  0  3.715133  0  0  -0.382985  0  3.943736  0  0  -0.391014  0  3.946984  0  0  -0.13406  -0.377311  0  3.941268  0
C  C40  1  0.82127007  0.90092963  0.24466530  1  0  0.460803  0  3.648919  0  0  0.432619  0  3.929947  0  0  0.449973  0  3.942992  0  0  0.229922  0.420458  0  3.92149  0
C  C41  1  0.67872919  0.40092898  0.25533484  1  0  0.460774  0  3.648888  0  0  0.432592  0  3.92992  0  0  0.449947  0  3.942965  0  0  0.229897  0.420427  0  3.921454  0
C  C42  1  0.17872933  0.09907070  0.75533515  1  0  0.460834  0  3.648869  0  0  0.432657  0  3.929915  0  0  0.450012  0  3.942959  0  0  0.229919  0.420492  0  3.921461  0
C  C43  1  0.32127021  0.59907136  0.74466504  1  0  0.460824  0  3.648939  0  0  0.432639  0  3.92997  0  0  0.449994  0  3.943014  0  0  0.229944  0.420472  0  3.921508  0
N  N44  1  0.11028082  0.01118465  0.39918901  1  0  -0.443665  0  2.603898  0  0  -0.41682  0  2.827981  0  0  -0.429474  0  2.839907  0  0  -0.310049  -0.408537  0  2.820447  0
N  N45  1  0.38971776  0.51118436  0.10081062  1  0  -0.443647  0  2.604003  0  0  -0.416805  0  2.828092  0  0  -0.429459  0  2.840018  0  0  -0.310047  -0.408527  0  2.820557  0
N  N46  1  0.88971858  0.98881568  0.60081088  1  0  -0.443668  0  2.603983  0  0  -0.416824  0  2.828066  0  0  -0.429479  0  2.839995  0  0  -0.310051  -0.408547  0  2.820535  0
N  N47  1  0.61028164  0.48881500  0.89918926  1  0  -0.443715  0  2.603942  0  0  -0.416862  0  2.82803  0  0  -0.429519  0  2.83996  0  0  -0.310074  -0.40858  0  2.820483  0
N  N48  1  0.97208229  0.95820437  0.20579847  1  0  -0.487583  0  2.770554  0  0  -0.44072  0  3.041459  0  0  -0.459524  0  3.047765  0  0  -0.327226  -0.428065  0  3.037625  0
N  N49  1  0.52791700  0.45820370  0.29420168  1  0  -0.487578  0  2.770554  0  0  -0.440706  0  3.041446  0  0  -0.45951  0  3.047753  0  0  -0.327218  -0.428047  0  3.037601  0
N  N50  1  0.02791711  0.04179596  0.79420199  1  0  -0.487617  0  2.770533  0  0  -0.440746  0  3.041432  0  0  -0.45955  0  3.047736  0  0  -0.327232  -0.428086  0  3.037593  0
N  N51  1  0.47208240  0.54179664  0.70579821  1  0  -0.487598  0  2.770601  0  0  -0.440728  0  3.041498  0  0  -0.459531  0  3.047804  0  0  -0.327248  -0.428073  0  3.037656  0
O  O52  1  0.72806210  0.41756995  0.47105034  1  0  -0.714004  0  2.127289  0  0  -0.640623  0  2.415363  0  0  -0.670893  0  2.399023  0  0  -0.337751  -0.619241  0  2.425595  0
O  O53  1  0.77193943  0.91757062  0.02894929  1  0  -0.714028  0  2.127241  0  0  -0.640619  0  2.415292  0  0  -0.670891  0  2.398953  0  0  -0.337755  -0.619245  0  2.425526  0
O  O54  1  0.27193731  0.58242941  0.52894898  1  0  -0.714002  0  2.12723  0  0  -0.640621  0  2.415289  0  0  -0.670893  0  2.398948  0  0  -0.33775  -0.61926  0  2.425543  0
O  O55  1  0.22806223  0.08242971  0.97105122  1  0  -0.714  0  2.12735  0  0  -0.640638  0  2.415387  0  0  -0.67091  0  2.399048  0  0  -0.337777  -0.619259  0  2.425627  0
O  O56  1  0.09624089  0.34313061  0.40325481  1  0  -0.630378  0  2.021763  0  0  -0.56406  0  2.272532  0  0  -0.594884  0  2.264089  0  0  -0.302567  -0.542449  0  2.277634  0
O  O57  1  0.40375789  0.84313227  0.09674596  1  0  -0.630392  0  2.021727  0  0  -0.564069  0  2.272496  0  0  -0.594892  0  2.264053  0  0  -0.302571  -0.542457  0  2.277592  0
O  O58  1  0.90375851  0.65686874  0.59674565  1  0  -0.630383  0  2.021756  0  0  -0.564054  0  2.272495  0  0  -0.594877  0  2.264052  0  0  -0.302553  -0.542441  0  2.277587  0
O  O59  1  0.59624151  0.15686904  0.90325450  1  0  -0.630327  0  2.021794  0  0  -0.564015  0  2.272506  0  0  -0.594838  0  2.264063  0  0  -0.302531  -0.542395  0  2.277602  0
O  O60  1  0.05816296  0.68885972  0.32438361  1  0  -0.655917  0  2.015618  0  0  -0.589729  0  2.270457  0  0  -0.621058  0  2.261215  0  0  -0.318515  -0.567575  0  2.275898  0
O  O61  1  0.44183573  0.18885910  0.17561602  1  0  -0.655873  0  2.015628  0  0  -0.589679  0  2.270441  0  0  -0.621005  0  2.261194  0  0  -0.318489  -0.567529  0  2.275885  0
O  O62  1  0.94183870  0.31114062  0.67561633  1  0  -0.655876  0  2.015717  0  0  -0.589681  0  2.270528  0  0  -0.621011  0  2.261289  0  0  -0.318494  -0.567529  0  2.275968  0
O  O63  1  0.55816367  0.81114123  0.82438386  1  0  -0.655873  0  2.015616  0  0  -0.589678  0  2.27044  0  0  -0.621006  0  2.261195  0  0  -0.318486  -0.567527  0  2.275885  0
O  O64  1  0.70479517  0.70142312  0.40792046  1  0  -0.663422  0  1.990485  0  0  -0.604385  0  2.246902  0  0  -0.632538  0  2.236564  0  0  -0.332068  -0.584294  0  2.252972  0
O  O65  1  0.79520397  0.20142347  0.09207913  1  0  -0.663384  0  1.990494  0  0  -0.604368  0  2.24692  0  0  -0.632519  0  2.236575  0  0  -0.332063  -0.584284  0  2.252992  0
O  O66  1  0.29520648  0.29857624  0.59207949  1  0  -0.663384  0  1.990546  0  0  -0.604355  0  2.246949  0  0  -0.632508  0  2.23661  0  0  -0.332058  -0.584271  0  2.253017  0
O  O67  1  0.20479543  0.79857687  0.90792133  1  0  -0.66341  0  1.990475  0  0  -0.604394  0  2.24691  0  0  -0.632544  0  2.236562  0  0  -0.332081  -0.584309  0  2.25298  0
