# generated using pymatgen
data_Al2H6C16S2N2O15
_symmetry_space_group_name_H-M   'P 1'
_cell_length_a   6.82378080
_cell_length_b   11.22433600
_cell_length_c   12.80441583
_cell_angle_alpha   63.22936480
_cell_angle_beta   70.65238467
_cell_angle_gamma   70.77332534
_symmetry_Int_Tables_number   1
_chemical_formula_structural   Al2H6C16S2N2O15
_chemical_formula_sum   'Al2 H6 C16 S2 N2 O15'
_cell_volume   807.05709224
_cell_formula_units_Z   1
loop_
 _symmetry_equiv_pos_site_id
 _symmetry_equiv_pos_as_xyz
  1  'x, y, z'
loop_
 _atom_site_type_symbol
 _atom_site_label
 _atom_site_symmetry_multiplicity
 _atom_site_fract_x
 _atom_site_fract_y
 _atom_site_fract_z
 _atom_site_occupancy
 _atom_site_pbe_bader_charge
 _atom_site_pbe_bader_spin_density
 _atom_site_pbe_cm5_charge
 _atom_site_pbe_ddec_charge
 _atom_site_pbe_ddec_spin_density
 _atom_site_pbe_ddec_sum_bond_order
 _atom_site_pbe_magmom
Al  Al0  1  0.50103743  0.50044459  0.49787665  1  2.507163  0  0.402699  1.637796  0  2.555249  0
Al  Al1  1  0.00034656  0.49945231  0.50165847  1  2.505796  0  0.398063  1.645623  0  2.540548  0
H  H2  1  0.22054069  0.67335653  0.39646416  1  0.651492  0  0.336304  0.417561  0  0.884656  0
H  H3  1  0.71743881  0.38040366  0.64659333  1  0.610815  0  0.346649  0.431558  0  0.855375  0
H  H4  1  0.77011251  0.12570634  0.46555675  1  0.209924  0  0.1202  0.126802  0  1.085282  0
H  H5  1  0.23056038  0.87680238  0.53247218  1  0.181633  0  0.118683  0.124726  0  1.085665  0
H  H6  1  0.61557912  0.56254847  0.14460618  1  0.120074  0  0.121521  0.147528  0  0.980391  0
H  H7  1  0.51860314  0.43631154  0.89913590  1  0.61785  0  0.306832  0.327311  0  0.971501  0
C  C8  1  0.86665314  0.53061370  0.29651998  1  1.614808  0  0.264583  0.655919  0  4.131436  0
C  C9  1  0.62556053  0.72919848  0.49167202  1  1.619307  0  0.274067  0.651952  0  4.083193  0
C  C10  1  0.14220406  0.46631294  0.70448195  1  1.596279  0  0.258149  0.672086  0  4.131436  0
C  C11  1  0.37557934  0.27421250  0.50382893  1  1.631633  0  0.275283  0.646484  0  4.08146  0
C  C12  1  0.56173013  0.86741230  0.49835774  1  0.038456  0  0.007268  -0.051016  0  3.910502  0
C  C13  1  0.43881295  0.13535602  0.49847758  1  -0.034229  0  0.009585  -0.048341  0  3.908042  0
C  C14  1  0.70967228  0.93901406  0.48222368  1  0.209925  0  0.093332  0.064025  0  3.937185  0
C  C15  1  0.29062113  0.06346679  0.51561451  1  0.241099  0  0.094913  0.065322  0  3.940462  0
C  C16  1  0.65288094  0.07021772  0.48058551  1  0.060711  0  -0.067834  -0.124828  0  3.915264  0
C  C17  1  0.34797753  0.93235149  0.51684351  1  0.034445  0  -0.07002  -0.127342  0  3.922629  0
C  C18  1  0.23187733  0.46238013  0.88522668  1  0.624959  0  0.093016  0.293678  0  4.067399  0
C  C19  1  0.78708820  0.53881423  0.11310398  1  0.074838  0  -0.083466  -0.129362  0  3.948527  0
C  C20  1  0.09074243  0.47737547  0.81980578  1  -0.109718  0  -0.035899  -0.242345  0  3.914788  0
C  C21  1  0.92653145  0.52220737  0.17851388  1  -0.182448  0  -0.011407  -0.102638  0  3.94135  0
C  C22  1  0.89803675  0.51874641  0.00595660  1  -0.134366  0  -0.019802  0.014843  0  4.100903  0
C  C23  1  0.12035555  0.48594132  0.99204739  1  -0.190519  0  -0.033829  -0.150303  0  4.080306  0
S  S24  1  0.82498451  0.52455470  0.88684690  1  0.222251  0  0.079203  0.101679  0  2.852891  0
S  S25  1  0.19276400  0.48102323  0.11110034  1  0.249081  0  0.088695  0.13814  0  2.770191  0
N  N26  1  0.93496245  0.87064493  0.47673353  1  0.400462  0  0.061391  0.519491  0  4.21705  0
N  N27  1  0.06383150  0.12872890  0.52330948  1  0.407817  0  0.060781  0.518429  0  4.221669  0
O  O28  1  0.66753537  0.55685826  0.34034345  1  -1.269877  0  -0.235034  -0.588304  0  2.331747  0
O  O29  1  0.82478033  0.68061396  0.46957430  1  -1.25564  0  -0.231924  -0.601534  0  2.403354  0
O  O30  1  0.98662697  0.48391481  0.66011059  1  -1.260814  0  -0.247952  -0.607809  0  2.313896  0
O  O31  1  0.52348841  0.33127569  0.48377861  1  -1.22772  0  -0.215087  -0.549877  0  2.342091  0
O  O32  1  0.33953444  0.43918777  0.65643552  1  -1.261589  0  -0.241427  -0.600599  0  2.353759  0
O  O33  1  0.17688343  0.32096613  0.53074182  1  -1.255082  0  -0.226079  -0.586793  0  2.392457  0
O  O34  1  0.01613309  0.51163367  0.34479840  1  -1.243627  0  -0.234094  -0.581178  0  2.337469  0
O  O35  1  0.47775109  0.67508607  0.50571560  1  -1.235119  0  -0.221925  -0.567426  0  2.350543  0
O  O36  1  0.24582080  0.57499206  0.44076938  1  -1.456531  0  -0.451772  -0.983209  0  2.141038  0
O  O37  1  0.75109318  0.42865964  0.56017998  1  -1.409285  0  -0.448884  -0.980903  0  2.129533  0
O  O38  1  0.98202846  0.79680820  0.57521381  1  -0.438644  0  -0.092002  -0.286554  0  1.985595  0
O  O39  1  0.06085144  0.89583401  0.37812864  1  -0.449247  0  -0.112126  -0.309189  0  1.889798  0
O  O40  1  0.93983041  0.09462148  0.62158303  1  -0.427958  0  -0.106325  -0.291606  0  1.881587  0
O  O41  1  0.01512038  0.20637566  0.42562360  1  -0.451103  0  -0.098804  -0.296198  0  1.984605  0
O  O42  1  0.44524880  0.42894010  0.84887106  1  -1.137304  0  -0.325526  -0.393599  0  2.341632  0
