# generated using pymatgen
data_ZnH2C7(NO3)2
_symmetry_space_group_name_H-M   'P 1'
_cell_length_a   7.14479578
_cell_length_b   7.14479198
_cell_length_c   19.87014870
_cell_angle_alpha   90.00003027
_cell_angle_beta   90.00000632
_cell_angle_gamma   90.00008347
_symmetry_Int_Tables_number   1
_chemical_formula_structural   ZnH2C7(NO3)2
_chemical_formula_sum   'Zn4 H8 C28 N8 O24'
_cell_volume   1014.33293284
_cell_formula_units_Z   4
loop_
 _symmetry_equiv_pos_site_id
 _symmetry_equiv_pos_as_xyz
  1  'x, y, z'
loop_
 _atom_site_type_symbol
 _atom_site_label
 _atom_site_symmetry_multiplicity
 _atom_site_fract_x
 _atom_site_fract_y
 _atom_site_fract_z
 _atom_site_occupancy
 _atom_site_pbe_bader_charge
 _atom_site_pbe_bader_spin_density
 _atom_site_pbe_cm5_charge
 _atom_site_pbe_ddec_charge
 _atom_site_pbe_ddec_spin_density
 _atom_site_pbe_ddec_sum_bond_order
 _atom_site_pbe_magmom
Zn  Zn0  1  0.50000077  0.50000146  0.72168615  1  1.283745  0  0.691335  0.875956  0  2.274709  0
Zn  Zn1  1  0.00000143  0.00000016  0.22168631  1  1.283741  0  0.69131  0.875925  0  2.27477  0
Zn  Zn2  1  0.00000152  0.00000058  0.77831426  1  1.283749  0  0.6913  0.875916  0  2.274771  0
Zn  Zn3  1  0.50000070  0.49999973  0.27831403  1  1.283738  0  0.691306  0.875909  0  2.274772  0
H  H4  1  0.21544797  0.21544701  0.54978252  1  0.149671  0  0.108139  0.111908  0  1.073372  0
H  H5  1  0.78455352  0.78455006  0.54978208  1  0.141742  0  0.108125  0.111888  0  1.073344  0
H  H6  1  0.28455310  0.71544725  0.04978229  1  0.149676  0  0.108136  0.111906  0  1.073359  0
H  H7  1  0.71544824  0.28455188  0.04978226  1  0.14175  0  0.108135  0.111889  0  1.073358  0
H  H8  1  0.28455184  0.71544791  0.95021843  1  0.141743  0  0.108118  0.111915  0  1.073358  0
H  H9  1  0.71544838  0.28455255  0.95021689  1  0.149682  0  0.108151  0.111968  0  1.073323  0
H  H10  1  0.21544935  0.21544693  0.45021809  1  0.141738  0  0.108132  0.111892  0  1.073369  0
H  H11  1  0.78455211  0.78455139  0.45021665  1  0.149677  0  0.108128  0.111889  0  1.073381  0
C  C12  1  0.23483694  0.23483887  0.68896820  1  1.557987  0  0.217731  0.556194  0  4.192899  0
C  C13  1  0.76516179  0.76516120  0.68896725  1  1.557963  0  0.217787  0.55633  0  4.192693  0
C  C14  1  0.26516420  0.73483908  0.18896746  1  1.557964  0  0.217803  0.556319  0  4.192799  0
C  C15  1  0.73483998  0.26516445  0.18896793  1  1.55796  0  0.217787  0.556295  0  4.192719  0
C  C16  1  0.26516149  0.73483954  0.81103326  1  1.557973  0  0.217764  0.556298  0  4.192673  0
C  C17  1  0.73483868  0.26516491  0.81103172  1  1.557976  0  0.217754  0.556235  0  4.192865  0
C  C18  1  0.23484108  0.23483859  0.31103293  1  1.557971  0  0.217841  0.556347  0  4.192641  0
C  C19  1  0.76516173  0.76516232  0.31103198  1  1.557964  0  0.217691  0.556177  0  4.193065  0
C  C20  1  0.11483622  0.11483386  0.64383616  1  0.563934  0  0.128534  0.139049  0  3.942083  0
C  C21  1  0.88516250  0.88516475  0.64383675  1  0.564046  0  0.128412  0.138702  0  3.942093  0
C  C22  1  0.38516473  0.61483564  0.14383643  1  0.563933  0  0.128468  0.13885  0  3.942  0
C  C23  1  0.61483663  0.38516362  0.14383692  1  0.564012  0  0.128498  0.138866  0  3.941947  0
C  C24  1  0.38516344  0.61483477  0.85616376  1  0.564044  0  0.128394  0.138739  0  3.94212  0
C  C25  1  0.61483394  0.38516415  0.85616375  1  0.563901  0  0.1285  0.139  0  3.942001  0
C  C26  1  0.11483757  0.11483644  0.35616393  1  0.56402  0  0.128533  0.139022  0  3.942022  0
C  C27  1  0.88516386  0.88516454  0.35616251  1  0.563983  0  0.128447  0.138841  0  3.94201  0
C  C28  1  0.11907986  0.11908026  0.57390614  1  -0.036294  0  -0.062187  -0.146763  0  3.853776  0
C  C29  1  0.88092024  0.88091825  0.57390522  1  -0.03651  0  -0.062102  -0.146587  0  3.853839  0
C  C30  1  0.38091968  0.61907924  0.07390590  1  -0.036294  0  -0.062165  -0.146703  0  3.853724  0
C  C31  1  0.61908166  0.38091992  0.07390589  1  -0.036498  0  -0.062142  -0.146615  0  3.853843  0
C  C32  1  0.38091981  0.61907987  0.92609480  1  -0.036568  0  -0.062179  -0.146761  0  3.853775  0
C  C33  1  0.61908040  0.38092056  0.92609327  1  -0.036265  0  -0.062247  -0.146897  0  3.853982  0
C  C34  1  0.11908263  0.11907875  0.42609446  1  -0.036535  0  -0.062205  -0.14677  0  3.853775  0
C  C35  1  0.88092162  0.88091954  0.42609404  1  -0.036237  0  -0.062106  -0.146598  0  3.853852  0
C  C36  1  0.00000081  0.99999732  0.53728495  1  0.099412  0  0.015709  0.103024  0  3.948269  0
C  C37  1  0.50000067  0.49999955  0.03728513  1  0.099407  0  0.015669  0.103004  0  3.94824  0
C  C38  1  0.50000081  0.49999884  0.96271555  1  -0.054408  0  0.015844  0.103178  0  3.948116  0
C  C39  1  0.00000080  0.99999727  0.46271530  1  -0.054455  0  0.015705  0.103012  0  3.948274  0
N  N40  1  0.00000150  0.00000050  0.67698286  1  -1.225311  0  -0.317351  -0.260965  0  3.653685  0
N  N41  1  0.50000069  0.50000106  0.17698313  1  -1.225313  0  -0.31731  -0.260878  0  3.65342  0
N  N42  1  0.50000079  0.50000014  0.82301705  1  -1.22532  0  -0.317314  -0.260916  0  3.653558  0
N  N43  1  0.00000285  0.00000024  0.32301721  1  -1.225342  0  -0.31734  -0.261005  0  3.653649  0
N  N44  1  0.40707303  0.59291366  0.50000035  1  0.744403  0  0.12164  0.417607  0  4.107163  0
N  N45  1  0.59291445  0.40707074  0.50000033  1  0.798789  0  0.121551  0.417368  0  4.107403  0
N  N46  1  0.90708063  0.90708030  0.99999967  1  0.744401  0  0.121462  0.417429  0  4.107378  0
N  N47  1  0.09292365  0.09292370  0.00000001  1  0.798812  0  0.121644  0.417786  0  4.107263  0
O  O48  1  0.34742946  0.34743003  0.65923265  1  -1.150334  0  -0.320332  -0.523536  0  2.285949  0
O  O49  1  0.65256926  0.65257000  0.65923218  1  -1.150368  0  -0.320346  -0.52356  0  2.285859  0
O  O50  1  0.15257183  0.84743148  0.15923291  1  -1.150337  0  -0.320326  -0.523549  0  2.285956  0
O  O51  1  0.84743233  0.15257201  0.15923286  1  -1.150317  0  -0.320317  -0.523537  0  2.285855  0
O  O52  1  0.15256914  0.84743338  0.84076782  1  -1.150401  0  -0.320358  -0.52358  0  2.285822  0
O  O53  1  0.84742964  0.15257251  0.84076727  1  -1.150297  0  -0.320319  -0.523528  0  2.28599  0
O  O54  1  0.34743221  0.34743119  0.34076800  1  -1.15041  0  -0.320373  -0.523613  0  2.285865  0
O  O55  1  0.65257061  0.65257116  0.34076703  1  -1.150308  0  -0.320308  -0.523497  0  2.286035  0
O  O56  1  0.21613241  0.21613297  0.75163255  1  -1.119882  0  -0.299146  -0.522308  0  2.208419  0
O  O57  1  0.78386774  0.78386440  0.75163211  1  -1.119838  0  -0.299214  -0.522372  0  2.208358  0
O  O58  1  0.28387012  0.71613741  0.25163231  1  -1.119881  0  -0.299229  -0.52238  0  2.208376  0
O  O59  1  0.71613688  0.28387041  0.25163228  1  -1.119896  0  -0.299237  -0.522383  0  2.208375  0
O  O60  1  0.28386599  0.71613638  0.74836840  1  -1.119841  0  -0.299169  -0.522314  0  2.208385  0
O  O61  1  0.71613416  0.28387078  0.74836736  1  -1.119912  0  -0.299177  -0.522328  0  2.208344  0
O  O62  1  0.21613653  0.21613540  0.24836857  1  -1.119824  0  -0.299231  -0.522383  0  2.208404  0
O  O63  1  0.78386626  0.78386682  0.24836713  1  -1.119885  0  -0.299146  -0.522303  0  2.20849  0
O  O64  1  0.47021980  0.74915338  0.49999986  1  -0.387035  0  -0.028373  -0.182268  0  2.069922  0
O  O65  1  0.52976908  0.25082821  0.50000032  1  -0.387568  0  -0.028277  -0.182134  0  2.070372  0
O  O66  1  0.75083128  0.97022688  0.99999866  1  -0.387411  0  -0.028336  -0.182297  0  2.070167  0
O  O67  1  0.24916040  0.02977292  0.00000001  1  -0.387261  0  -0.028335  -0.182317  0  2.070222  0
O  O68  1  0.02977990  0.24916893  0.00000103  1  -0.387402  0  -0.028325  -0.182358  0  2.070172  0
O  O69  1  0.97022562  0.75084552  0.00000009  1  -0.387154  0  -0.028268  -0.182172  0  2.070252  0
O  O70  1  0.74915549  0.47022034  0.49999984  1  -0.387065  0  -0.028364  -0.1822  0  2.069984  0
O  O71  1  0.25083059  0.52976685  0.50000034  1  -0.387534  0  -0.028332  -0.182256  0  2.070256  0
