# generated using pymatgen
data_CuH15C11(NO)3
_symmetry_space_group_name_H-M   'P 1'
_cell_length_a   9.90866092
_cell_length_b   11.73549055
_cell_length_c   26.01576402
_cell_angle_alpha   89.99985380
_cell_angle_beta   90.01316576
_cell_angle_gamma   89.99993936
_symmetry_Int_Tables_number   1
_chemical_formula_structural   CuH15C11(NO)3
_chemical_formula_sum   'Cu8 H120 C88 N24 O24'
_cell_volume   3025.19092023
_cell_formula_units_Z   8
loop_
 _symmetry_equiv_pos_site_id
 _symmetry_equiv_pos_as_xyz
  1  'x, y, z'
loop_
 _atom_site_type_symbol
 _atom_site_label
 _atom_site_symmetry_multiplicity
 _atom_site_fract_x
 _atom_site_fract_y
 _atom_site_fract_z
 _atom_site_occupancy
 _atom_site_pbe_bader_charge
 _atom_site_pbe_bader_spin_density
 _atom_site_pbe_cm5_charge
 _atom_site_pbe_ddec_charge
 _atom_site_pbe_ddec_spin_density
 _atom_site_pbe_ddec_sum_bond_order
 _atom_site_pbe_magmom
Cu  Cu0  1  0.79928270  0.37496926  0.83384920  1  1.028012  -0.441652  0.739722  0.723347  -0.593436  2.399105  -0.44
Cu  Cu1  1  0.79780238  0.62535863  0.16622839  1  1.053397  0.570172  0.755489  0.748778  0.729895  2.391732  0.568
Cu  Cu2  1  0.20071901  0.87497807  0.66615477  1  1.028127  -0.441651  0.739599  0.723054  -0.593423  2.399056  -0.44
Cu  Cu3  1  0.20219860  0.12536313  0.33376795  1  1.053386  0.570168  0.755368  0.748605  0.729887  2.391887  0.568
Cu  Cu4  1  0.69184665  0.61784842  0.66801106  1  1.035451  0.443143  0.738437  0.733097  0.569594  2.382677  0.441
Cu  Cu5  1  0.69254571  0.38285961  0.33202993  1  1.059333  0.574273  0.751162  0.758046  0.738835  2.363055  0.572
Cu  Cu6  1  0.30815136  0.11785624  0.83199398  1  1.035152  0.443125  0.738521  0.733154  0.569572  2.382839  0.441
Cu  Cu7  1  0.30744990  0.88286406  0.16796688  1  1.059369  0.57427  0.751206  0.758169  0.738828  2.362975  0.572
H  H8  1  0.21632719  0.53304772  0.67418425  1  0.019001  7e-06  0.08121  0.125207  -2.6e-05  1.041307  0.0
H  H9  1  0.21657630  0.46735141  0.32571480  1  0.019078  0.000587  0.080482  0.124187  0.000251  1.04194  0.0
H  H10  1  0.78366587  0.03305687  0.82581705  1  0.019207  7e-06  0.081179  0.125136  -2.6e-05  1.041344  0.0
H  H11  1  0.78342525  0.96734688  0.17428345  1  0.019078  0.000587  0.080485  0.124205  0.000251  1.041932  0.0
H  H12  1  0.04299861  0.49980848  0.66605853  1  0.085577  0.000163  0.082087  0.131561  0.000183  1.044219  0.0
H  H13  1  0.04285892  0.49979238  0.33361393  1  0.088062  0.00049  0.081476  0.131033  0.000356  1.043897  0.0
H  H14  1  0.95699992  0.99981567  0.83394299  1  0.085832  0.000163  0.082092  0.131575  0.000183  1.044132  0.0
H  H15  1  0.95714562  0.99978944  0.16638390  1  0.088037  0.00049  0.081448  0.131027  0.000356  1.04393  0.0
H  H16  1  0.16483210  0.38827836  0.66806041  1  -0.01738  2e-06  0.074456  0.094584  -1.1e-05  1.037727  0.0
H  H17  1  0.16386757  0.61182344  0.33171570  1  -0.01307  5.6e-05  0.074261  0.094222  2e-06  1.038048  0.0
H  H18  1  0.83516355  0.88828482  0.83194278  1  -0.017337  2e-06  0.074449  0.094543  -1.1e-05  1.037834  0.0
H  H19  1  0.83613544  0.11181723  0.16828065  1  -0.013008  5.6e-05  0.074245  0.094209  2e-06  1.037989  0.0
H  H20  1  0.21872107  0.42977102  0.75761191  1  0.054147  -0.001042  0.094223  0.057275  -0.000596  1.015938  -0.001
H  H21  1  0.21860174  0.57001629  0.24211898  1  0.056414  0.001643  0.093901  0.056891  0.000907  1.014349  0.001
H  H22  1  0.78127553  0.92977633  0.74239047  1  0.054216  -0.001041  0.094258  0.057275  -0.000596  1.015918  -0.001
H  H23  1  0.78139830  0.07001474  0.25787896  1  0.056159  0.001643  0.093912  0.056899  0.000907  1.014425  0.001
H  H24  1  0.09383116  0.56929470  0.81082833  1  -0.028617  6.4e-05  0.078699  0.104185  3.3e-05  1.017425  0.0
H  H25  1  0.09383236  0.42929124  0.18916840  1  -0.028807  1.5e-05  0.07837  0.104258  -2.4e-05  1.01639  0.0
H  H26  1  0.90616690  0.06930110  0.68917446  1  -0.028483  6.4e-05  0.078702  0.104174  3.3e-05  1.017257  0.0
H  H27  1  0.90616924  0.92928838  0.31082836  1  -0.028684  1.5e-05  0.078381  0.104248  -2.4e-05  1.016514  0.0
H  H28  1  0.99986039  0.61459550  0.75619492  1  0.026446  -0.000122  0.083204  0.114512  -7.6e-05  1.038678  0.0
H  H29  1  0.00045183  0.38448516  0.24390845  1  0.027578  0.000183  0.082918  0.114466  2.7e-05  1.03626  0.0
H  H30  1  0.00013964  0.11459899  0.74380858  1  0.027057  -0.000122  0.083218  0.114583  -7.6e-05  1.038752  0.0
H  H31  1  0.99955084  0.88448338  0.25608951  1  0.027547  0.000183  0.082957  0.114503  2.7e-05  1.036264  0.0
H  H32  1  0.17562153  0.63919219  0.75846899  1  0.08357  0.000189  0.087123  0.126489  0.000182  1.046101  0.0
H  H33  1  0.17649011  0.36052273  0.24174748  1  0.078358  0.000404  0.087062  0.1266  0.000329  1.045744  0.0
H  H34  1  0.82437847  0.13919751  0.74153371  1  0.083462  0.000189  0.087117  0.126468  0.000182  1.046221  0.0
H  H35  1  0.82351258  0.86052194  0.25825012  1  0.078338  0.000404  0.087057  0.126574  0.000329  1.045745  0.0
H  H36  1  0.01576921  0.30450416  0.73021355  1  0.064107  -0.000768  0.12033  0.096828  -0.000372  0.953001  0.0
H  H37  1  0.01392438  0.69401027  0.26962866  1  0.079185  0.001081  0.119892  0.096578  0.000515  0.953242  0.0
H  H38  1  0.98423058  0.80450999  0.76979127  1  0.064051  -0.000768  0.120341  0.09702  -0.000372  0.952963  0.0
H  H39  1  0.98607247  0.19401296  0.23037029  1  0.079116  0.001081  0.119876  0.09653  0.000515  0.953251  0.0
H  H40  1  0.40381467  0.55663570  0.75108504  1  0.088926  0.001633  0.12079  0.094549  0.000776  0.970404  0.001
H  H41  1  0.40531114  0.44288815  0.24860368  1  0.080082  0.002591  0.120715  0.093758  0.001354  0.970926  0.001
H  H42  1  0.59618039  0.05663692  0.74892122  1  0.089434  0.001634  0.120835  0.094675  0.000776  0.970434  0.001
H  H43  1  0.59468943  0.94288675  0.25139153  1  0.080146  0.00259  0.120733  0.093764  0.001354  0.970886  0.001
H  H44  1  0.36030814  0.75797277  0.77776800  1  0.03693  0.000682  0.095568  0.062169  0.000369  0.982235  0.001
H  H45  1  0.36015086  0.24145652  0.22213094  1  0.031585  0.001019  0.095537  0.061769  0.00051  0.983602  0.001
H  H46  1  0.63969373  0.25797155  0.72223995  1  0.036838  0.000681  0.095598  0.062165  0.000369  0.982228  0.001
H  H47  1  0.63985198  0.74145579  0.27786411  1  0.031516  0.00102  0.095519  0.061727  0.00051  0.983596  0.001
H  H48  1  0.56974199  0.84893191  0.74418978  1  0.064898  -0.000112  0.087808  0.124771  -0.000111  1.016488  0.0
H  H49  1  0.56958689  0.14996975  0.25557911  1  0.042788  6.5e-05  0.087408  0.124239  5.1e-05  1.019164  0.0
H  H50  1  0.43025976  0.34893409  0.75581922  1  0.064567  -0.000112  0.08778  0.124674  -0.000111  1.016435  0.0
H  H51  1  0.43041405  0.64996428  0.24441719  1  0.042669  6.5e-05  0.08747  0.124321  5.1e-05  1.018883  0.0
H  H52  1  0.66844196  0.77175644  0.78900774  1  0.014712  5.4e-05  0.086178  0.12032  7e-06  1.014255  0.0
H  H53  1  0.66814264  0.22715109  0.21075287  1  0.039476  0.000325  0.086098  0.120425  0.000189  1.014507  0.0
H  H54  1  0.33156393  0.27175640  0.71099866  1  0.014709  5.4e-05  0.086201  0.120342  7e-06  1.014101  0.0
H  H55  1  0.33185720  0.72714802  0.28924527  1  0.039514  0.000325  0.086112  0.120411  0.000189  1.014518  0.0
H  H56  1  0.55133589  0.87551008  0.81119103  1  -0.011064  8e-06  0.08323  0.112912  6e-06  1.015011  0.0
H  H57  1  0.55076596  0.12357309  0.18854549  1  0.023481  0.000125  0.082855  0.112125  2.5e-05  1.014699  0.0
H  H58  1  0.44866785  0.37550666  0.68881602  1  -0.010703  8e-06  0.083197  0.112834  6e-06  1.015103  0.0
H  H59  1  0.44923704  0.62357575  0.31145085  1  0.023555  0.000125  0.08283  0.112059  2.5e-05  1.014697  0.0
H  H60  1  0.42576994  0.73361390  0.86759988  1  0.005628  -0.000142  0.077989  0.101515  -5e-05  1.036352  0.0
H  H61  1  0.42606198  0.26625077  0.13220833  1  0.018961  0.000329  0.077314  0.100689  0.000135  1.03665  0.0
H  H62  1  0.57423095  0.23361665  0.63240734  1  0.005307  -0.000142  0.077957  0.101445  -5e-05  1.036445  0.0
H  H63  1  0.57393780  0.76625300  0.36778630  1  0.019003  0.000329  0.07732  0.100735  0.000135  1.036676  0.0
H  H64  1  0.54600435  0.62620552  0.85132853  1  0.046528  -0.000179  0.083328  0.126943  -0.00014  1.026703  0.0
H  H65  1  0.54609425  0.37361303  0.14882038  1  0.045526  0.000259  0.082956  0.126206  0.000167  1.025277  0.0
H  H66  1  0.45399869  0.12621084  0.64867842  1  0.04643  -0.000179  0.083345  0.126954  -0.00014  1.026723  0.0
H  H67  1  0.45390540  0.87361376  0.35117452  1  0.045527  0.00026  0.082936  0.126186  0.000167  1.025308  0.0
H  H68  1  0.37140988  0.60051006  0.84212264  1  0.014729  -1.3e-05  0.085032  0.117529  -1.3e-05  1.007607  0.0
H  H69  1  0.37147499  0.39910755  0.15789722  1  0.019441  9.7e-05  0.084581  0.116874  4.4e-05  1.007611  0.0
H  H70  1  0.62859218  0.10051262  0.65788281  1  0.014887  -1.3e-05  0.084995  0.117521  -1.3e-05  1.007653  0.0
H  H71  1  0.62852362  0.89910902  0.34209727  1  0.019092  9.7e-05  0.084584  0.116896  4.4e-05  1.007622  0.0
H  H72  1  0.38714345  0.26910814  0.96469382  1  0.081415  -3.5e-05  0.101756  0.148047  -1.7e-05  0.99849  0.0
H  H73  1  0.38710994  0.73087246  0.03532895  1  0.082161  1.1e-05  0.101807  0.14827  6e-06  0.998898  0.0
H  H74  1  0.61285436  0.76911050  0.53530567  1  0.081496  -3.5e-05  0.101746  0.148014  -1.7e-05  0.998486  0.0
H  H75  1  0.61288990  0.23087756  0.46467073  1  0.082297  1.1e-05  0.101827  0.148273  6e-06  0.998909  0.0
H  H76  1  0.35902854  0.40635244  0.99134289  1  0.064608  -4.9e-05  0.097495  0.134341  -2.7e-05  1.003804  0.0
H  H77  1  0.35916583  0.59351740  0.00872278  1  0.065098  7.1e-05  0.097768  0.134865  3.8e-05  1.003378  0.0
H  H78  1  0.64097112  0.90635408  0.50865528  1  0.065063  -4.8e-05  0.097511  0.134362  -2.7e-05  1.003756  0.0
H  H79  1  0.64083519  0.09352233  0.49127705  1  0.065246  7.1e-05  0.097751  0.134845  3.8e-05  1.00336  0.0
H  H80  1  0.45547890  0.30569551  0.02604051  1  0.047489  9.8e-05  0.099371  0.139165  4.7e-05  0.998028  0.0
H  H81  1  0.45525913  0.69432678  0.97397400  1  0.047716  -0.000112  0.099054  0.138679  -5.6e-05  0.998745  0.0
H  H82  1  0.54451680  0.80569716  0.47395908  1  0.047461  9.8e-05  0.099383  0.139177  4.7e-05  0.99804  0.0
H  H83  1  0.54473777  0.19433186  0.52602441  1  0.04772  -0.000112  0.099054  0.138663  -5.6e-05  0.998796  0.0
H  H84  1  0.92632373  0.51892722  0.89649285  1  0.092259  0.000414  0.094886  0.124006  0.000322  1.035975  0.0
H  H85  1  0.92660723  0.48115856  0.10359516  1  0.089277  -0.000479  0.09551  0.124996  -0.000397  1.035037  0.0
H  H86  1  0.07367440  0.01893399  0.60350654  1  0.092466  0.000414  0.094868  0.123987  0.000322  1.035929  0.0
H  H87  1  0.07339834  0.98116022  0.39640192  1  0.089231  -0.000479  0.095434  0.124962  -0.000397  1.035007  0.0
H  H88  1  0.94263190  0.53515813  0.96412755  1  0.040355  0.000101  0.092409  0.130085  3.7e-05  1.014557  0.0
H  H89  1  0.94269192  0.46496513  0.03593113  1  0.041534  -0.000112  0.092551  0.130385  -4.2e-05  1.014312  0.0
H  H90  1  0.05737226  0.03516699  0.53587105  1  0.040354  0.000101  0.09236  0.130058  3.7e-05  1.014576  0.0
H  H91  1  0.05731165  0.96496472  0.46406559  1  0.041668  -0.000112  0.092587  0.130412  -4.2e-05  1.014154  0.0
H  H92  1  0.83894127  0.63030470  0.92910803  1  0.04331  0.000162  0.098477  0.140277  7.1e-05  0.984326  0.0
H  H93  1  0.83893877  0.36996862  0.07091812  1  0.046723  -0.000196  0.098763  0.140718  -9.2e-05  0.984058  0.0
H  H94  1  0.16105672  0.13031328  0.57089123  1  0.043182  0.000162  0.098436  0.140191  7.1e-05  0.984367  0.0
H  H95  1  0.16106593  0.86997002  0.42907909  1  0.046899  -0.000196  0.098772  0.140714  -9.2e-05  0.984119  0.0
H  H96  1  0.56705600  0.47511751  0.60476710  1  0.057229  -0.000493  0.094648  0.122629  -0.000401  1.036084  0.0
H  H97  1  0.56690692  0.52444028  0.39516453  1  0.053831  -0.000614  0.095461  0.12404  -0.000512  1.035762  0.0
H  H98  1  0.43294055  0.97512396  0.89523368  1  0.057248  -0.000493  0.094643  0.122612  -0.000401  1.036091  0.0
H  H99  1  0.43309317  0.02443990  0.10483307  1  0.053912  -0.000614  0.09547  0.124038  -0.000512  1.035772  0.0
H  H100  1  0.64414017  0.37035417  0.56473711  1  0.048803  -0.00014  0.096481  0.135156  -6.1e-05  1.002829  0.0
H  H101  1  0.64436230  0.62908339  0.43518053  1  0.05171  -0.00014  0.096731  0.135498  -5.5e-05  1.001858  0.0
H  H102  1  0.35585852  0.87035877  0.93526302  1  0.048863  -0.00014  0.096481  0.135144  -6.1e-05  1.00278  0.0
H  H103  1  0.35563767  0.12908246  0.06481735  1  0.051726  -0.000139  0.096722  0.135491  -5.5e-05  1.001892  0.0
H  H104  1  0.53979989  0.47675207  0.53738715  1  0.004116  -6.7e-05  0.092477  0.129705  -1.6e-05  1.012607  0.0
H  H105  1  0.53952497  0.52307672  0.46255825  1  0.052644  -6.8e-05  0.092126  0.129159  -1.4e-05  1.012483  0.0
H  H106  1  0.46019867  0.97675812  0.96261210  1  0.004122  -6.7e-05  0.092494  0.129727  -1.6e-05  1.012637  0.0
H  H107  1  0.46047411  0.02307499  0.03743975  1  0.052676  -6.8e-05  0.092168  0.129202  -1.3e-05  1.012551  0.0
H  H108  1  0.10233270  0.72977109  0.53656950  1  0.074515  4.3e-05  0.102418  0.149032  2e-05  0.994685  0.0
H  H109  1  0.10263288  0.27033502  0.46350370  1  0.075591  3.4e-05  0.102437  0.149259  1.3e-05  0.994682  0.0
H  H110  1  0.89766213  0.22977424  0.96342695  1  0.074516  4.3e-05  0.102453  0.149099  2e-05  0.99474  0.0
H  H111  1  0.89736388  0.77033543  0.03649439  1  0.075648  3.4e-05  0.102454  0.149288  1.3e-05  0.994659  0.0
H  H112  1  0.04277236  0.68337016  0.47520144  1  0.076002  -6.8e-05  0.100176  0.139924  -3.8e-05  0.987004  0.0
H  H113  1  0.04325081  0.31669851  0.52485118  1  0.074341  -7.9e-05  0.09977  0.139215  -4.5e-05  0.988835  0.0
H  H114  1  0.95721744  0.18337573  0.02479522  1  0.076066  -6.8e-05  0.100153  0.13988  -3.8e-05  0.987003  0.0
H  H115  1  0.95674796  0.81670235  0.97514671  1  0.074303  -7.9e-05  0.099819  0.139249  -4.5e-05  0.988746  0.0
H  H116  1  0.13721484  0.58977784  0.51464748  1  0.038975  9.1e-05  0.097425  0.133413  4.5e-05  1.00267  0.0
H  H117  1  0.13709712  0.41046288  0.48535495  1  0.051529  0.000176  0.097561  0.133864  8.9e-05  1.002908  0.0
H  H118  1  0.86278017  0.08978345  0.98534875  1  0.03897  9.1e-05  0.097425  0.133396  4.5e-05  1.002708  0.0
H  H119  1  0.86290148  0.91046684  0.01464259  1  0.051778  0.000176  0.097537  0.13385  8.9e-05  1.002885  0.0
H  H120  1  0.56078714  0.27557923  0.89328317  1  0.553932  8.8e-05  0.316386  0.276327  0.000292  0.996207  0.0
H  H121  1  0.56126898  0.72527974  0.10652302  1  0.551319  0.000478  0.316477  0.275724  0.000559  0.995574  0.0
H  H122  1  0.43921167  0.77558561  0.60671784  1  0.553982  8.8e-05  0.316381  0.276348  0.000292  0.996133  0.0
H  H123  1  0.43873388  0.22527943  0.39347474  1  0.551311  0.000478  0.316469  0.275763  0.000559  0.995649  0.0
H  H124  1  0.93412777  0.71828740  0.60851845  1  0.559047  -0.000131  0.315802  0.27498  -0.000378  1.000285  0.0
H  H125  1  0.93409086  0.28121808  0.39166364  1  0.555914  0.000587  0.315543  0.273838  0.000696  1.002229  0.001
H  H126  1  0.06587112  0.21829510  0.89148110  1  0.558955  -0.000131  0.315811  0.275035  -0.000378  1.000122  0.0
H  H127  1  0.06590892  0.78121626  0.10833406  1  0.555963  0.000587  0.315542  0.273907  0.000696  1.002172  0.001
C  C128  1  0.13709148  0.47175673  0.68414132  1  -0.066258  0.000826  -0.26143  -0.407661  0.000618  3.929567  0.001
C  C129  1  0.13690251  0.52816189  0.31561279  1  -0.068732  0.001155  -0.26089  -0.40705  0.000926  3.929576  0.001
C  C130  1  0.86290406  0.97176325  0.81586024  1  -0.066778  0.000826  -0.261409  -0.407568  0.000618  3.929537  0.001
C  C131  1  0.86310162  0.02815557  0.18438443  1  -0.068829  0.001155  -0.260849  -0.407031  0.000926  3.929429  0.001
C  C132  1  0.12285796  0.46347315  0.74261371  1  0.018124  -0.002893  -0.087733  0.092691  -0.001997  3.826229  -0.002
C  C133  1  0.12277092  0.53618558  0.25708381  1  -0.000858  0.004266  -0.087058  0.094775  0.002944  3.820973  0.003
C  C134  1  0.87713860  0.96347829  0.75738709  1  0.01801  -0.002893  -0.087873  0.092617  -0.001996  3.826531  -0.002
C  C135  1  0.87722916  0.03618233  0.24291417  1  -0.000569  0.004267  -0.087051  0.094711  0.002945  3.820991  0.003
C  C136  1  0.09644140  0.57807077  0.76869590  1  -0.079633  0.000364  -0.253606  -0.395656  0.000248  3.917117  0.0
C  C137  1  0.09688687  0.42113381  0.23131952  1  -0.061412  0.000891  -0.253  -0.395395  0.000587  3.915206  0.001
C  C138  1  0.90355968  0.07807778  0.73130688  1  -0.080279  0.000363  -0.253551  -0.395597  0.000248  3.917167  0.0
C  C139  1  0.90311676  0.92113119  0.26867802  1  -0.061463  0.000891  -0.253042  -0.39538  0.000587  3.91536  0.001
C  C140  1  0.01784698  0.37220640  0.75975070  1  0.336225  -0.000719  0.011934  -0.013013  -0.000998  3.827084  0.001
C  C141  1  0.01697843  0.62681759  0.23989416  1  0.323859  0.001322  0.011831  -0.012307  0.001791  3.835223  0.0
C  C142  1  0.98215575  0.87221240  0.74025366  1  0.33674  -0.000718  0.012001  -0.013395  -0.000999  3.827656  0.001
C  C143  1  0.98301851  0.12681926  0.26010525  1  0.323931  0.001321  0.011807  -0.012189  0.00179  3.835076  0.0
C  C144  1  0.06679494  0.31377664  0.80936548  1  1.565334  -0.001058  0.215594  0.580184  -0.001587  4.121485  -0.001
C  C145  1  0.06545340  0.68642749  0.19055117  1  1.566456  0.000218  0.215884  0.580206  0.001016  4.119799  0.0
C  C146  1  0.93320887  0.81377955  0.69064048  1  1.564725  -0.001057  0.215512  0.580104  -0.001586  4.121411  -0.001
C  C147  1  0.93454548  0.18642551  0.30944779  1  1.566171  0.000216  0.215862  0.580015  0.001016  4.119877  0.0
C  C148  1  0.80777373  0.47525251  0.73866107  1  1.381408  -0.001351  0.213198  0.347897  -0.000946  4.223379  -0.002
C  C149  1  0.80591712  0.52696281  0.26174589  1  1.385324  -0.000687  0.213351  0.355559  0.002462  4.205645  0.0
C  C150  1  0.19222382  0.97526249  0.76134624  1  1.380451  -0.00135  0.212898  0.34753  -0.000944  4.223784  -0.002
C  C151  1  0.19408701  0.02696786  0.23825133  1  1.38521  -0.000687  0.213373  0.355599  0.002461  4.205596  0.0
C  C152  1  0.67499600  0.51166512  0.76230475  1  1.397562  0.000897  0.214962  0.354859  0.000342  4.218119  0.002
C  C153  1  0.67336129  0.48959935  0.23797990  1  1.385413  -0.001753  0.214188  0.357673  0.001471  4.202836  -0.001
C  C154  1  0.32500012  0.01167347  0.73770348  1  1.397611  0.000895  0.214999  0.354903  0.000343  4.218145  0.002
C  C155  1  0.32664226  0.98960155  0.26201679  1  1.385251  -0.001751  0.214196  0.357653  0.001472  4.202712  -0.001
C  C156  1  0.47360649  0.62741245  0.74237296  1  0.298148  0.00095  0.011469  -0.015963  0.001051  3.835525  -0.001
C  C157  1  0.47453009  0.37180457  0.25748944  1  0.317609  0.001949  0.010882  -0.015305  0.002301  3.84053  0.0
C  C158  1  0.52639453  0.12741454  0.75763438  1  0.297712  0.000951  0.011486  -0.016319  0.001052  3.835812  -0.001
C  C159  1  0.52546957  0.87180669  0.24250585  1  0.317399  0.001952  0.010982  -0.015022  0.002302  3.840398  0.0
C  C160  1  0.42558260  0.68059148  0.69149667  1  1.569652  0.001543  0.217781  0.577096  0.001858  4.122883  0.001
C  C161  1  0.42613534  0.31979128  0.30851257  1  1.571166  0.000496  0.219438  0.580663  0.001241  4.116137  0.001
C  C162  1  0.57441331  0.18058812  0.80851137  1  1.569832  0.001543  0.217751  0.577268  0.001859  4.122555  0.001
C  C163  1  0.57385731  0.81979365  0.19148316  1  1.571204  0.000494  0.219478  0.580551  0.00124  4.115767  0.001
C  C164  1  0.45854792  0.71771619  0.78593891  1  0.046896  0.001667  -0.085409  0.092925  0.001094  3.836617  0.001
C  C165  1  0.45853504  0.28143182  0.21399785  1  0.053587  0.002116  -0.085379  0.094083  0.001386  3.834585  0.001
C  C166  1  0.54145400  0.21771680  0.71406986  1  0.047129  0.001666  -0.085534  0.093076  0.001094  3.836491  0.001
C  C167  1  0.54146675  0.78143369  0.28599639  1  0.053842  0.002116  -0.085324  0.09417  0.001386  3.834268  0.001
C  C168  1  0.56808125  0.80866505  0.78231085  1  -0.057335  -4.9e-05  -0.249773  -0.394091  -5.5e-05  3.918864  0.0
C  C169  1  0.56782034  0.19027665  0.21747635  1  -0.099628  0.000345  -0.250044  -0.393317  0.000224  3.91897  0.0
C  C170  1  0.43192157  0.30866489  0.71769858  1  -0.057352  -4.9e-05  -0.249791  -0.394031  -5.5e-05  3.918748  0.0
C  C171  1  0.43218257  0.69027693  0.28251992  1  -0.099587  0.000345  -0.250099  -0.393325  0.000224  3.918695  0.0
C  C172  1  0.45049855  0.66600879  0.83984475  1  -0.058603  -0.000545  -0.251506  -0.394619  -0.000472  3.940821  0.0
C  C173  1  0.45058630  0.33358404  0.16014128  1  -0.077032  0.000634  -0.25062  -0.393345  0.000596  3.938665  0.0
C  C174  1  0.54950343  0.16601140  0.66016293  1  -0.058196  -0.000545  -0.251332  -0.394485  -0.000472  3.940697  0.0
C  C175  1  0.54941441  0.83358559  0.33985290  1  -0.076821  0.000634  -0.250657  -0.393475  0.000597  3.93865  0.0
C  C176  1  0.43377507  0.33778349  0.98718526  1  -0.062598  -0.000358  -0.226184  -0.419697  -0.000251  3.961854  0.0
C  C177  1  0.43377348  0.66222603  0.01284005  1  -0.064272  0.00044  -0.226355  -0.420101  0.000283  3.962069  0.0
C  C178  1  0.56622165  0.83778688  0.51281338  1  -0.063073  -0.000358  -0.226195  -0.419656  -0.000251  3.961897  0.0
C  C179  1  0.56622745  0.16223104  0.48715932  1  -0.064562  0.00044  -0.226335  -0.420059  0.000283  3.962066  0.0
C  C180  1  0.55937071  0.38008766  0.96206519  1  0.403604  0.000928  0.105056  0.2059  0.000416  3.973886  0.0
C  C181  1  0.55957001  0.62020039  0.03790922  1  0.400574  -0.000632  0.105815  0.20602  -0.000195  3.972345  0.0
C  C182  1  0.44062898  0.88009443  0.53793378  1  0.403429  0.000928  0.105018  0.205743  0.000416  3.974026  0.0
C  C183  1  0.44043299  0.12020396  0.46208866  1  0.399802  -0.000631  0.105783  0.206068  -0.000195  3.972536  0.0
C  C184  1  0.65213544  0.46428346  0.97705704  1  0.017909  -0.000822  -0.03684  -0.140284  -0.000588  4.060549  -0.001
C  C185  1  0.65218858  0.53580767  0.02300160  1  0.060762  0.00172  -0.036737  -0.139588  0.001158  4.059255  0.001
C  C186  1  0.34786717  0.96429125  0.52294030  1  0.017798  -0.000822  -0.036805  -0.140192  -0.000588  4.06059  -0.001
C  C187  1  0.34781251  0.03581379  0.47699484  1  0.060888  0.00172  -0.036673  -0.139504  0.001158  4.059459  0.001
C  C188  1  0.75284980  0.46423240  0.93840296  1  0.45512  6.8e-05  0.096531  0.200968  -0.000319  4.020893  -0.001
C  C189  1  0.75299590  0.53599328  0.06163451  1  0.469607  0.000459  0.097262  0.201619  0.000709  4.020409  0.001
C  C190  1  0.24715887  0.96424091  0.56159553  1  0.455368  6.8e-05  0.096495  0.200871  -0.000319  4.020851  -0.001
C  C191  1  0.24700519  0.03599629  0.43836232  1  0.469618  0.000458  0.097245  0.201568  0.000709  4.020478  0.001
C  C192  1  0.87157319  0.54092367  0.93181749  1  -0.071387  8.6e-05  -0.231828  -0.42248  0.000124  3.985513  0.0
C  C193  1  0.87172237  0.45930872  0.06827034  1  -0.085416  -6.3e-05  -0.231255  -0.42271  -0.000152  3.985475  0.0
C  C194  1  0.12843096  0.04093144  0.56818111  1  -0.071701  8.6e-05  -0.231706  -0.422312  0.000124  3.985353  0.0
C  C195  1  0.12828122  0.95930928  0.43172715  1  -0.085631  -6.3e-05  -0.231226  -0.422685  -0.000152  3.985337  0.0
C  C196  1  0.61546600  0.46060605  0.56738766  1  -0.006032  -0.000114  -0.231548  -0.418274  -0.000175  3.980767  0.0
C  C197  1  0.61529204  0.53890908  0.43256051  1  -0.059056  -0.000124  -0.23101  -0.418403  -0.000198  3.978518  0.0
C  C198  1  0.38453258  0.96061149  0.93261275  1  -0.006025  -0.000114  -0.231521  -0.41824  -0.000175  3.980651  0.0
C  C199  1  0.38470702  0.03890896  0.06743708  1  -0.059067  -0.000125  -0.231039  -0.418415  -0.000198  3.978599  0.0
C  C200  1  0.73667543  0.53481339  0.56189356  1  0.460337  0.000369  0.096628  0.202234  0.000461  4.013181  0.001
C  C201  1  0.73634143  0.46455337  0.43819666  1  0.470236  0.000955  0.097334  0.204761  0.000976  4.008103  0.002
C  C202  1  0.26332672  0.03482066  0.93810657  1  0.460333  0.000369  0.096588  0.202194  0.000462  4.013316  0.001
C  C203  1  0.26365407  0.96455589  0.06180197  1  0.470251  0.000956  0.097318  0.204695  0.000976  4.008413  0.002
C  C204  1  0.83757044  0.53476489  0.52326947  1  0.028095  0.002123  -0.036973  -0.140458  0.00146  4.060486  0.002
C  C205  1  0.83746764  0.46499631  0.47675886  1  -0.014831  0.00262  -0.036791  -0.140464  0.001794  4.057943  0.002
C  C206  1  0.16242766  0.03477202  0.97672874  1  0.028218  0.002124  -0.037028  -0.140593  0.001461  4.060634  0.002
C  C207  1  0.16252786  0.96500170  0.02323901  1  -0.014932  0.002621  -0.036802  -0.140432  0.001795  4.058089  0.002
C  C208  1  0.93258001  0.61627141  0.53933192  1  0.431271  0.000187  0.104814  0.203288  0.000293  3.973457  0.001
C  C209  1  0.93239296  0.38333888  0.46079736  1  0.428983  0.000725  0.105532  0.204324  0.000756  3.972017  0.001
C  C210  1  0.06741699  0.11627872  0.96066658  1  0.431076  0.000187  0.104843  0.203484  0.000293  3.973252  0.001
C  C211  1  0.06760668  0.88334001  0.03920099  1  0.429663  0.000725  0.105604  0.204408  0.000757  3.972186  0.001
C  C212  1  0.06021669  0.65727143  0.51525447  1  -0.07116  0.000387  -0.225739  -0.418051  0.000257  3.961869  0.0
C  C213  1  0.06034394  0.34278530  0.48478967  1  -0.083184  0.000534  -0.226092  -0.418791  0.000352  3.963402  0.0
C  C214  1  0.93977925  0.15727527  0.98474206  1  -0.071086  0.000386  -0.225757  -0.418134  0.000257  3.961997  0.0
C  C215  1  0.93965576  0.84278749  0.01520949  1  -0.083487  0.000534  -0.226145  -0.418856  0.000352  3.963344  0.0
N  N216  1  0.60785396  0.58286720  0.73312677  1  -1.192806  0.078301  -0.403387  -0.398746  0.050937  3.615557  0.065
N  N217  1  0.60914028  0.41507408  0.26653290  1  -1.205394  0.119183  -0.411024  -0.412668  0.077011  3.622153  0.098
N  N218  1  0.39214914  0.08287191  0.76688100  1  -1.192669  0.07831  -0.403587  -0.398994  0.050941  3.615984  0.065
N  N219  1  0.39086235  0.91507638  0.23346234  1  -1.205575  0.119167  -0.411122  -0.412933  0.077003  3.622454  0.098
N  N220  1  0.88182127  0.41267298  0.76926157  1  -1.198039  -0.074818  -0.405434  -0.394295  -0.050984  3.629691  -0.062
N  N221  1  0.88209034  0.58498004  0.22994539  1  -1.212522  0.114878  -0.413775  -0.411181  0.074076  3.644781  0.094
N  N222  1  0.11818041  0.91268150  0.73074429  1  -1.197897  -0.07481  -0.405404  -0.394031  -0.05098  3.629759  -0.062
N  N223  1  0.11791069  0.08498328  0.27005138  1  -1.212378  0.114884  -0.413673  -0.411107  0.07408  3.644762  0.094
N  N224  1  0.60643837  0.33506281  0.91767381  1  -0.832606  -0.000552  -0.274043  -0.125432  -0.000216  3.660658  0.0
N  N225  1  0.60674816  0.66553708  0.08222286  1  -0.828261  0.002708  -0.273322  -0.122994  0.001439  3.659399  0.002
N  N226  1  0.39356339  0.83507107  0.58232599  1  -0.832959  -0.000552  -0.274038  -0.125482  -0.000216  3.66089  0.0
N  N227  1  0.39325479  0.16553923  0.41777459  1  -0.827791  0.002707  -0.273327  -0.123124  0.001439  3.65967  0.002
N  N228  1  0.72340027  0.38458863  0.90299779  1  -0.732309  -0.033004  -0.289922  -0.247081  -0.024018  3.582763  -0.028
N  N229  1  0.72365642  0.61592679  0.09692294  1  -0.734188  0.044615  -0.290726  -0.249408  0.030724  3.584907  0.038
N  N230  1  0.27660345  0.88459862  0.59700309  1  -0.731863  -0.032994  -0.289911  -0.246971  -0.024011  3.582665  -0.028
N  N231  1  0.27634659  0.11592913  0.40307341  1  -0.734014  0.044613  -0.290674  -0.249315  0.030721  3.584814  0.038
N  N232  1  0.76813360  0.61176362  0.59828629  1  -0.723562  0.035175  -0.286818  -0.246362  0.024405  3.564237  0.03
N  N233  1  0.76764053  0.38719665  0.40196235  1  -0.726586  0.048085  -0.286825  -0.24857  0.033138  3.561646  0.041
N  N234  1  0.23186744  0.11176941  0.90171453  1  -0.723534  0.035183  -0.286812  -0.246276  0.02441  3.564438  0.03
N  N235  1  0.23235810  0.88719645  0.09803522  1  -0.72623  0.048085  -0.286823  -0.24858  0.033139  3.561787  0.041
N  N236  1  0.88657822  0.65967383  0.58419269  1  -0.835731  0.001042  -0.274364  -0.128044  0.000474  3.667673  0.0
N  N237  1  0.88615427  0.33941927  0.41606940  1  -0.833958  0.003683  -0.274581  -0.127385  0.00203  3.669178  0.002
N  N238  1  0.11342074  0.15967880  0.91580616  1  -0.835824  0.001042  -0.274362  -0.128137  0.000474  3.667354  0.0
N  N239  1  0.11384644  0.83941925  0.08392784  1  -0.834887  0.003685  -0.274651  -0.127522  0.00203  3.669373  0.002
O  O240  1  0.18428557  0.27588895  0.81090817  1  -1.189195  -0.023151  -0.318061  -0.55233  -0.015451  2.28593  -0.019
O  O241  1  0.18243644  0.72542624  0.18905102  1  -1.185335  0.033766  -0.316212  -0.551927  0.021703  2.282845  0.03
O  O242  1  0.81571627  0.77588515  0.68910091  1  -1.188962  -0.023158  -0.317955  -0.552221  -0.015455  2.285811  -0.019
O  O243  1  0.81755634  0.22541669  0.31094904  1  -1.185112  0.033769  -0.316177  -0.551811  0.021705  2.282783  0.03
O  O244  1  0.98301513  0.30681178  0.84784687  1  -1.122734  -0.069572  -0.326509  -0.543006  -0.04754  2.309979  -0.065
O  O245  1  0.98174419  0.69377755  0.15199887  1  -1.126317  0.097406  -0.324969  -0.542704  0.062943  2.303431  0.09
O  O246  1  0.01698163  0.80680805  0.65215718  1  -1.12248  -0.069572  -0.326559  -0.542968  -0.047539  2.309637  -0.065
O  O247  1  0.01825569  0.19378384  0.34799931  1  -1.126255  0.097406  -0.324991  -0.542661  0.062942  2.303506  0.09
O  O248  1  0.64246306  0.47253158  0.80639739  1  -1.091214  -0.073281  -0.295172  -0.449178  -0.049859  2.305114  -0.067
O  O249  1  0.63824550  0.53110351  0.19445358  1  -1.103871  0.119316  -0.306306  -0.467664  0.07686  2.291167  0.107
O  O250  1  0.35754359  0.97254351  0.69361263  1  -1.091313  -0.073285  -0.295016  -0.448903  -0.049863  2.30485  -0.067
O  O251  1  0.36175358  0.03110633  0.30554249  1  -1.10372  0.119308  -0.306274  -0.467537  0.076855  2.290902  0.107
O  O252  1  0.83568000  0.50925631  0.69317793  1  -1.087439  0.071227  -0.29587  -0.445887  0.046167  2.343364  0.065
O  O253  1  0.83140285  0.49842019  0.30831186  1  -1.106755  0.120481  -0.307527  -0.465291  0.077572  2.321493  0.108
O  O254  1  0.16432420  0.00927208  0.80682954  1  -1.086968  0.071216  -0.295601  -0.445581  0.046158  2.343596  0.065
O  O255  1  0.16859967  0.99842718  0.19168520  1  -1.106628  0.120493  -0.307579  -0.465349  0.077578  2.321324  0.108
O  O256  1  0.51131235  0.68847532  0.65372832  1  -1.140695  0.066574  -0.326869  -0.546515  0.043299  2.331864  0.062
O  O257  1  0.51113210  0.31329290  0.34663318  1  -1.142765  0.092128  -0.325448  -0.548107  0.059732  2.323574  0.086
O  O258  1  0.48867447  0.18847524  0.84627664  1  -1.141086  0.066579  -0.326884  -0.546528  0.0433  2.331548  0.062
O  O259  1  0.48886763  0.81329300  0.15336064  1  -1.142912  0.092126  -0.325416  -0.548053  0.059731  2.323508  0.086
O  O260  1  0.30651003  0.71402602  0.68830837  1  -1.178049  0.020661  -0.311324  -0.544859  0.013095  2.350827  0.016
O  O261  1  0.30714954  0.28618046  0.31180154  1  -1.179417  0.029879  -0.310858  -0.545629  0.019232  2.351236  0.027
O  O262  1  0.69348483  0.21402424  0.81170232  1  -1.178143  0.020657  -0.311253  -0.544874  0.013093  2.350816  0.016
O  O263  1  0.69285224  0.78618274  0.18819384  1  -1.179257  0.029889  -0.310976  -0.545693  0.019238  2.350776  0.027
