# generated using pymatgen
data_BiH2C8NO6
_symmetry_space_group_name_H-M   'P 1'
_cell_length_a   10.07020882
_cell_length_b   12.27206692
_cell_length_c   13.44053888
_cell_angle_alpha   90.00022066
_cell_angle_beta   89.99964367
_cell_angle_gamma   89.99978381
_symmetry_Int_Tables_number   1
_chemical_formula_structural   BiH2C8NO6
_chemical_formula_sum   'Bi8 H16 C64 N8 O48'
_cell_volume   1661.01239160
_cell_formula_units_Z   8
loop_
 _symmetry_equiv_pos_site_id
 _symmetry_equiv_pos_as_xyz
  1  'x, y, z'
loop_
 _atom_site_type_symbol
 _atom_site_label
 _atom_site_symmetry_multiplicity
 _atom_site_fract_x
 _atom_site_fract_y
 _atom_site_fract_z
 _atom_site_occupancy
 _atom_site_hle17_bader_spin_density
 _atom_site_hle17_ddec_charge
 _atom_site_hle17_ddec_spin_density
 _atom_site_hle17_ddec_sum_bond_order
 _atom_site_hle17_magmom
 _atom_site_hse06_10hf_bader_spin_density
 _atom_site_hse06_10hf_ddec_charge
 _atom_site_hse06_10hf_ddec_spin_density
 _atom_site_hse06_10hf_ddec_sum_bond_order
 _atom_site_hse06_10hf_magmom
 _atom_site_hse06_bader_spin_density
 _atom_site_hse06_ddec_charge
 _atom_site_hse06_ddec_spin_density
 _atom_site_hse06_ddec_sum_bond_order
 _atom_site_hse06_magmom
 _atom_site_pbe_bader_spin_density
 _atom_site_pbe_cm5_charge
 _atom_site_pbe_ddec_charge
 _atom_site_pbe_ddec_spin_density
 _atom_site_pbe_ddec_sum_bond_order
 _atom_site_pbe_magmom
Bi  Bi0  1  0.21857847  0.21089608  0.57621932  1  0  1.703914  0  2.010727  0  0  1.498498  0  2.472256  0  0  1.5768  0  2.419775  0  0  0.925896  1.443092  0  2.508527  0
Bi  Bi1  1  0.71857341  0.28910373  0.92379068  1  0  1.704008  0  2.010621  0  0  1.498607  0  2.472141  0  0  1.576912  0  2.419657  0  0  0.925955  1.443202  0  2.508407  0
Bi  Bi2  1  0.78142516  0.71089810  0.92378012  1  0  1.703926  0  2.010738  0  0  1.498544  0  2.47227  0  0  1.576844  0  2.419787  0  0  0.92589  1.443138  0  2.508535  0
Bi  Bi3  1  0.28142091  0.78910909  0.57621573  1  0  1.703968  0  2.010598  0  0  1.498581  0  2.472114  0  0  1.576885  0  2.419635  0  0  0.925956  1.443174  0  2.50837  0
Bi  Bi4  1  0.78142508  0.78910311  0.42378765  1  0  1.703934  0  2.01073  0  0  1.498553  0  2.472257  0  0  1.576859  0  2.41977  0  0  0.925904  1.443152  0  2.508524  0
Bi  Bi5  1  0.28142417  0.71089139  0.07620811  1  0  1.703983  0  2.010677  0  0  1.498609  0  2.472218  0  0  1.576917  0  2.41973  0  0  0.92591  1.443209  0  2.508477  0
Bi  Bi6  1  0.21857541  0.28910190  0.07621719  1  0  1.703933  0  2.010794  0  0  1.498531  0  2.472343  0  0  1.576834  0  2.419857  0  0  0.925887  1.443131  0  2.508621  0
Bi  Bi7  1  0.71857668  0.21089499  0.42378455  1  0  1.70393  0  2.010719  0  0  1.498544  0  2.472267  0  0  1.576846  0  2.419781  0  0  0.925902  1.44314  0  2.508545  0
H  H8  1  0.62047089  0.49477850  0.64037480  1  0  0.134563  0  0.90968  0  0  0.143656  0  0.9682  0  0  0.147713  0  0.964908  0  0  0.123061  0.140655  0  0.970809  0
H  H9  1  0.12047056  0.00522405  0.85962449  1  0  0.134572  0  0.90961  0  0  0.143643  0  0.968129  0  0  0.147699  0  0.964838  0  0  0.123046  0.140646  0  0.970732  0
H  H10  1  0.37952744  0.99477905  0.85962489  1  0  0.134585  0  0.909646  0  0  0.143675  0  0.968172  0  0  0.147731  0  0.96488  0  0  0.123052  0.140677  0  0.970781  0
H  H11  1  0.87953799  0.50521644  0.64037646  1  0  0.134571  0  0.909542  0  0  0.143634  0  0.968114  0  0  0.147689  0  0.964824  0  0  0.12305  0.140638  0  0.970716  0
H  H12  1  0.37952769  0.50522232  0.35962399  1  0  0.134611  0  0.909676  0  0  0.143675  0  0.968195  0  0  0.147732  0  0.964903  0  0  0.123057  0.14068  0  0.970799  0
H  H13  1  0.87953398  0.99478165  0.14037653  1  0  0.134545  0  0.909564  0  0  0.143606  0  0.96811  0  0  0.147661  0  0.96482  0  0  0.123032  0.140607  0  0.970716  0
H  H14  1  0.62046816  0.00521770  0.14037613  1  0  0.134577  0  0.909528  0  0  0.143653  0  0.968089  0  0  0.147708  0  0.964797  0  0  0.123038  0.140657  0  0.970694  0
H  H15  1  0.12046853  0.49477705  0.35962531  1  0  0.134561  0  0.909624  0  0  0.143621  0  0.968166  0  0  0.147676  0  0.964875  0  0  0.123036  0.140622  0  0.970777  0
H  H16  1  0.36889424  0.43915472  0.89558827  1  0  0.140361  0  0.937825  0  0  0.145719  0  1.004528  0  0  0.150453  0  1.000517  0  0  0.121437  0.142304  0  1.007567  0
H  H17  1  0.86888497  0.06084217  0.60441657  1  0  0.140346  0  0.937894  0  0  0.145714  0  1.004597  0  0  0.150447  0  1.000586  0  0  0.121438  0.14229  0  1.007659  0
H  H18  1  0.63110932  0.93915506  0.60441346  1  0  0.140354  0  0.937867  0  0  0.145719  0  1.004576  0  0  0.150452  0  1.000564  0  0  0.121454  0.142305  0  1.007618  0
H  H19  1  0.13111736  0.56084364  0.89558531  1  0  0.140395  0  0.937908  0  0  0.145749  0  1.004626  0  0  0.150483  0  1.000612  0  0  0.121464  0.142326  0  1.007679  0
H  H20  1  0.63111030  0.56084528  0.10441424  1  0  0.14031  0  0.937905  0  0  0.145686  0  1.004616  0  0  0.150418  0  1.000606  0  0  0.121437  0.142271  0  1.007653  0
H  H21  1  0.13111758  0.93915620  0.39558296  1  0  0.140322  0  0.937911  0  0  0.145684  0  1.004643  0  0  0.150417  0  1.00063  0  0  0.121429  0.142265  0  1.007692  0
H  H22  1  0.36888529  0.06084902  0.39558458  1  0  0.140357  0  0.937878  0  0  0.145711  0  1.004613  0  0  0.150445  0  1.0006  0  0  0.121453  0.142299  0  1.007646  0
H  H23  1  0.86888718  0.43915311  0.10441720  1  0  0.140372  0  0.937912  0  0  0.145734  0  1.004609  0  0  0.150467  0  1.000598  0  0  0.121459  0.142322  0  1.007653  0
C  C24  1  0.48925997  0.34233062  0.52156710  1  0  0.628281  0  3.903921  0  0  0.570934  0  4.208575  0  0  0.607377  0  4.199279  0  0  0.224052  0.545992  0  4.214125  0
C  C25  1  0.98925705  0.15767243  0.97843198  1  0  0.628368  0  3.90384  0  0  0.571044  0  4.208456  0  0  0.607485  0  4.199159  0  0  0.224118  0.54609  0  4.214018  0
C  C26  1  0.51073510  0.84232800  0.97843057  1  0  0.628182  0  3.903984  0  0  0.570814  0  4.208685  0  0  0.607255  0  4.199389  0  0  0.223976  0.545865  0  4.214237  0
C  C27  1  0.01074483  0.65767187  0.52156951  1  0  0.628279  0  3.903798  0  0  0.57095  0  4.20844  0  0  0.60739  0  4.199143  0  0  0.224086  0.546003  0  4.213999  0
C  C28  1  0.51072968  0.65767020  0.47843169  1  0  0.628199  0  3.904091  0  0  0.570794  0  4.208843  0  0  0.607236  0  4.199549  0  0  0.223937  0.545833  0  4.214405  0
C  C29  1  0.01073557  0.84232839  0.02156905  1  0  0.628273  0  3.904025  0  0  0.570918  0  4.208689  0  0  0.607364  0  4.199391  0  0  0.224032  0.545969  0  4.214246  0
C  C30  1  0.48926845  0.15766874  0.02156822  1  0  0.628305  0  3.903883  0  0  0.570848  0  4.208709  0  0  0.607292  0  4.199412  0  0  0.223978  0.545906  0  4.214254  0
C  C31  1  0.98926170  0.34232731  0.47843598  1  0  0.628271  0  3.904107  0  0  0.570842  0  4.208876  0  0  0.607282  0  4.199587  0  0  0.223994  0.5459  0  4.214419  0
C  C32  1  0.45157701  0.38895221  0.62082296  1  0  0.128451  0  3.710906  0  0  0.125969  0  3.961897  0  0  0.128319  0  3.976628  0  0  0.129241  0.124133  0  3.952154  0
C  C33  1  0.95157415  0.11105096  0.87917778  1  0  0.128455  0  3.710931  0  0  0.125929  0  3.961975  0  0  0.128287  0  3.976691  0  0  0.129305  0.1241  0  3.952231  0
C  C34  1  0.54841884  0.88894987  0.87917710  1  0  0.12847  0  3.710714  0  0  0.125986  0  3.961787  0  0  0.12835  0  3.976491  0  0  0.129172  0.124156  0  3.952044  0
C  C35  1  0.04842894  0.61104826  0.62082280  1  0  0.128478  0  3.710843  0  0  0.125978  0  3.961891  0  0  0.12834  0  3.976596  0  0  0.12924  0.124134  0  3.952167  0
C  C36  1  0.54842157  0.61105106  0.37917657  1  0  0.128494  0  3.710861  0  0  0.125979  0  3.961882  0  0  0.12833  0  3.976607  0  0  0.129228  0.124148  0  3.952146  0
C  C37  1  0.04842642  0.88894823  0.12082102  1  0  0.128469  0  3.710898  0  0  0.125962  0  3.961929  0  0  0.128315  0  3.976649  0  0  0.129286  0.124123  0  3.952199  0
C  C38  1  0.45157379  0.11104850  0.12082169  1  0  0.128425  0  3.710892  0  0  0.12598  0  3.961899  0  0  0.128327  0  3.976634  0  0  0.129286  0.124143  0  3.952167  0
C  C39  1  0.95157560  0.38894849  0.37917822  1  0  0.128495  0  3.710779  0  0  0.125977  0  3.961815  0  0  0.128334  0  3.976546  0  0  0.1293  0.124147  0  3.952066  0
C  C40  1  0.53254515  0.45964933  0.67463696  1  0  -0.047242  0  3.577376  0  0  -0.090611  0  3.836302  0  0  -0.088395  0  3.847685  0  0  -0.047843  -0.091959  0  3.829136  0
C  C41  1  0.03254096  0.04035430  0.82536050  1  0  -0.047287  0  3.577737  0  0  -0.090575  0  3.836522  0  0  -0.088362  0  3.847905  0  0  -0.047802  -0.091917  0  3.82935  0
C  C42  1  0.46745434  0.95964865  0.82536038  1  0  -0.047303  0  3.577553  0  0  -0.090648  0  3.836445  0  0  -0.088434  0  3.847824  0  0  -0.047777  -0.092001  0  3.829291  0
C  C43  1  0.96746444  0.54034738  0.67463982  1  0  -0.047327  0  3.577235  0  0  -0.090646  0  3.836169  0  0  -0.088433  0  3.847548  0  0  -0.047808  -0.091996  0  3.829018  0
C  C44  1  0.46745443  0.54035067  0.32536034  1  0  -0.04742  0  3.577647  0  0  -0.090672  0  3.836477  0  0  -0.088453  0  3.847858  0  0  -0.047816  -0.092026  0  3.82933  0
C  C45  1  0.96746060  0.95965141  0.17463903  1  0  -0.047335  0  3.577315  0  0  -0.090581  0  3.836128  0  0  -0.088364  0  3.84751  0  0  -0.047794  -0.091926  0  3.828968  0
C  C46  1  0.53254126  0.04034891  0.17463916  1  0  -0.047317  0  3.577273  0  0  -0.090671  0  3.836227  0  0  -0.088453  0  3.847608  0  0  -0.047817  -0.09202  0  3.82907  0
C  C47  1  0.03254109  0.45964611  0.32536120  1  0  -0.047333  0  3.577783  0  0  -0.090617  0  3.836562  0  0  -0.088408  0  3.847949  0  0  -0.047821  -0.091961  0  3.829397  0
C  C48  1  0.50272108  0.47720572  0.77472829  1  0  0.005928  0  3.683886  0  0  0.025677  0  3.924768  0  0  0.023136  0  3.940559  0  0  0.014222  0.02683  0  3.914838  0
C  C49  1  0.00271980  0.02279556  0.72527453  1  0  0.005806  0  3.684188  0  0  0.025629  0  3.924976  0  0  0.023084  0  3.940766  0  0  0.014142  0.026782  0  3.915057  0
C  C50  1  0.49727734  0.97720534  0.72527432  1  0  0.005892  0  3.684069  0  0  0.025677  0  3.92494  0  0  0.023132  0  3.940732  0  0  0.014199  0.026827  0  3.915017  0
C  C51  1  0.99728569  0.52279304  0.77472797  1  0  0.006012  0  3.68371  0  0  0.025767  0  3.924609  0  0  0.023224  0  3.940401  0  0  0.014249  0.026918  0  3.914686  0
C  C52  1  0.49727949  0.52279428  0.22527348  1  0  0.005881  0  3.684008  0  0  0.025601  0  3.924903  0  0  0.023059  0  3.940695  0  0  0.014165  0.02675  0  3.914985  0
C  C53  1  0.99728474  0.97720607  0.27472650  1  0  0.005919  0  3.68383  0  0  0.025646  0  3.924759  0  0  0.023103  0  3.940549  0  0  0.014167  0.026797  0  3.914836  0
C  C54  1  0.50271727  0.02279385  0.27472670  1  0  0.005934  0  3.683739  0  0  0.025652  0  3.924716  0  0  0.023107  0  3.940506  0  0  0.014193  0.026804  0  3.9148  0
C  C55  1  0.00271984  0.47720452  0.22527603  1  0  0.005895  0  3.684061  0  0  0.025724  0  3.924824  0  0  0.023183  0  3.940612  0  0  0.014172  0.026869  0  3.914908  0
C  C56  1  0.59492827  0.54007614  0.84099562  1  0  0.633123  0  3.931421  0  0  0.578354  0  4.229249  0  0  0.613231  0  4.22325  0  0  0.211305  0.55455  0  4.232833  0
C  C57  1  0.09492354  0.95992756  0.65900332  1  0  0.633203  0  3.931274  0  0  0.578395  0  4.229156  0  0  0.613272  0  4.223156  0  0  0.211371  0.55458  0  4.232758  0
C  C58  1  0.40507316  0.04007633  0.65900471  1  0  0.633232  0  3.9313  0  0  0.578427  0  4.229169  0  0  0.613304  0  4.223172  0  0  0.21134  0.55462  0  4.232761  0
C  C59  1  0.90508092  0.45992372  0.84099699  1  0  0.633128  0  3.931269  0  0  0.578352  0  4.229117  0  0  0.613228  0  4.223124  0  0  0.211271  0.554556  0  4.232695  0
C  C60  1  0.40507329  0.45992305  0.15900317  1  0  0.633217  0  3.931258  0  0  0.578479  0  4.229049  0  0  0.613354  0  4.223052  0  0  0.211366  0.554674  0  4.232644  0
C  C61  1  0.90507703  0.04007408  0.34099696  1  0  0.633186  0  3.931183  0  0  0.578393  0  4.229083  0  0  0.61327  0  4.223086  0  0  0.211345  0.554596  0  4.232666  0
C  C62  1  0.59492145  0.95992531  0.34099706  1  0  0.633183  0  3.93122  0  0  0.578382  0  4.22912  0  0  0.613259  0  4.223126  0  0  0.211297  0.554573  0  4.232716  0
C  C63  1  0.09492462  0.54007303  0.15900552  1  0  0.633178  0  3.931275  0  0  0.578349  0  4.229185  0  0  0.613225  0  4.22319  0  0  0.21136  0.554541  0  4.232782  0
C  C64  1  0.39088023  0.42804067  0.81695073  1  0  -0.082515  0  3.617591  0  0  -0.118782  0  3.871301  0  0  -0.119542  0  3.886676  0  0  -0.051857  -0.118609  0  3.861684  0
C  C65  1  0.89087522  0.07195779  0.68304881  1  0  -0.082412  0  3.617394  0  0  -0.118751  0  3.871004  0  0  -0.119504  0  3.886371  0  0  -0.05183  -0.118581  0  3.861428  0
C  C66  1  0.60912039  0.92804140  0.68304799  1  0  -0.082551  0  3.617429  0  0  -0.118855  0  3.871158  0  0  -0.11961  0  3.886532  0  0  -0.051883  -0.118675  0  3.861533  0
C  C67  1  0.10912705  0.57195981  0.81695163  1  0  -0.082578  0  3.617295  0  0  -0.118902  0  3.871055  0  0  -0.119657  0  3.886419  0  0  -0.051865  -0.11875  0  3.861491  0
C  C68  1  0.60912133  0.57195771  0.18304807  1  0  -0.082372  0  3.617408  0  0  -0.118709  0  3.871147  0  0  -0.119469  0  3.886522  0  0  -0.051825  -0.118531  0  3.86152  0
C  C69  1  0.10912634  0.92804221  0.31694999  1  0  -0.082327  0  3.617317  0  0  -0.118656  0  3.870956  0  0  -0.11941  0  3.886326  0  0  -0.051814  -0.118491  0  3.861366  0
C  C70  1  0.39087521  0.07196023  0.31695080  1  0  -0.082403  0  3.617339  0  0  -0.11874  0  3.871004  0  0  -0.119492  0  3.886372  0  0  -0.051836  -0.118577  0  3.86141  0
C  C71  1  0.89087550  0.42803938  0.18304939  1  0  -0.082477  0  3.617422  0  0  -0.118847  0  3.871068  0  0  -0.119594  0  3.88643  0  0  -0.051854  -0.11869  0  3.861494  0
C  C72  1  0.30933118  0.36494860  0.75631856  1  0  0.118497  0  3.710045  0  0  0.115278  0  3.958948  0  0  0.117334  0  3.975854  0  0  0.126726  0.113631  0  3.947924  0
C  C73  1  0.80932438  0.13505500  0.74368656  1  0  0.118393  0  3.710136  0  0  0.115313  0  3.958861  0  0  0.117366  0  3.975766  0  0  0.126662  0.113666  0  3.947838  0
C  C74  1  0.69066874  0.86494689  0.74368365  1  0  0.118594  0  3.710066  0  0  0.115404  0  3.959007  0  0  0.117455  0  3.975918  0  0  0.126784  0.11376  0  3.947977  0
C  C75  1  0.19067562  0.63505569  0.75631410  1  0  0.118585  0  3.709978  0  0  0.115403  0  3.958817  0  0  0.117457  0  3.975724  0  0  0.126717  0.113767  0  3.947777  0
C  C76  1  0.69067038  0.63505384  0.24368544  1  0  0.118447  0  3.710101  0  0  0.1153  0  3.958932  0  0  0.117355  0  3.975841  0  0  0.126722  0.113655  0  3.947894  0
C  C77  1  0.19067619  0.86494501  0.25631075  1  0  0.118218  0  3.71024  0  0  0.115147  0  3.958893  0  0  0.117203  0  3.9758  0  0  0.126652  0.113506  0  3.947859  0
C  C78  1  0.30932586  0.13505474  0.25631142  1  0  0.118261  0  3.710339  0  0  0.115208  0  3.958923  0  0  0.11726  0  3.975832  0  0  0.126651  0.113565  0  3.947895  0
C  C79  1  0.80932594  0.36494594  0.24368841  1  0  0.118313  0  3.710323  0  0  0.115264  0  3.958934  0  0  0.117313  0  3.975841  0  0  0.126659  0.113615  0  3.947909  0
C  C80  1  0.18412422  0.30976175  0.79213428  1  0  0.641103  0  3.884383  0  0  0.584736  0  4.187241  0  0  0.620506  0  4.178124  0  0  0.22101  0.560334  0  4.192925  0
C  C81  1  0.68412044  0.19023979  0.70786695  1  0  0.64096  0  3.884617  0  0  0.584613  0  4.187382  0  0  0.620384  0  4.178264  0  0  0.221001  0.560221  0  4.193055  0
C  C82  1  0.81587596  0.80976277  0.70786327  1  0  0.641089  0  3.88438  0  0  0.584722  0  4.187237  0  0  0.620494  0  4.178119  0  0  0.221025  0.560318  0  4.192925  0
C  C83  1  0.31588129  0.69024269  0.79212870  1  0  0.641064  0  3.884415  0  0  0.584744  0  4.187192  0  0  0.620516  0  4.178076  0  0  0.221101  0.560341  0  4.192865  0
C  C84  1  0.81587734  0.69023906  0.20786600  1  0  0.641057  0  3.884467  0  0  0.584699  0  4.187282  0  0  0.620467  0  4.178166  0  0  0.221017  0.56031  0  4.192949  0
C  C85  1  0.31588409  0.80976022  0.29213854  1  0  0.641441  0  3.88463  0  0  0.585188  0  4.187206  0  0  0.620956  0  4.17808  0  0  0.221224  0.560792  0  4.192889  0
C  C86  1  0.18411766  0.19023886  0.29213775  1  0  0.64124  0  3.884703  0  0  0.584939  0  4.187313  0  0  0.620708  0  4.178192  0  0  0.221151  0.560544  0  4.19299  0
C  C87  1  0.68411928  0.30976220  0.20786414  1  0  0.641282  0  3.884588  0  0  0.584911  0  4.187315  0  0  0.62068  0  4.178194  0  0  0.221152  0.560511  0  4.193003  0
N  N88  1  0.34145906  0.34699865  0.66108046  1  0  -0.327835  0  3.318342  0  0  -0.257725  0  3.549027  0  0  -0.274687  0  3.57088  0  0  -0.285177  -0.24599  0  3.534208  0
N  N89  1  0.84145734  0.15300567  0.83892005  1  0  -0.327743  0  3.318376  0  0  -0.257731  0  3.5491  0  0  -0.274694  0  3.570953  0  0  -0.28521  -0.245998  0  3.534282  0
N  N90  1  0.65853996  0.84699662  0.83891648  1  0  -0.327784  0  3.318376  0  0  -0.257775  0  3.549206  0  0  -0.274739  0  3.571057  0  0  -0.285201  -0.246042  0  3.534383  0
N  N91  1  0.15854357  0.65300280  0.66108217  1  0  -0.327861  0  3.31846  0  0  -0.25781  0  3.549218  0  0  -0.274772  0  3.571068  0  0  -0.285264  -0.246072  0  3.534392  0
N  N92  1  0.65853853  0.65300299  0.33891908  1  0  -0.327755  0  3.318488  0  0  -0.257677  0  3.549184  0  0  -0.274637  0  3.571038  0  0  -0.285174  -0.245942  0  3.534359  0
N  N93  1  0.15854224  0.84699434  0.16107875  1  0  -0.327695  0  3.318517  0  0  -0.257683  0  3.549204  0  0  -0.274646  0  3.571059  0  0  -0.285193  -0.24595  0  3.534386  0
N  N94  1  0.34145862  0.15300175  0.16107933  1  0  -0.327685  0  3.318644  0  0  -0.257623  0  3.549236  0  0  -0.274582  0  3.57109  0  0  -0.285158  -0.245892  0  3.534423  0
N  N95  1  0.84145699  0.34699557  0.33892035  1  0  -0.327738  0  3.318534  0  0  -0.257669  0  3.549153  0  0  -0.274628  0  3.571006  0  0  -0.285198  -0.245938  0  3.534332  0
O  O96  1  0.41330159  0.26940325  0.48440644  1  0  -0.61153  0  1.981647  0  0  -0.549003  0  2.223436  0  0  -0.579587  0  2.215143  0  0  -0.275278  -0.527567  0  2.228257  0
O  O97  1  0.91330420  0.23060200  0.01559365  1  0  -0.61152  0  1.981595  0  0  -0.548981  0  2.22336  0  0  -0.579564  0  2.215065  0  0  -0.275274  -0.527542  0  2.228185  0
O  O98  1  0.58669701  0.76940009  0.01559164  1  0  -0.611495  0  1.981598  0  0  -0.548949  0  2.223377  0  0  -0.579534  0  2.215088  0  0  -0.275235  -0.527507  0  2.228185  0
O  O99  1  0.08669359  0.73059827  0.48440800  1  0  -0.611473  0  1.981706  0  0  -0.548937  0  2.223467  0  0  -0.579533  0  2.215205  0  0  -0.275281  -0.527501  0  2.228285  0
O  O100  1  0.58669401  0.73060001  0.51559310  1  0  -0.611458  0  1.98152  0  0  -0.548919  0  2.223333  0  0  -0.579506  0  2.215043  0  0  -0.275228  -0.527479  0  2.228159  0
O  O101  1  0.08669439  0.76939637  0.98440439  1  0  -0.611534  0  1.981518  0  0  -0.548995  0  2.223322  0  0  -0.579583  0  2.215029  0  0  -0.275275  -0.527553  0  2.22814  0
O  O102  1  0.41330554  0.23059992  0.98440567  1  0  -0.611499  0  1.98141  0  0  -0.548946  0  2.223252  0  0  -0.579532  0  2.214959  0  0  -0.275259  -0.52751  0  2.22807  0
O  O103  1  0.91330499  0.26939847  0.51559376  1  0  -0.611536  0  1.981619  0  0  -0.548968  0  2.22343  0  0  -0.579558  0  2.215148  0  0  -0.275269  -0.527529  0  2.228244  0
O  O104  1  0.59867983  0.37255185  0.48349030  1  0  -0.606069  0  1.977695  0  0  -0.550873  0  2.216217  0  0  -0.58091  0  2.209656  0  0  -0.288073  -0.529836  0  2.219875  0
O  O105  1  0.09867783  0.12744704  0.01651050  1  0  -0.606137  0  1.977675  0  0  -0.550965  0  2.216207  0  0  -0.581003  0  2.209644  0  0  -0.288125  -0.529925  0  2.21987  0
O  O106  1  0.40131531  0.87254518  0.01650590  1  0  -0.606047  0  1.977819  0  0  -0.550829  0  2.216322  0  0  -0.580871  0  2.209773  0  0  -0.28805  -0.529792  0  2.219977  0
O  O107  1  0.90131845  0.62744813  0.48349303  1  0  -0.606155  0  1.97749  0  0  -0.550968  0  2.216013  0  0  -0.581005  0  2.209444  0  0  -0.288117  -0.529927  0  2.219668  0
O  O108  1  0.40131776  0.62745223  0.51650402  1  0  -0.606092  0  1.977951  0  0  -0.55083  0  2.216433  0  0  -0.580871  0  2.209889  0  0  -0.288055  -0.52979  0  2.220091  0
O  O109  1  0.90131877  0.87255052  0.98349127  1  0  -0.606056  0  1.977806  0  0  -0.550875  0  2.216354  0  0  -0.580904  0  2.209773  0  0  -0.288068  -0.529838  0  2.220013  0
O  O110  1  0.59868427  0.12745156  0.98349438  1  0  -0.606131  0  1.977914  0  0  -0.550871  0  2.216453  0  0  -0.580913  0  2.209904  0  0  -0.288063  -0.529835  0  2.220109  0
O  O111  1  0.09867318  0.37255350  0.51651246  1  0  -0.606052  0  1.977974  0  0  -0.550816  0  2.216523  0  0  -0.580845  0  2.209951  0  0  -0.288045  -0.529779  0  2.220177  0
O  O112  1  0.65503922  0.62186740  0.80150242  1  0  -0.606418  0  2.00145  0  0  -0.544099  0  2.239601  0  0  -0.575879  0  2.234907  0  0  -0.285041  -0.521973  0  2.242595  0
O  O113  1  0.15503850  0.87813285  0.69849699  1  0  -0.606381  0  2.001246  0  0  -0.544139  0  2.239492  0  0  -0.575921  0  2.234798  0  0  -0.285049  -0.52201  0  2.242493  0
O  O114  1  0.34496382  0.12186957  0.69849373  1  0  -0.606399  0  2.001376  0  0  -0.544105  0  2.239625  0  0  -0.575885  0  2.234935  0  0  -0.284998  -0.521968  0  2.242597  0
O  O115  1  0.84496435  0.37813310  0.80150750  1  0  -0.606343  0  2.001291  0  0  -0.544067  0  2.239523  0  0  -0.57585  0  2.234835  0  0  -0.284969  -0.521927  0  2.242479  0
O  O116  1  0.34496135  0.37813260  0.19849414  1  0  -0.606395  0  2.001346  0  0  -0.544137  0  2.239581  0  0  -0.575922  0  2.234893  0  0  -0.28504  -0.521986  0  2.24252  0
O  O117  1  0.84496306  0.12186797  0.30150626  1  0  -0.606328  0  2.001183  0  0  -0.544122  0  2.239519  0  0  -0.575908  0  2.234831  0  0  -0.285013  -0.521971  0  2.242454  0
O  O118  1  0.65503377  0.87812962  0.30150803  1  0  -0.606368  0  2.001319  0  0  -0.544039  0  2.239507  0  0  -0.575819  0  2.234818  0  0  -0.284962  -0.521911  0  2.242507  0
O  O119  1  0.15504019  0.62186527  0.19849650  1  0  -0.60634  0  2.001291  0  0  -0.544106  0  2.239578  0  0  -0.575889  0  2.234886  0  0  -0.285026  -0.521972  0  2.242557  0
O  O120  1  0.61069131  0.50800183  0.92898009  1  0  -0.625546  0  1.991987  0  0  -0.569534  0  2.227916  0  0  -0.598057  0  2.222231  0  0  -0.286954  -0.549247  0  2.231009  0
O  O121  1  0.11068716  0.99199855  0.57101803  1  0  -0.625571  0  1.992033  0  0  -0.569505  0  2.227912  0  0  -0.598024  0  2.222224  0  0  -0.286976  -0.549213  0  2.231009  0
O  O122  1  0.38930928  0.00799926  0.57101789  1  0  -0.625619  0  1.991964  0  0  -0.569569  0  2.227874  0  0  -0.598094  0  2.222191  0  0  -0.287006  -0.549278  0  2.230965  0
O  O123  1  0.88931913  0.49200002  0.92898463  1  0  -0.625593  0  1.991861  0  0  -0.569535  0  2.227727  0  0  -0.598057  0  2.222043  0  0  -0.286993  -0.549247  0  2.230816  0
O  O124  1  0.38931124  0.49199736  0.07101795  1  0  -0.62561  0  1.99198  0  0  -0.569549  0  2.227802  0  0  -0.598069  0  2.222114  0  0  -0.286992  -0.549255  0  2.230891  0
O  O125  1  0.88931142  0.00799819  0.42898150  1  0  -0.625616  0  1.991961  0  0  -0.569573  0  2.227894  0  0  -0.598096  0  2.22221  0  0  -0.286999  -0.549287  0  2.230986  0
O  O126  1  0.61068533  0.99200238  0.42898388  1  0  -0.625625  0  1.991923  0  0  -0.569564  0  2.227813  0  0  -0.598086  0  2.22213  0  0  -0.287003  -0.54927  0  2.230911  0
O  O127  1  0.11068739  0.50799835  0.07101863  1  0  -0.625586  0  1.991941  0  0  -0.569545  0  2.2279  0  0  -0.598069  0  2.222218  0  0  -0.286982  -0.54925  0  2.230992  0
O  O128  1  0.14950389  0.32136151  0.88079377  1  0  -0.611622  0  1.989931  0  0  -0.556994  0  2.230542  0  0  -0.58511  0  2.224754  0  0  -0.29113  -0.537134  0  2.234024  0
O  O129  1  0.64950090  0.17863606  0.61920985  1  0  -0.611563  0  1.989956  0  0  -0.556979  0  2.230592  0  0  -0.585094  0  2.224803  0  0  -0.291136  -0.537128  0  2.234085  0
O  O130  1  0.85049624  0.82136449  0.61920829  1  0  -0.611583  0  1.990092  0  0  -0.55698  0  2.23075  0  0  -0.585093  0  2.224959  0  0  -0.291098  -0.537121  0  2.234239  0
O  O131  1  0.35050386  0.67864331  0.88079096  1  0  -0.611691  0  1.989836  0  0  -0.557043  0  2.230384  0  0  -0.585164  0  2.224596  0  0  -0.291184  -0.537191  0  2.23388  0
O  O132  1  0.85049568  0.67863931  0.11920948  1  0  -0.61157  0  1.989953  0  0  -0.556957  0  2.230574  0  0  -0.585071  0  2.224787  0  0  -0.291152  -0.537103  0  2.23406  0
O  O133  1  0.35050264  0.82136068  0.38078076  1  0  -0.611784  0  1.990499  0  0  -0.557196  0  2.23104  0  0  -0.585304  0  2.225246  0  0  -0.291263  -0.537335  0  2.234512  0
O  O134  1  0.14949837  0.17863796  0.38078381  1  0  -0.611639  0  1.990427  0  0  -0.557049  0  2.23099  0  0  -0.58516  0  2.225196  0  0  -0.291167  -0.537203  0  2.234492  0
O  O135  1  0.64950267  0.32136403  0.11921527  1  0  -0.611682  0  1.990276  0  0  -0.55708  0  2.23091  0  0  -0.58519  0  2.225114  0  0  -0.291189  -0.537218  0  2.234387  0
O  O136  1  0.11839808  0.25554836  0.72630885  1  0  -0.61546  0  2.023382  0  0  -0.551236  0  2.270988  0  0  -0.582741  0  2.26564  0  0  -0.2856  -0.529252  0  2.274392  0
O  O137  1  0.61839549  0.24445746  0.77369343  1  0  -0.615454  0  2.023501  0  0  -0.551211  0  2.271021  0  0  -0.582712  0  2.265661  0  0  -0.285586  -0.529231  0  2.27443  0
O  O138  1  0.88160334  0.75554619  0.77369000  1  0  -0.615529  0  2.023241  0  0  -0.55127  0  2.270797  0  0  -0.582776  0  2.265444  0  0  -0.285632  -0.529279  0  2.274201  0
O  O139  1  0.38160500  0.74445500  0.72630464  1  0  -0.615433  0  2.02357  0  0  -0.551218  0  2.271121  0  0  -0.582717  0  2.265763  0  0  -0.285617  -0.529233  0  2.274518  0
O  O140  1  0.88160149  0.74445409  0.27369291  1  0  -0.615511  0  2.023419  0  0  -0.551304  0  2.271004  0  0  -0.582808  0  2.265652  0  0  -0.285618  -0.529323  0  2.274409  0
O  O141  1  0.38160409  0.75554091  0.22630239  1  0  -0.615659  0  2.02324  0  0  -0.551512  0  2.270782  0  0  -0.583017  0  2.265421  0  0  -0.285668  -0.52953  0  2.27419  0
O  O142  1  0.11839325  0.24445708  0.22630507  1  0  -0.615587  0  2.023272  0  0  -0.55138  0  2.27081  0  0  -0.582884  0  2.265448  0  0  -0.285669  -0.5294  0  2.274226  0
O  O143  1  0.61839458  0.25554501  0.27369415  1  0  -0.615572  0  2.023376  0  0  -0.551344  0  2.270939  0  0  -0.582846  0  2.265579  0  0  -0.285662  -0.529358  0  2.274348  0
