# generated using pymatgen
data_CdH8C12N7O3
_symmetry_space_group_name_H-M   'P 1'
_cell_length_a   9.09250998
_cell_length_b   12.39509804
_cell_length_c   14.31260000
_cell_angle_alpha   90.00000000
_cell_angle_beta   106.89520821
_cell_angle_gamma   90.00000000
_symmetry_Int_Tables_number   1
_chemical_formula_structural   CdH8C12N7O3
_chemical_formula_sum   'Cd4 H32 C48 N28 O12'
_cell_volume   1543.44320453
_cell_formula_units_Z   4
loop_
 _symmetry_equiv_pos_site_id
 _symmetry_equiv_pos_as_xyz
  1  'x, y, z'
loop_
 _atom_site_type_symbol
 _atom_site_label
 _atom_site_symmetry_multiplicity
 _atom_site_fract_x
 _atom_site_fract_y
 _atom_site_fract_z
 _atom_site_occupancy
 _atom_site_hle17_bader_spin_density
 _atom_site_hle17_ddec_charge
 _atom_site_hle17_ddec_spin_density
 _atom_site_hle17_ddec_sum_bond_order
 _atom_site_hle17_magmom
 _atom_site_hse06_10hf_bader_spin_density
 _atom_site_hse06_10hf_ddec_charge
 _atom_site_hse06_10hf_ddec_spin_density
 _atom_site_hse06_10hf_ddec_sum_bond_order
 _atom_site_hse06_10hf_magmom
 _atom_site_hse06_bader_spin_density
 _atom_site_hse06_ddec_charge
 _atom_site_hse06_ddec_spin_density
 _atom_site_hse06_ddec_sum_bond_order
 _atom_site_hse06_magmom
 _atom_site_pbe_bader_charge
 _atom_site_pbe_bader_spin_density
 _atom_site_pbe_cm5_charge
 _atom_site_pbe_ddec_charge
 _atom_site_pbe_ddec_spin_density
 _atom_site_pbe_ddec_sum_bond_order
 _atom_site_pbe_magmom
Cd  Cd0  1  0.16873451  0.45463618  0.09623537  1  0  1.029295  0  1.836415  0  0  0.828454  0  2.294602  0  0  0.882086  0  2.249978  0  1.248954  0  0.791812  0.790551  0  2.324918  0
Cd  Cd1  1  0.83126571  0.95463384  0.40376502  1  0  1.02927  0  1.836396  0  0  0.82844  0  2.294583  0  0  0.88207  0  2.24996  0  1.248962  0  0.791816  0.790537  0  2.324905  0
Cd  Cd2  1  0.83126112  0.54536317  0.90375229  1  0  1.029234  0  1.836533  0  0  0.828428  0  2.294676  0  0  0.88206  0  2.250054  0  1.249047  0  0.791782  0.790524  0  2.324994  0
Cd  Cd3  1  0.16873795  0.04536551  0.59624789  1  0  1.029194  0  1.836541  0  0  0.828374  0  2.294695  0  0  0.882005  0  2.250076  0  1.249021  0  0.791776  0.79047  0  2.325017  0
H  H4  1  0.09046836  0.68981221  0.18175603  1  0  0.088836  0  0.949393  0  0  0.089941  0  1.022424  0  0  0.093168  0  1.018971  0  0.156238  0  0.115274  0.087576  0  1.024935  0
H  H5  1  0.90953875  0.18980649  0.31824354  1  0  0.088829  0  0.949452  0  0  0.089935  0  1.022486  0  0  0.093163  0  1.019033  0  0.156082  0  0.115279  0.087571  0  1.024996  0
H  H6  1  0.90952611  0.31018553  0.81822514  1  0  0.088974  0  0.949314  0  0  0.089987  0  1.022385  0  0  0.093251  0  1.018895  0  0.15619  0  0.115311  0.087563  0  1.024952  0
H  H7  1  0.09047411  0.81018722  0.68177665  1  0  0.088956  0  0.949322  0  0  0.089972  0  1.022395  0  0  0.093237  0  1.018906  0  0.156185  0  0.115297  0.087549  0  1.024963  0
H  H8  1  0.22629274  0.85877739  0.25454671  1  0  0.111499  0  0.970198  0  0  0.113175  0  1.041852  0  0  0.116492  0  1.04067  0  0.122182  0  0.103821  0.110791  0  1.042818  0
H  H9  1  0.77371667  0.35877409  0.24545119  1  0  0.111524  0  0.970151  0  0  0.113229  0  1.041764  0  0  0.116545  0  1.040582  0  0.122215  0  0.103856  0.110843  0  1.042734  0
H  H10  1  0.77370058  0.14121550  0.74544193  1  0  0.111456  0  0.970242  0  0  0.113232  0  1.0418  0  0  0.116551  0  1.040617  0  0.122025  0  0.103837  0.110843  0  1.042778  0
H  H11  1  0.22629849  0.64121558  0.75455615  1  0  0.111527  0  0.970234  0  0  0.113266  0  1.04181  0  0  0.116583  0  1.040626  0  0.122049  0  0.103842  0.110877  0  1.042787  0
H  H12  1  0.48868869  0.89596306  0.23454526  1  0  0.100778  0  0.94682  0  0  0.110415  0  1.010257  0  0  0.112864  0  1.008457  0  0.139848  0  0.108099  0.108593  0  1.011654  0
H  H13  1  0.51131957  0.39596137  0.26545242  1  0  0.100843  0  0.946795  0  0  0.110482  0  1.010247  0  0  0.112931  0  1.008446  0  0.139921  0  0.108113  0.108649  0  1.011659  0
H  H14  1  0.51130923  0.10403064  0.76545330  1  0  0.100784  0  0.946827  0  0  0.110392  0  1.010307  0  0  0.112841  0  1.008508  0  0.139705  0  0.108069  0.108578  0  1.011697  0
H  H15  1  0.48869099  0.60403233  0.73454569  1  0  0.100744  0  0.946888  0  0  0.110389  0  1.010324  0  0  0.112838  0  1.008525  0  0.139747  0  0.108061  0.108567  0  1.011721  0
H  H16  1  0.59320294  0.77090556  0.13352639  1  0  0.115202  0  0.975297  0  0  0.117837  0  1.04705  0  0  0.120812  0  1.046563  0  0.111367  0  0.106942  0.115644  0  1.047585  0
H  H17  1  0.40680418  0.27090709  0.36647247  1  0  0.115153  0  0.975301  0  0  0.117785  0  1.047051  0  0  0.12076  0  1.046563  0  0.111466  0  0.106921  0.115592  0  1.047586  0
H  H18  1  0.40680303  0.22909379  0.86647087  1  0  0.115194  0  0.975345  0  0  0.117837  0  1.04707  0  0  0.120811  0  1.046584  0  0.111438  0  0.106964  0.115646  0  1.047604  0
H  H19  1  0.59319834  0.72909710  0.63353044  1  0  0.115139  0  0.975393  0  0  0.117826  0  1.047075  0  0  0.1208  0  1.04659  0  0.111447  0  0.106957  0.115634  0  1.047608  0
H  H20  1  0.63430151  0.20932065  0.05010566  1  0  0.113401  0  0.934975  0  0  0.128485  0  0.981571  0  0  0.131167  0  0.981635  0  0.095224  0  0.114217  0.126594  0  0.981658  0
H  H21  1  0.36569181  0.70932476  0.44989486  1  0  0.113438  0  0.935027  0  0  0.128509  0  0.981625  0  0  0.131192  0  0.981689  0  0.095167  0  0.114235  0.126617  0  0.981713  0
H  H22  1  0.36569756  0.79067789  0.94989173  1  0  0.113349  0  0.935015  0  0  0.128455  0  0.981582  0  0  0.131138  0  0.981646  0  0.095139  0  0.114207  0.126565  0  0.981669  0
H  H23  1  0.63430381  0.29067943  0.55010748  1  0  0.113307  0  0.935017  0  0  0.128424  0  0.981574  0  0  0.131109  0  0.98164  0  0.095132  0  0.114189  0.126534  0  0.981661  0
H  H24  1  0.56589967  0.03773427  0.11821412  1  0  0.109883  0  0.946878  0  0  0.118977  0  1.006717  0  0  0.122479  0  1.003753  0  0.123655  0  0.109594  0.11637  0  1.00895  0
H  H25  1  0.43409135  0.53773758  0.38178667  1  0  0.109886  0  0.946899  0  0  0.118981  0  1.006725  0  0  0.122483  0  1.003759  0  0.124015  0  0.109612  0.116376  0  1.008955  0
H  H26  1  0.43410170  0.96226831  0.88178998  1  0  0.109889  0  0.946879  0  0  0.11898  0  1.006723  0  0  0.122482  0  1.003756  0  0.123888  0  0.109576  0.116373  0  1.008957  0
H  H27  1  0.56589967  0.46227145  0.61821062  1  0  0.109879  0  0.946819  0  0  0.118975  0  1.006669  0  0  0.122478  0  1.003702  0  0.123858  0  0.109571  0.116368  0  1.008902  0
H  H28  1  0.31256918  0.02945923  0.15923098  1  0  0.105617  0  0.970366  0  0  0.114305  0  1.032739  0  0  0.116711  0  1.032646  0  0.115651  0  0.108975  0.112581  0  1.032909  0
H  H29  1  0.68741955  0.52945608  0.34076868  1  0  0.105566  0  0.97042  0  0  0.11429  0  1.032764  0  0  0.116698  0  1.032668  0  0.11605  0  0.10895  0.112565  0  1.032936  0
H  H30  1  0.68742989  0.97054416  0.84076850  1  0  0.105686  0  0.970432  0  0  0.114359  0  1.032802  0  0  0.116764  0  1.03271  0  0.115601  0  0.108982  0.112635  0  1.032971  0
H  H31  1  0.31256918  0.47054569  0.65923028  1  0  0.105646  0  0.970441  0  0  0.114308  0  1.032831  0  0  0.116713  0  1.03274  0  0.115588  0  0.108951  0.112586  0  1.032998  0
H  H32  1  0.15081623  0.19384276  0.13698627  1  0  0.08839  0  0.939897  0  0  0.095328  0  1.003001  0  0  0.098088  0  1.000287  0  0.109758  0  0.118799  0.093282  0  1.005022  0
H  H33  1  0.84917709  0.69384042  0.36301285  1  0  0.088373  0  0.939767  0  0  0.095299  0  1.002913  0  0  0.098059  0  1.000198  0  0.109849  0  0.118803  0.093253  0  1.004934  0
H  H34  1  0.84918054  0.80615901  0.86300650  1  0  0.088448  0  0.939912  0  0  0.095381  0  1.003009  0  0  0.098141  0  1.000297  0  0.109719  0  0.118824  0.093338  0  1.005024  0
H  H35  1  0.15081968  0.30615974  0.63699249  1  0  0.088447  0  0.939876  0  0  0.095395  0  1.002964  0  0  0.098156  0  1.00025  0  0.109733  0  0.118826  0.09335  0  1.004984  0
C  C36  1  0.20245727  0.71002988  0.17321733  1  0  0.145794  0  3.687269  0  0  0.11593  0  3.938615  0  0  0.122735  0  3.955971  0  0.518349  0  0.052523  0.111464  0  3.926853  0
C  C37  1  0.79754870  0.21002658  0.32678273  1  0  0.145806  0  3.687326  0  0  0.115926  0  3.938677  0  0  0.122731  0  3.956034  0  0.518428  0  0.0525  0.111462  0  3.926913  0
C  C38  1  0.79753490  0.28996947  0.82676481  1  0  0.145847  0  3.687316  0  0  0.116108  0  3.938551  0  0  0.122883  0  3.955897  0  0.518697  0  0.052599  0.111695  0  3.926805  0
C  C39  1  0.20246646  0.78997278  0.67323649  1  0  0.145836  0  3.687356  0  0  0.116075  0  3.938588  0  0  0.122849  0  3.955935  0  0.518704  0  0.052602  0.111661  0  3.926844  0
C  C40  1  0.27861653  0.80433248  0.21357126  1  0  -0.105903  0  3.703852  0  0  -0.117075  0  3.954172  0  0  -0.123514  0  3.975338  0  -0.075453  0  -0.077309  -0.112938  0  3.939992  0
C  C41  1  0.72138944  0.30432918  0.28642740  1  0  -0.105876  0  3.703717  0  0  -0.117039  0  3.954036  0  0  -0.123476  0  3.975201  0  -0.075503  0  -0.077275  -0.112901  0  3.939851  0
C  C42  1  0.72137909  0.19566364  0.78641710  1  0  -0.105894  0  3.703727  0  0  -0.117171  0  3.954017  0  0  -0.123605  0  3.975175  0  -0.075468  0  -0.077416  -0.11303  0  3.93982  0
C  C43  1  0.27861998  0.69566453  0.71358168  1  0  -0.10596  0  3.703837  0  0  -0.117169  0  3.95408  0  0  -0.123603  0  3.975241  0  -0.075549  0  -0.077397  -0.113028  0  3.939883  0
C  C44  1  0.42204201  0.82577887  0.20095718  1  0  -0.007081  0  3.716019  0  0  -0.027742  0  3.969389  0  0  -0.025403  0  3.989547  0  -0.094682  0  -0.069326  -0.029005  0  3.955594  0
C  C45  1  0.57796281  0.32577556  0.29904336  1  0  -0.007261  0  3.716065  0  0  -0.027965  0  3.969493  0  0  -0.025628  0  3.989655  0  -0.094669  0  -0.069406  -0.029225  0  3.955691  0
C  C46  1  0.57795246  0.17421726  0.79903656  1  0  -0.00718  0  3.715896  0  0  -0.027857  0  3.969376  0  0  -0.025517  0  3.989531  0  -0.094852  0  -0.069316  -0.029127  0  3.955592  0
C  C47  1  0.42204661  0.67421895  0.70096222  1  0  -0.007157  0  3.715993  0  0  -0.027861  0  3.969445  0  0  -0.025522  0  3.989603  0  -0.094804  0  -0.069328  -0.029126  0  3.955654  0
C  C48  1  0.48201517  0.75558499  0.14523342  1  0  -0.137376  0  3.701744  0  0  -0.156771  0  3.954285  0  0  -0.163333  0  3.976649  0  0.016369  0  -0.078314  -0.152501  0  3.939299  0
C  C49  1  0.51799309  0.25558330  0.35476566  1  0  -0.137164  0  3.701765  0  0  -0.156516  0  3.954306  0  0  -0.163079  0  3.976672  0  0.016303  0  -0.078254  -0.152249  0  3.939319  0
C  C50  1  0.51798735  0.24441275  0.85475831  1  0  -0.137074  0  3.701758  0  0  -0.156426  0  3.954326  0  0  -0.162987  0  3.97669  0  0.015662  0  -0.078213  -0.152163  0  3.939346  0
C  C51  1  0.48201287  0.74441525  0.64524208  1  0  -0.137091  0  3.701647  0  0  -0.156496  0  3.954259  0  0  -0.163059  0  3.976625  0  0.01553  0  -0.078245  -0.152231  0  3.939275  0
C  C52  1  0.39660655  0.66427550  0.10531328  1  0  0.175008  0  3.769486  0  0  0.171579  0  4.011028  0  0  0.176555  0  4.03266  0  0.495708  0  0.116886  0.168324  0  3.996367  0
C  C53  1  0.60339827  0.16427462  0.39468796  1  0  0.174842  0  3.769561  0  0  0.171382  0  4.011191  0  0  0.176359  0  4.032822  0  0.495312  0  0.116838  0.168132  0  3.996531  0
C  C54  1  0.60339367  0.33572304  0.89467803  1  0  0.174725  0  3.769599  0  0  0.171232  0  4.011267  0  0  0.176206  0  4.032896  0  0.496383  0  0.116641  0.167984  0  3.99661  0
C  C55  1  0.39660655  0.83572554  0.60532306  1  0  0.174815  0  3.769404  0  0  0.171271  0  4.011118  0  0  0.176245  0  4.032749  0  0.496385  0  0.116666  0.168023  0  3.99646  0
C  C56  1  0.45137055  0.58305227  0.04680561  1  0  0.143524  0  3.690449  0  0  0.132157  0  3.943691  0  0  0.137441  0  3.959719  0  0.53309  0  0.142999  0.128295  0  3.933132  0
C  C57  1  0.54863082  0.08305380  0.45319430  1  0  0.143707  0  3.690086  0  0  0.132261  0  3.943513  0  0  0.137545  0  3.95954  0  0.53301  0  0.14303  0.128397  0  3.932956  0
C  C58  1  0.54862737  0.41694628  0.95318388  1  0  0.143748  0  3.690012  0  0  0.132338  0  3.943321  0  0  0.137626  0  3.959341  0  0.532739  0  0.143004  0.12847  0  3.932769  0
C  C59  1  0.45137285  0.91695039  0.54681791  1  0  0.143698  0  3.690095  0  0  0.132402  0  3.943273  0  0  0.137691  0  3.959295  0  0.532991  0  0.143027  0.128535  0  3.932718  0
C  C60  1  0.46481529  0.39697387  0.02091985  1  0  0.138166  0  3.684931  0  0  0.127077  0  3.936901  0  0  0.131839  0  3.953801  0  0.576984  0  0.142467  0.123589  0  3.92575  0
C  C61  1  0.53518378  0.89697637  0.47908033  1  0  0.138276  0  3.684921  0  0  0.1271  0  3.9369  0  0  0.131863  0  3.953799  0  0.577011  0  0.14248  0.123614  0  3.925749  0
C  C62  1  0.53518608  0.60302387  0.97907097  1  0  0.138407  0  3.685167  0  0  0.127259  0  3.937297  0  0  0.132022  0  3.954202  0  0.577151  0  0.142483  0.123766  0  3.926143  0
C  C63  1  0.46481759  0.10302541  0.52093005  1  0  0.138457  0  3.685016  0  0  0.127179  0  3.937286  0  0  0.131942  0  3.954192  0  0.577158  0  0.142464  0.12369  0  3.926133  0
C  C64  1  0.42606382  0.29025587  0.05463069  1  0  0.177883  0  3.757928  0  0  0.172708  0  4.003799  0  0  0.177996  0  4.025578  0  0.491956  0  0.12021  0.169234  0  3.989079  0
C  C65  1  0.57393180  0.79025676  0.44537025  1  0  0.177841  0  3.757881  0  0  0.172735  0  4.003674  0  0  0.178024  0  4.025453  0  0.492099  0  0.1202  0.169257  0  3.988964  0
C  C66  1  0.57393180  0.70974186  0.94536256  1  0  0.177961  0  3.757909  0  0  0.172637  0  4.003999  0  0  0.177924  0  4.02578  0  0.491962  0  0.120217  0.169176  0  3.989256  0
C  C67  1  0.42606727  0.20974259  0.55463622  1  0  0.177668  0  3.758001  0  0  0.172572  0  4.003851  0  0  0.177858  0  4.025633  0  0.491977  0  0.120131  0.169097  0  3.989132  0
C  C68  1  0.52567810  0.20205488  0.06716645  1  0  -0.131753  0  3.707524  0  0  -0.149755  0  3.952532  0  0  -0.156095  0  3.974213  0  0.004246  0  -0.072889  -0.145632  0  3.937927  0
C  C69  1  0.47431522  0.70205738  0.43283477  1  0  -0.131831  0  3.707592  0  0  -0.149848  0  3.952586  0  0  -0.156188  0  3.974263  0  0.004079  0  -0.072954  -0.145725  0  3.937982  0
C  C70  1  0.47432442  0.79794447  0.93283507  1  0  -0.131733  0  3.707486  0  0  -0.149685  0  3.952516  0  0  -0.156021  0  3.974188  0  0.004311  0  -0.072877  -0.145568  0  3.93791  0
C  C71  1  0.52567695  0.29794520  0.56716484  1  0  -0.131584  0  3.7074  0  0  -0.149601  0  3.952369  0  0  -0.15594  0  3.974045  0  0.004427  0  -0.072843  -0.14548  0  3.937765  0
C  C72  1  0.48695767  0.10613067  0.10507583  1  0  0.002675  0  3.690789  0  0  -0.014815  0  3.938281  0  0  -0.012302  0  3.956813  0  -0.08036  0  -0.061459  -0.016163  0  3.925596  0
C  C73  1  0.51303795  0.60613155  0.39492860  1  0  0.002693  0  3.690871  0  0  -0.014793  0  3.938358  0  0  -0.012278  0  3.956892  0  -0.080527  0  -0.061418  -0.01614  0  3.92567  0
C  C74  1  0.51304140  0.89387111  0.89492505  1  0  0.002687  0  3.690785  0  0  -0.01481  0  3.938259  0  0  -0.012295  0  3.956792  0  -0.080444  0  -0.061415  -0.016158  0  3.925576  0
C  C75  1  0.48695652  0.39387183  0.60507282  1  0  0.002706  0  3.69064  0  0  -0.014804  0  3.938147  0  0  -0.01229  0  3.956679  0  -0.08048  0  -0.06141  -0.016152  0  3.925463  0
C  C76  1  0.34891146  0.10135700  0.12852056  1  0  -0.094176  0  3.696187  0  0  -0.107805  0  3.945166  0  0  -0.114002  0  3.966746  0  0.036879  0  -0.072289  -0.103861  0  3.930649  0
C  C77  1  0.65107726  0.60135628  0.37147981  1  0  -0.094181  0  3.696257  0  0  -0.107839  0  3.945259  0  0  -0.114041  0  3.966843  0  0.036589  0  -0.072319  -0.103892  0  3.93074  0
C  C78  1  0.65108991  0.89864557  0.87148005  1  0  -0.094262  0  3.696338  0  0  -0.107869  0  3.94531  0  0  -0.114067  0  3.966895  0  0.036711  0  -0.072326  -0.103926  0  3.930795  0
C  C79  1  0.34891031  0.39864630  0.62851895  1  0  -0.094248  0  3.69632  0  0  -0.107848  0  3.945297  0  0  -0.114046  0  3.966882  0  0.036908  0  -0.072296  -0.103906  0  3.930781  0
C  C80  1  0.25686495  0.19331836  0.11603774  1  0  0.149765  0  3.681716  0  0  0.117152  0  3.936002  0  0  0.12387  0  3.953994  0  0.517876  0  0.056639  0.112766  0  3.923748  0
C  C81  1  0.74312837  0.69331682  0.38396347  1  0  0.149902  0  3.681431  0  0  0.117259  0  3.935778  0  0  0.123981  0  3.95377  0  0.517632  0  0.05667  0.112873  0  3.923525  0
C  C82  1  0.74313412  0.80668261  0.88395894  1  0  0.149621  0  3.681742  0  0  0.116994  0  3.936022  0  0  0.12371  0  3.954018  0  0.517913  0  0.056579  0.112609  0  3.92377  0
C  C83  1  0.25686495  0.30668333  0.61603914  1  0  0.149656  0  3.68177  0  0  0.11702  0  3.936059  0  0  0.123738  0  3.954053  0  0.517644  0  0.056593  0.112636  0  3.923806  0
N  N84  1  0.26146377  0.64060244  0.12199000  1  0  -0.349326  0  3.210754  0  0  -0.28045  0  3.462311  0  0  -0.298949  0  3.48195  0  -1.226343  0  -0.31855  -0.267676  0  3.448633  0
N  N85  1  0.73853990  0.14059913  0.37801103  1  0  -0.349327  0  3.210857  0  0  -0.28042  0  3.462409  0  0  -0.298918  0  3.482048  0  -1.225962  0  -0.318537  -0.267649  0  3.448733  0
N  N86  1  0.73853300  0.35939692  0.87799578  1  0  -0.349508  0  3.211029  0  0  -0.280601  0  3.462536  0  0  -0.299103  0  3.48219  0  -1.226255  0  -0.318464  -0.267826  0  3.448834  0
N  N87  1  0.26146837  0.85940022  0.62200622  1  0  -0.349433  0  3.210908  0  0  -0.280517  0  3.462427  0  0  -0.299019  0  3.482083  0  -1.226311  0  -0.318439  -0.267743  0  3.448727  0
N  N88  1  0.41790640  0.48109018  0.06343302  1  0  -0.330207  0  3.239542  0  0  -0.280565  0  3.505343  0  0  -0.293302  0  3.520755  0  -1.21364  0  -0.3026  -0.271671  0  3.494884  0
N  N89  1  0.58209381  0.98109107  0.43656737  1  0  -0.330343  0  3.239422  0  0  -0.280631  0  3.505236  0  0  -0.293369  0  3.520648  0  -1.213646  0  -0.302625  -0.271739  0  3.494781  0
N  N90  1  0.58209381  0.51890917  0.93655619  1  0  -0.330384  0  3.239461  0  0  -0.280765  0  3.505379  0  0  -0.293507  0  3.520792  0  -1.2136  0  -0.302634  -0.271872  0  3.494928  0
N  N91  1  0.41790755  0.01891232  0.56344371  1  0  -0.330448  0  3.239629  0  0  -0.28081  0  3.505537  0  0  -0.293553  0  3.520956  0  -1.213656  0  -0.302656  -0.271915  0  3.495078  0
N  N92  1  0.29504860  0.28620669  0.08128163  1  0  -0.344978  0  3.209398  0  0  -0.275972  0  3.467288  0  0  -0.295176  0  3.487093  0  -1.220151  0  -0.31358  -0.262782  0  3.453509  0
N  N93  1  0.70494587  0.78620758  0.41871769  1  0  -0.345009  0  3.209257  0  0  -0.275992  0  3.467117  0  0  -0.295196  0  3.486922  0  -1.22015  0  -0.313556  -0.2628  0  3.45334  0
N  N94  1  0.70494932  0.71379347  0.91871484  1  0  -0.344937  0  3.209342  0  0  -0.275837  0  3.467216  0  0  -0.295039  0  3.487023  0  -1.22009  0  -0.313539  -0.262651  0  3.453434  0
N  N95  1  0.29505090  0.21379419  0.58128555  1  0  -0.344827  0  3.20939  0  0  -0.275794  0  3.467203  0  0  -0.294997  0  3.487011  0  -1.220086  0  -0.313493  -0.262604  0  3.453423  0
N  N96  1  0.93053632  0.53485418  0.07477805  1  0  -0.614437  0  2.798014  0  0  -0.563515  0  3.110909  0  0  -0.593296  0  3.118464  0  -0.350738  0  -0.333233  -0.542781  0  3.105328  0
N  N97  1  0.06946620  0.03484926  0.42522277  1  0  -0.614294  0  2.798088  0  0  -0.563389  0  3.110982  0  0  -0.593167  0  3.118538  0  -0.350482  0  -0.333202  -0.542658  0  3.105402  0
N  N98  1  0.06946046  0.46514517  0.92521193  1  0  -0.614262  0  2.797967  0  0  -0.563344  0  3.110843  0  0  -0.593132  0  3.118415  0  -0.350711  0  -0.333216  -0.542602  0  3.105243  0
N  N99  1  0.93053976  0.96514767  0.57478846  1  0  -0.614256  0  2.797803  0  0  -0.56337  0  3.110676  0  0  -0.593161  0  3.118247  0  -0.350675  0  -0.333229  -0.542631  0  3.105086  0
N  N100  1  0.85743680  0.53937371  0.13262328  1  0  0.415561  0  4.226645  0  0  0.443883  0  4.513172  0  0  0.460843  0  4.543207  0  -0.289088  0  0.082406  0.432377  0  4.492788  0
N  N101  1  0.14256227  0.03937121  0.36737760  1  0  0.415458  0  4.226842  0  0  0.443766  0  4.513383  0  0  0.460725  0  4.543421  0  -0.289355  0  0.082341  0.43226  0  4.492996  0
N  N102  1  0.14256457  0.46062161  0.86736755  1  0  0.41526  0  4.226515  0  0  0.443595  0  4.513046  0  0  0.460553  0  4.543086  0  -0.288717  0  0.082428  0.43209  0  4.492659  0
N  N103  1  0.85743335  0.96062330  0.63263591  1  0  0.415117  0  4.226602  0  0  0.443454  0  4.513138  0  0  0.460412  0  4.543176  0  -0.2888  0  0.082354  0.431949  0  4.492747  0
N  N104  1  0.78547751  0.54485168  0.18796253  1  0  -0.385068  0  2.387429  0  0  -0.386667  0  2.615713  0  0  -0.393232  0  2.625999  0  -0.047029  0  -0.193117  -0.381931  0  2.608915  0
N  N105  1  0.21452041  0.04485322  0.31203534  1  0  -0.385076  0  2.38748  0  0  -0.386635  0  2.615754  0  0  -0.3932  0  2.626042  0  -0.047063  0  -0.193094  -0.381897  0  2.608955  0
N  N106  1  0.21452500  0.45514041  0.81203199  1  0  -0.384927  0  2.387312  0  0  -0.386518  0  2.615584  0  0  -0.393078  0  2.625867  0  -0.047396  0  -0.193149  -0.381786  0  2.608792  0
N  N107  1  0.78547636  0.95514049  0.68796931  1  0  -0.384755  0  2.387502  0  0  -0.386324  0  2.615787  0  0  -0.392879  0  2.62607  0  -0.047382  0  -0.193046  -0.38159  0  2.608986  0
N  N108  1  0.14373467  0.36500316  0.28102279  1  0  0.688062  0  4.128582  0  0  0.734579  0  4.403331  0  0  0.763289  0  4.409247  0  0.815689  0  0.094222  0.715225  0  4.398787  0
N  N109  1  0.85626670  0.86500647  0.21897502  1  0  0.688104  0  4.128625  0  0  0.734651  0  4.403328  0  0  0.763363  0  4.409243  0  0.815585  0  0.094283  0.715298  0  4.398783  0
N  N110  1  0.85627129  0.63500022  0.71896749  1  0  0.688041  0  4.128553  0  0  0.734453  0  4.403444  0  0  0.763166  0  4.409352  0  0.816203  0  0.094207  0.715099  0  4.398904  0
N  N111  1  0.14373007  0.13500176  0.78103381  1  0  0.688108  0  4.128647  0  0  0.734531  0  4.403506  0  0  0.763246  0  4.409417  0  0.816228  0  0.094247  0.715178  0  4.398962  0
O  O112  1  0.24121448  0.43673797  0.26893546  1  0  -0.514985  0  1.774218  0  0  -0.490999  0  1.999224  0  0  -0.511477  0  1.990458  0  -0.591342  0  -0.220632  -0.476501  0  2.00481  0
O  O113  1  0.75878574  0.93673886  0.23106493  1  0  -0.514876  0  1.77414  0  0  -0.490954  0  1.999188  0  0  -0.511432  0  1.990422  0  -0.591343  0  -0.220612  -0.476458  0  2.004774  0
O  O114  1  0.75878804  0.56326541  0.73105488  1  0  -0.51493  0  1.774042  0  0  -0.490946  0  1.999131  0  0  -0.511428  0  1.990363  0  -0.592448  0  -0.220583  -0.476449  0  2.00472  0
O  O115  1  0.24121333  0.06326856  0.76894503  1  0  -0.514951  0  1.774104  0  0  -0.490966  0  1.999175  0  0  -0.511441  0  1.990403  0  -0.592516  0  -0.220601  -0.476472  0  2.004766  0
O  O116  1  0.04210891  0.33140198  0.20543033  1  0  -0.474011  0  1.738035  0  0  -0.462566  0  1.942303  0  0  -0.479738  0  1.935798  0  -0.55202  0  -0.195648  -0.450539  0  1.946541  0
O  O117  1  0.95788901  0.83140125  0.29456824  1  0  -0.474115  0  1.738111  0  0  -0.462647  0  1.942334  0  0  -0.479818  0  1.935826  0  -0.551942  0  -0.195687  -0.450619  0  1.946572  0
O  O118  1  0.95789245  0.66860221  0.79456049  1  0  -0.474081  0  1.73806  0  0  -0.462599  0  1.942365  0  0  -0.479771  0  1.93586  0  -0.551883  0  -0.195769  -0.450572  0  1.946599  0
O  O119  1  0.04210891  0.16860375  0.70544081  1  0  -0.47405  0  1.738079  0  0  -0.462573  0  1.942371  0  0  -0.479751  0  1.935873  0  -0.55182  0  -0.195754  -0.450545  0  1.946605  0
O  O120  1  0.15337829  0.33105184  0.36437194  1  0  -0.41013  0  1.720684  0  0  -0.417333  0  1.913217  0  0  -0.42867  0  1.908352  0  -0.489085  0  -0.176914  -0.409315  0  1.91641  0
O  O121  1  0.84662193  0.83105837  0.13562496  1  0  -0.410137  0  1.720709  0  0  -0.417343  0  1.913225  0  0  -0.428679  0  1.908362  0  -0.48905  0  -0.176947  -0.409325  0  1.916416  0
O  O122  1  0.84663573  0.66895800  0.63562052  1  0  -0.410067  0  1.720849  0  0  -0.417222  0  1.9134  0  0  -0.428559  0  1.908537  0  -0.48872  0  -0.176818  -0.409207  0  1.916593  0
O  O123  1  0.15336679  0.16895792  0.86438100  1  0  -0.410141  0  1.720885  0  0  -0.417288  0  1.913418  0  0  -0.428627  0  1.908556  0  -0.488708  0  -0.176856  -0.409275  0  1.916613  0
