# generated using pymatgen
data_SnH12C5O2
_symmetry_space_group_name_H-M   'P 1'
_cell_length_a   7.84720997
_cell_length_b   9.36481024
_cell_length_c   10.66332177
_cell_angle_alpha   90.00058065
_cell_angle_beta   89.99997970
_cell_angle_gamma   90.00118374
_symmetry_Int_Tables_number   1
_chemical_formula_structural   SnH12C5O2
_chemical_formula_sum   'Sn4 H48 C20 O8'
_cell_volume   783.62226895
_cell_formula_units_Z   4
loop_
 _symmetry_equiv_pos_site_id
 _symmetry_equiv_pos_as_xyz
  1  'x, y, z'
loop_
 _atom_site_type_symbol
 _atom_site_label
 _atom_site_symmetry_multiplicity
 _atom_site_fract_x
 _atom_site_fract_y
 _atom_site_fract_z
 _atom_site_occupancy
 _atom_site_pbe_bader_spin_density
 _atom_site_pbe_cm5_charge
 _atom_site_pbe_ddec_charge
 _atom_site_pbe_ddec_spin_density
 _atom_site_pbe_ddec_sum_bond_order
 _atom_site_pbe_magmom
Sn  Sn0  1  0.25003631  0.17660746  0.09519427  1  0  0.518377  1.210452  0  3.366958  0
Sn  Sn1  1  0.24998613  0.32336175  0.59521362  1  0  0.518501  1.210464  0  3.367045  0
Sn  Sn2  1  0.74997141  0.82341533  0.90484993  1  0  0.518349  1.210159  0  3.366967  0
Sn  Sn3  1  0.75000756  0.67661620  0.40479870  1  0  0.518411  1.210307  0  3.366878  0
H  H4  1  0.24996712  0.84461719  0.75416368  1  0  0.103314  0.166321  0  0.99519  0
H  H5  1  0.25003589  0.65539327  0.25417790  1  0  0.103282  0.166296  0  0.995194  0
H  H6  1  0.75003932  0.15540347  0.24583645  1  0  0.103314  0.166364  0  0.995101  0
H  H7  1  0.74998329  0.34461457  0.74582973  1  0  0.103337  0.166271  0  0.995228  0
H  H8  1  0.13797333  0.96597743  0.65434363  1  0  0.102582  0.157559  0  1.016258  0
H  H9  1  0.36203211  0.53401911  0.15435285  1  0  0.102526  0.157507  0  1.01625  0
H  H10  1  0.63802100  0.03402632  0.34565288  1  0  0.102465  0.15745  0  1.01634  0
H  H11  1  0.86199025  0.46599710  0.84564809  1  0  0.102409  0.157343  0  1.016328  0
H  H12  1  0.86202036  0.03400265  0.34564431  1  0  0.102476  0.157394  0  1.016328  0
H  H13  1  0.63798579  0.46600049  0.84564728  1  0  0.102483  0.157401  0  1.016387  0
H  H14  1  0.36197396  0.96596016  0.65433412  1  0  0.102514  0.157524  0  1.016163  0
H  H15  1  0.13803658  0.53403104  0.15434266  1  0  0.102488  0.157496  0  1.016365  0
H  H16  1  0.24998224  0.01844421  0.30922910  1  0  0.085078  0.168996  0  1.054498  0
H  H17  1  0.25000348  0.48156155  0.80922459  1  0  0.085049  0.168886  0  1.054468  0
H  H18  1  0.75001528  0.98153267  0.69077009  1  0  0.085038  0.168933  0  1.054429  0
H  H19  1  0.74999149  0.51844416  0.19077460  1  0  0.085071  0.169002  0  1.054523  0
H  H20  1  0.13665872  0.92428044  0.18842389  1  0  0.087044  0.171605  0  1.04916  0
H  H21  1  0.36333912  0.57571861  0.68841832  1  0  0.086999  0.171514  0  1.049204  0
H  H22  1  0.63667352  0.07575212  0.81154354  1  0  0.087018  0.171573  0  1.049239  0
H  H23  1  0.86331985  0.42426451  0.31154323  1  0  0.087085  0.171654  0  1.049175  0
H  H24  1  0.86334135  0.07572633  0.81155748  1  0  0.087024  0.171572  0  1.049203  0
H  H25  1  0.63667624  0.42427108  0.31154335  1  0  0.087089  0.171668  0  1.049138  0
H  H26  1  0.36331762  0.92425893  0.18844721  1  0  0.087052  0.171597  0  1.049176  0
H  H27  1  0.13667639  0.57572731  0.68842220  1  0  0.087055  0.171567  0  1.049191  0
H  H28  1  0.96460952  0.34256909  0.11168293  1  0  0.080329  0.161456  0  1.080108  0
H  H29  1  0.53536070  0.15740047  0.61168786  1  0  0.080387  0.16142  0  1.080211  0
H  H30  1  0.46464502  0.65739765  0.88833196  1  0  0.080363  0.161403  0  1.08028  0
H  H31  1  0.03538489  0.84257694  0.38832470  1  0  0.080285  0.161277  0  1.08033  0
H  H32  1  0.03534085  0.65743662  0.88829938  1  0  0.080368  0.161493  0  1.080164  0
H  H33  1  0.46467123  0.84259990  0.38830007  1  0  0.080396  0.161383  0  1.080228  0
H  H34  1  0.53539327  0.34260700  0.11168505  1  0  0.080363  0.161378  0  1.080376  0
H  H35  1  0.96459606  0.15739781  0.61168106  1  0  0.080286  0.16132  0  1.080439  0
H  H36  1  0.91983239  0.18509572  0.02322106  1  0  0.086864  0.178143  0  1.067902  0
H  H37  1  0.58015557  0.31485044  0.52321613  1  0  0.086957  0.178299  0  1.067751  0
H  H38  1  0.41977118  0.81484461  0.97679670  1  0  0.086865  0.178196  0  1.067724  0
H  H39  1  0.08021678  0.68513096  0.47679169  1  0  0.086837  0.178145  0  1.067663  0
H  H40  1  0.08019189  0.81488543  0.97677907  1  0  0.086892  0.17823  0  1.067709  0
H  H41  1  0.41981009  0.68516168  0.47679150  1  0  0.086948  0.178297  0  1.067708  0
H  H42  1  0.58021232  0.18517071  0.02320343  1  0  0.086924  0.178247  0  1.067838  0
H  H43  1  0.91979093  0.31483738  0.52321219  1  0  0.086943  0.178286  0  1.067766  0
H  H44  1  0.03539420  0.32875012  0.95177058  1  0  0.082792  0.164395  0  1.069881  0
H  H45  1  0.46458148  0.17119743  0.45178939  1  0  0.082735  0.164374  0  1.069875  0
H  H46  1  0.53539599  0.67123583  0.04823354  1  0  0.082805  0.164366  0  1.06979  0
H  H47  1  0.96461826  0.82877785  0.54823488  1  0  0.082748  0.164317  0  1.069746  0
H  H48  1  0.96459949  0.67124277  0.04823142  1  0  0.082803  0.164407  0  1.069793  0
H  H49  1  0.53543260  0.82881255  0.54821637  1  0  0.082682  0.164305  0  1.06984  0
H  H50  1  0.46458879  0.32879657  0.95179566  1  0  0.082767  0.164358  0  1.069933  0
H  H51  1  0.03537670  0.17119903  0.45179151  1  0  0.08276  0.164396  0  1.069807  0
C  C52  1  0.24999966  0.06550618  0.81565500  1  0  0.232096  0.682358  0  4.123235  0
C  C53  1  0.25000900  0.43445588  0.31565022  1  0  0.23182  0.681824  0  4.12392  0
C  C54  1  0.74999785  0.93448458  0.18433294  1  0  0.232145  0.682167  0  4.124224  0
C  C55  1  0.74999361  0.56554556  0.68435085  1  0  0.231826  0.681931  0  4.123781  0
C  C56  1  0.24997734  0.95246860  0.71482841  1  0  -0.238798  -0.535394  0  3.867511  0
C  C57  1  0.25002690  0.54753075  0.21484444  1  0  -0.238746  -0.535408  0  3.867749  0
C  C58  1  0.75001635  0.04753498  0.28515390  1  0  -0.23867  -0.53526  0  3.867817  0
C  C59  1  0.74998846  0.45247282  0.78516507  1  0  -0.238782  -0.535196  0  3.867753  0
C  C60  1  0.24999534  0.98816432  0.21005528  1  0  -0.335855  -0.744434  0  3.728564  0
C  C61  1  0.25000125  0.51182857  0.71004550  1  0  -0.335773  -0.744163  0  3.728577  0
C  C62  1  0.74999708  0.01183925  0.78994391  1  0  -0.335765  -0.744253  0  3.728397  0
C  C63  1  0.75000264  0.48817180  0.28994525  1  0  -0.335909  -0.744491  0  3.728894  0
C  C64  1  0.01284357  0.27046817  0.03918228  1  0  -0.34027  -0.753559  0  3.747486  0
C  C65  1  0.48714058  0.22948867  0.53918643  1  0  -0.340374  -0.753631  0  3.747654  0
C  C66  1  0.51281466  0.72951098  0.96083500  1  0  -0.34031  -0.753402  0  3.747407  0
C  C67  1  0.98718731  0.77048380  0.46083876  1  0  -0.340159  -0.753189  0  3.747134  0
C  C68  1  0.98715650  0.72953113  0.96082254  1  0  -0.340328  -0.753624  0  3.747464  0
C  C69  1  0.51284929  0.77050956  0.46082214  1  0  -0.340288  -0.753463  0  3.747443  0
C  C70  1  0.48718668  0.27050861  0.03918482  1  0  -0.340353  -0.753476  0  3.747692  0
C  C71  1  0.01281786  0.22949522  0.53918388  1  0  -0.340337  -0.753554  0  3.747757  0
O  O72  1  0.25002087  0.02299981  0.92987156  1  0  -0.275779  -0.531224  0  2.242252  0
O  O73  1  0.24999684  0.47698380  0.42984654  1  0  -0.275972  -0.531181  0  2.242475  0
O  O74  1  0.74997410  0.97703580  0.07015577  1  0  -0.275802  -0.530974  0  2.242812  0
O  O75  1  0.74999303  0.52298453  0.57015828  1  0  -0.275902  -0.53122  0  2.242155  0
O  O76  1  0.24999718  0.30276591  0.28631541  1  0  -0.286672  -0.575806  0  2.262649  0
O  O77  1  0.24999107  0.19720436  0.78631203  1  0  -0.286978  -0.57624  0  2.262676  0
O  O78  1  0.74999397  0.69723339  0.71367159  1  0  -0.28665  -0.575791  0  2.262658  0
O  O79  1  0.75001027  0.80279067  0.21365152  1  0  -0.286944  -0.576113  0  2.262776  0
