# generated using pymatgen
data_CuH8C12(NO2)2
_symmetry_space_group_name_H-M   'P 1'
_cell_length_a   11.55526906
_cell_length_b   12.20383911
_cell_length_c   12.64763471
_cell_angle_alpha   90.00019725
_cell_angle_beta   118.37267954
_cell_angle_gamma   89.99997598
_symmetry_Int_Tables_number   1
_chemical_formula_structural   CuH8C12(NO2)2
_chemical_formula_sum   'Cu4 H32 C48 N8 O16'
_cell_volume   1569.30355556
_cell_formula_units_Z   4
loop_
 _symmetry_equiv_pos_site_id
 _symmetry_equiv_pos_as_xyz
  1  'x, y, z'
loop_
 _atom_site_type_symbol
 _atom_site_label
 _atom_site_symmetry_multiplicity
 _atom_site_fract_x
 _atom_site_fract_y
 _atom_site_fract_z
 _atom_site_occupancy
 _atom_site_pbe_bader_charge
 _atom_site_pbe_bader_spin_density
 _atom_site_pbe_cm5_charge
 _atom_site_pbe_ddec_charge
 _atom_site_pbe_ddec_spin_density
 _atom_site_pbe_ddec_sum_bond_order
 _atom_site_pbe_magmom
Cu  Cu0  1  0.18045906  0.96796505  0.46768344  1  1.087727  0.56646  0.752002  0.797605  0.727039  2.197689  0.565
Cu  Cu1  1  0.31954320  0.46796421  0.03231832  1  1.087826  0.566461  0.752042  0.797701  0.727039  2.197584  0.565
Cu  Cu2  1  0.81954590  0.03203497  0.53232110  1  1.087795  0.566465  0.752044  0.797678  0.727043  2.197681  0.565
Cu  Cu3  1  0.68044895  0.53203745  0.96767756  1  1.087907  0.566466  0.752049  0.79769  0.72704  2.197587  0.565
H  H4  1  0.09582824  0.76389018  0.14348309  1  0.127029  0.001493  0.113155  0.123738  0.000917  1.003856  0.001
H  H5  1  0.40418060  0.26389046  0.35652555  1  0.126895  0.001493  0.113146  0.123711  0.000917  1.003984  0.001
H  H6  1  0.90416590  0.23611475  0.85651759  1  0.126995  0.001493  0.113159  0.123732  0.000917  1.003864  0.001
H  H7  1  0.59583125  0.73610955  0.64348195  1  0.12706  0.001492  0.113178  0.123779  0.000917  1.003846  0.001
H  H8  1  0.99187538  0.79812207  0.26918380  1  0.17036  0.00104  0.108845  0.132096  0.000618  1.061219  0.001
H  H9  1  0.50812127  0.29812043  0.23081265  1  0.17036  0.00104  0.108821  0.132036  0.000618  1.061243  0.001
H  H10  1  0.00812265  0.20187794  0.73081223  1  0.170359  0.00104  0.108829  0.132104  0.000618  1.061185  0.001
H  H11  1  0.49187581  0.70187467  0.76918613  1  0.170336  0.00104  0.108833  0.132093  0.000618  1.061196  0.001
H  H12  1  0.91354542  0.64528467  0.11686466  1  0.135697  0.002394  0.120104  0.094669  0.001011  1.024072  0.002
H  H13  1  0.58644996  0.14528190  0.38312757  1  0.135676  0.002394  0.120094  0.094658  0.001011  1.024137  0.002
H  H14  1  0.08645064  0.35471617  0.88312973  1  0.135714  0.002394  0.1201  0.094683  0.001011  1.024099  0.002
H  H15  1  0.41355103  0.85471321  0.61687052  1  0.135696  0.002394  0.120108  0.094661  0.001011  1.024108  0.002
H  H16  1  0.11656684  0.61177144  0.02168021  1  0.162464  0.002282  0.120583  0.105526  0.000992  1.037309  0.002
H  H17  1  0.38343880  0.11177216  0.47832655  1  0.16229  0.002282  0.120603  0.105524  0.000992  1.037265  0.002
H  H18  1  0.88342041  0.38823350  0.97831672  1  0.161522  0.002282  0.120544  0.105476  0.000992  1.037248  0.002
H  H19  1  0.61657207  0.88822786  0.52168132  1  0.16252  0.002282  0.120557  0.105497  0.000992  1.037217  0.002
H  H20  1  0.51796829  0.58480484  0.24905652  1  0.13248  0.002609  0.120689  0.102793  0.001288  1.01075  0.002
H  H21  1  0.98203883  0.08480717  0.25094609  1  0.132595  0.002608  0.120739  0.102866  0.001288  1.010734  0.002
H  H22  1  0.48202380  0.41519764  0.75093142  1  0.13238  0.002609  0.120725  0.102841  0.001288  1.010717  0.002
H  H23  1  0.01797204  0.91519285  0.74906336  1  0.13245  0.002609  0.120714  0.102808  0.001288  1.010742  0.002
H  H24  1  0.59297118  0.82828633  0.20895910  1  0.106439  0.001541  0.1116  0.124056  0.00088  0.997679  0.001
H  H25  1  0.90702651  0.32828719  0.29103948  1  0.106469  0.001541  0.111613  0.124071  0.00088  0.997692  0.001
H  H26  1  0.40702885  0.17171451  0.79104174  1  0.10648  0.001541  0.111605  0.12406  0.00088  0.997716  0.001
H  H27  1  0.09296761  0.67171365  0.70895724  1  0.106419  0.001541  0.111595  0.124069  0.00088  0.997616  0.001
H  H28  1  0.52995214  0.67785062  0.05501903  1  0.12045  0.002253  0.119972  0.09221  0.000991  1.013441  0.001
H  H29  1  0.97004431  0.17784873  0.44497694  1  0.12049  0.002253  0.119961  0.092209  0.000991  1.013423  0.001
H  H30  1  0.47004887  0.32215268  0.94498144  1  0.120449  0.002254  0.119969  0.092235  0.000992  1.013419  0.001
H  H31  1  0.02995275  0.82215211  0.55502026  1  0.120442  0.002254  0.119974  0.092186  0.000992  1.013496  0.001
H  H32  1  0.51300848  0.74011603  0.37984712  1  0.098485  0.001169  0.111974  0.120324  0.000597  1.01422  0.001
H  H33  1  0.98700480  0.24011789  0.12015787  1  0.098547  0.001169  0.111986  0.120343  0.000597  1.014266  0.001
H  H34  1  0.48698953  0.25988644  0.62014574  1  0.098459  0.001169  0.111984  0.120299  0.000597  1.014267  0.001
H  H35  1  0.01301000  0.75988049  0.87985090  1  0.09841  0.001169  0.111993  0.120317  0.000597  1.014281  0.001
C  C36  1  0.29637897  0.84823611  0.35573412  1  1.597056  -0.001035  0.198584  0.548649  -0.001323  4.242084  -0.003
C  C37  1  0.20362607  0.34823653  0.14427159  1  1.596942  -0.001035  0.198601  0.548689  -0.001323  4.2419  -0.003
C  C38  1  0.70362597  0.15176473  0.64426725  1  1.59704  -0.001035  0.198646  0.548717  -0.001323  4.242096  -0.003
C  C39  1  0.79637495  0.65176103  0.85573046  1  1.597063  -0.001035  0.198513  0.548519  -0.001322  4.242133  -0.003
C  C40  1  0.84404999  0.91350069  0.34535170  1  1.571027  -0.001488  0.206567  0.576158  -0.001773  4.210964  -0.003
C  C41  1  0.65594390  0.41349953  0.15464395  1  1.570873  -0.001489  0.206578  0.576086  -0.001773  4.211139  -0.003
C  C42  1  0.15594708  0.08650097  0.65464629  1  1.570967  -0.001489  0.206553  0.57609  -0.001773  4.210994  -0.003
C  C43  1  0.34404824  0.58649721  0.84535113  1  1.571025  -0.001489  0.206524  0.57606  -0.001773  4.211181  -0.003
C  C44  1  0.19135453  0.72698543  0.16961924  1  -0.057602  0.006252  -0.076611  -0.135438  0.00429  3.92082  0.005
C  C45  1  0.30865523  0.22698812  0.33038968  1  -0.057361  0.006251  -0.076604  -0.135469  0.00429  3.920821  0.005
C  C46  1  0.80863763  0.27301541  0.83037822  1  -0.056814  0.006249  -0.076638  -0.135435  0.004289  3.92093  0.005
C  C47  1  0.69135957  0.77301026  0.66961988  1  -0.057601  0.006251  -0.076693  -0.135556  0.00429  3.920998  0.005
C  C48  1  0.79771083  0.82442774  0.25096036  1  -0.028847  0.006273  0.005158  0.027448  0.004061  3.926209  0.005
C  C49  1  0.70228586  0.32442772  0.24903619  1  -0.028863  0.006274  0.005167  0.027459  0.004061  3.926164  0.005
C  C50  1  0.20228918  0.17557228  0.74903810  1  -0.028878  0.006272  0.005195  0.027526  0.00406  3.926168  0.005
C  C51  1  0.29770924  0.67557066  0.75096095  1  -0.028857  0.006272  0.005171  0.027471  0.00406  3.926238  0.005
C  C52  1  0.88893057  0.77287258  0.22444794  1  -0.007488  0.006836  -0.081804  -0.145176  0.004703  3.919257  0.005
C  C53  1  0.61106605  0.27287188  0.27555079  1  -0.007855  0.006838  -0.081782  -0.145066  0.004703  3.919178  0.005
C  C54  1  0.11107046  0.22712744  0.77555570  1  -0.007455  0.006835  -0.081759  -0.145163  0.004702  3.919145  0.005
C  C55  1  0.38893102  0.72712405  0.72444879  1  -0.007513  0.006836  -0.081797  -0.145158  0.004703  3.919166  0.005
C  C56  1  0.84650859  0.68884561  0.14034118  1  0.412919  -0.000907  0.043895  0.083414  -0.001677  3.928368  -0.001
C  C57  1  0.65348588  0.18884190  0.35965081  1  0.413377  -0.00091  0.043936  0.083431  -0.001676  3.928521  -0.001
C  C58  1  0.15348945  0.31115769  0.85965564  1  0.412825  -0.000907  0.043909  0.083363  -0.001676  3.928384  -0.001
C  C59  1  0.34651215  0.81115238  0.64034443  1  0.413089  -0.000909  0.043916  0.08343  -0.001677  3.928332  -0.001
C  C60  1  0.20266930  0.64294044  0.10080567  1  0.479915  -0.000997  0.049057  0.087772  -0.001585  3.911419  -0.001
C  C61  1  0.29734130  0.14294584  0.39920254  1  0.479975  -0.000994  0.049046  0.087826  -0.001584  3.911246  -0.001
C  C62  1  0.79732088  0.35706204  0.89918857  1  0.480098  -0.000996  0.049078  0.087786  -0.001586  3.911095  -0.001
C  C63  1  0.70267252  0.85705500  0.60080739  1  0.479382  -0.000996  0.049068  0.087788  -0.001585  3.911166  -0.001
C  C64  1  0.30310445  0.76250065  0.27267693  1  -0.041817  0.00541  0.005206  0.026462  0.003357  3.938088  0.005
C  C65  1  0.19690140  0.26250301  0.22732568  1  -0.041812  0.005408  0.005165  0.02638  0.003355  3.937946  0.005
C  C66  1  0.69689754  0.23749937  0.72732396  1  -0.041524  0.00541  0.005249  0.026476  0.003358  3.938294  0.005
C  C67  1  0.80310354  0.73749619  0.77267648  1  -0.041719  0.005409  0.005294  0.026564  0.003357  3.938271  0.005
C  C68  1  0.42768054  0.62819363  0.22993625  1  0.46506  -0.000221  0.046903  0.086495  -0.000658  3.930199  0.0
C  C69  1  0.07232609  0.12819374  0.27006862  1  0.49759  -0.000296  0.046882  0.086472  -0.000659  3.93021  0.0
C  C70  1  0.57231058  0.37180803  0.77005285  1  0.465173  -0.00022  0.04675  0.086182  -0.000656  3.930535  0.0
C  C71  1  0.92768380  0.87180465  0.72994041  1  0.465242  -0.00022  0.046848  0.086345  -0.000657  3.930399  0.0
C  C72  1  0.66633190  0.79062354  0.18969291  1  -0.000593  0.005485  -0.078856  -0.144173  0.003784  3.937772  0.004
C  C73  1  0.83366474  0.29062123  0.31030430  1  -0.000553  0.005484  -0.078836  -0.14416  0.003783  3.937918  0.004
C  C74  1  0.33366516  0.20937730  0.81030349  1  -0.000574  0.005485  -0.078898  -0.144151  0.003784  3.937856  0.004
C  C75  1  0.16633035  0.70937634  0.68969205  1  -0.000561  0.005485  -0.078888  -0.144272  0.003784  3.937762  0.004
C  C76  1  0.63068259  0.70756592  0.10445693  1  0.461688  -0.000614  0.048676  0.095182  -0.000992  3.933389  0.0
C  C77  1  0.86931491  0.20756554  0.39554196  1  0.461691  -0.000613  0.048672  0.095183  -0.000991  3.93346  0.0
C  C78  1  0.36931646  0.29243410  0.89554428  1  0.461728  -0.000615  0.048635  0.094998  -0.000992  3.933504  0.0
C  C79  1  0.13068215  0.79243530  0.60445445  1  0.461701  -0.000614  0.04871  0.095287  -0.000992  3.933432  0.0
C  C80  1  0.42367639  0.71295807  0.30146745  1  0.008922  0.007098  -0.078442  -0.145926  0.004772  3.948632  0.006
C  C81  1  0.07633235  0.21296037  0.19853861  1  -0.023801  0.007174  -0.078392  -0.145839  0.004772  3.948748  0.006
C  C82  1  0.57632065  0.28704441  0.69852736  1  0.008326  0.007099  -0.078417  -0.145768  0.004772  3.948678  0.006
C  C83  1  0.92367949  0.78704046  0.80146810  1  0.008762  0.007099  -0.078488  -0.14587  0.004772  3.948803  0.006
N  N84  1  0.31898977  0.59417057  0.13172393  1  -1.228766  0.087866  -0.345685  -0.209756  0.05832  3.611072  0.076
N  N85  1  0.18101974  0.09417181  0.36828049  1  -1.228816  0.087863  -0.345706  -0.209807  0.058321  3.610978  0.076
N  N86  1  0.68099647  0.40583027  0.86826862  1  -1.228499  0.087863  -0.345632  -0.209599  0.058318  3.610998  0.076
N  N87  1  0.81899505  0.90582821  0.63172749  1  -1.228352  0.08786  -0.345616  -0.209591  0.058317  3.610927  0.076
N  N88  1  0.71951151  0.65715714  0.08084153  1  -1.210699  0.082576  -0.346323  -0.22071  0.054828  3.618173  0.072
N  N89  1  0.78048490  0.15715605  0.41915435  1  -1.210845  0.08258  -0.346384  -0.220811  0.05483  3.618288  0.072
N  N90  1  0.28048948  0.34284452  0.91915577  1  -1.210725  0.082574  -0.346327  -0.22062  0.054826  3.61821  0.072
N  N91  1  0.21951315  0.84284233  0.58084485  1  -1.210693  0.08258  -0.346348  -0.220733  0.054829  3.618165  0.072
O  O92  1  0.94577464  0.96632015  0.36621164  1  -1.189773  -0.000537  -0.31735  -0.586028  -0.001729  2.310893  0.001
O  O93  1  0.55422528  0.46632305  0.13379151  1  -1.189688  -0.000536  -0.317368  -0.586038  -0.001728  2.310945  0.001
O  O94  1  0.05422441  0.03367905  0.63378878  1  -1.189725  -0.000537  -0.317352  -0.586008  -0.001729  2.310906  0.001
O  O95  1  0.44577084  0.53367533  0.86621002  1  -1.1898  -0.000537  -0.317335  -0.586011  -0.001729  2.310983  0.001
O  O96  1  0.77260001  0.92550685  0.39758593  1  -1.098866  0.10484  -0.326107  -0.551088  0.067024  2.322658  0.096
O  O97  1  0.72739194  0.42550466  0.10241050  1  -1.098824  0.104836  -0.326118  -0.551031  0.067022  2.322764  0.096
O  O98  1  0.22740298  0.07449153  0.60241776  1  -1.09886  0.104834  -0.326109  -0.551048  0.06702  2.322638  0.096
O  O99  1  0.27259824  0.57449454  0.89758453  1  -1.098912  0.104835  -0.326097  -0.551054  0.067021  2.322717  0.096
O  O100  1  0.17963058  0.86593546  0.34204025  1  -1.105144  0.111796  -0.321579  -0.544139  0.071427  2.346792  0.101
O  O101  1  0.32037446  0.36593752  0.15796236  1  -1.105111  0.111797  -0.321637  -0.544192  0.071429  2.346737  0.101
O  O102  1  0.82037142  0.13406784  0.65796223  1  -1.105207  0.111785  -0.321577  -0.54417  0.07142  2.346943  0.101
O  O103  1  0.67963049  0.63406659  0.84204139  1  -1.105236  0.111785  -0.321571  -0.544114  0.071421  2.346918  0.101
O  O104  1  0.39979060  0.89264520  0.43224297  1  -1.168192  0.000133  -0.310224  -0.542204  -0.001159  2.171385  0.0
O  O105  1  0.10021257  0.39264785  0.06776524  1  -1.168076  0.000132  -0.310213  -0.542213  -0.00116  2.171226  0.0
O  O106  1  0.60021434  0.10735072  0.56775919  1  -1.168062  0.000134  -0.310278  -0.542277  -0.001159  2.171329  0.0
O  O107  1  0.89978846  0.60734479  0.93223840  1  -1.168167  0.000134  -0.310197  -0.542191  -0.001159  2.17128  0.0
