# generated using pymatgen
data_Cd2H14C9(NO)6
_symmetry_space_group_name_H-M   'P 1'
_cell_length_a   8.05803799
_cell_length_b   10.73198165
_cell_length_c   12.64181240
_cell_angle_alpha   115.61088526
_cell_angle_beta   109.19939872
_cell_angle_gamma   88.65385248
_symmetry_Int_Tables_number   1
_chemical_formula_structural   Cd2H14C9(NO)6
_chemical_formula_sum   'Cd4 H28 C18 N12 O12'
_cell_volume   921.92232999
_cell_formula_units_Z   2
loop_
 _symmetry_equiv_pos_site_id
 _symmetry_equiv_pos_as_xyz
  1  'x, y, z'
loop_
 _atom_site_type_symbol
 _atom_site_label
 _atom_site_symmetry_multiplicity
 _atom_site_fract_x
 _atom_site_fract_y
 _atom_site_fract_z
 _atom_site_occupancy
 _atom_site_hle17_bader_spin_density
 _atom_site_hle17_ddec_charge
 _atom_site_hle17_ddec_spin_density
 _atom_site_hle17_ddec_sum_bond_order
 _atom_site_hle17_magmom
 _atom_site_hse06_10hf_bader_spin_density
 _atom_site_hse06_10hf_ddec_charge
 _atom_site_hse06_10hf_ddec_spin_density
 _atom_site_hse06_10hf_ddec_sum_bond_order
 _atom_site_hse06_10hf_magmom
 _atom_site_hse06_bader_spin_density
 _atom_site_hse06_ddec_charge
 _atom_site_hse06_ddec_spin_density
 _atom_site_hse06_ddec_sum_bond_order
 _atom_site_hse06_magmom
 _atom_site_pbe_bader_spin_density
 _atom_site_pbe_cm5_charge
 _atom_site_pbe_ddec_charge
 _atom_site_pbe_ddec_spin_density
 _atom_site_pbe_ddec_sum_bond_order
 _atom_site_pbe_magmom
Cd  Cd0  1  0.72721502  0.25406495  0.76511618  1  0  1.08915  0  1.748779  0  0  0.881306  0  2.212931  0  0  0.937363  0  2.161296  0  0  0.790263  0.838812  0  2.250601  0
Cd  Cd1  1  0.46187614  0.48950534  0.23485252  1  0  1.08824  0  1.74796  0  0  0.880271  0  2.211535  0  0  0.936304  0  2.160056  0  0  0.789717  0.837684  0  2.249222  0
Cd  Cd2  1  0.05423158  0.98319721  0.66866903  1  0  1.104001  0  1.704821  0  0  0.898785  0  2.152154  0  0  0.949184  0  2.106026  0  0  0.811885  0.861536  0  2.184848  0
Cd  Cd3  1  0.88492135  0.31446975  0.33123248  1  0  1.10445  0  1.705436  0  0  0.899559  0  2.153016  0  0  0.949978  0  2.106809  0  0  0.812053  0.862424  0  2.185642  0
H  H4  1  0.37593767  0.99068475  0.62477749  1  0  0.41962  0  0.890783  0  0  0.387184  0  0.956696  0  0  0.399027  0  0.939643  0  0  0.281169  0.378798  0  0.968786  0
H  H5  1  0.25022152  0.36628506  0.37521619  1  0  0.419808  0  0.890753  0  0  0.387465  0  0.956314  0  0  0.399282  0  0.939299  0  0  0.281315  0.379117  0  0.968343  0
H  H6  1  0.25446048  0.86045243  0.49637919  1  0  0.424668  0  0.88137  0  0  0.390683  0  0.949857  0  0  0.402802  0  0.932571  0  0  0.280509  0.382038  0  0.962092  0
H  H7  1  0.25747004  0.36391265  0.50350145  1  0  0.424642  0  0.881523  0  0  0.391072  0  0.949207  0  0  0.403159  0  0.931979  0  0  0.280806  0.382508  0  0.961334  0
H  H8  1  0.02391428  0.90047481  0.83982309  1  0  0.422253  0  0.87917  0  0  0.392322  0  0.941764  0  0  0.403358  0  0.925435  0  0  0.283608  0.384516  0  0.953287  0
H  H9  1  0.68306787  0.06116443  0.16062783  1  0  0.423555  0  0.877283  0  0  0.393407  0  0.940115  0  0  0.404463  0  0.923757  0  0  0.284263  0.385556  0  0.951714  0
H  H10  1  0.22474371  0.93790627  0.92298262  1  0  0.409541  0  0.844177  0  0  0.393076  0  0.902213  0  0  0.400878  0  0.891867  0  0  0.306339  0.387523  0  0.908575  0
H  H11  1  0.80074008  0.01456282  0.07746689  1  0  0.409655  0  0.844745  0  0  0.39298  0  0.902838  0  0  0.4008  0  0.891961  0  0  0.306486  0.387443  0  0.909169  0
H  H12  1  0.64823401  0.31955770  0.51082099  1  0  0.09521  0  0.936702  0  0  0.106628  0  0.997117  0  0  0.108068  0  0.995596  0  0  0.135938  0.105335  0  0.998546  0
H  H13  1  0.63778761  0.80902877  0.48885211  1  0  0.094014  0  0.93525  0  0  0.105308  0  0.996092  0  0  0.106855  0  0.994431  0  0  0.135783  0.104004  0  0.99755  0
H  H14  1  0.02839807  0.05645157  0.42432484  1  0  0.095387  0  0.939917  0  0  0.105813  0  1.00312  0  0  0.107492  0  1.000467  0  0  0.136967  0.104484  0  1.005121  0
H  H15  1  0.10373384  0.63177552  0.57595505  1  0  0.09366  0  0.941465  0  0  0.104844  0  1.00382  0  0  0.106529  0  1.001166  0  0  0.136518  0.10354  0  1.005797  0
H  H16  1  0.07793001  0.49340285  0.00432759  1  0  0.100431  0  0.908493  0  0  0.11461  0  0.960539  0  0  0.116523  0  0.958228  0  0  0.141425  0.113048  0  0.962382  0
H  H17  1  0.57398684  0.48924947  0.99569478  1  0  0.100578  0  0.907441  0  0  0.114649  0  0.95969  0  0  0.116578  0  0.957364  0  0  0.141249  0.113081  0  0.961528  0
H  H18  1  0.38769469  0.16855431  0.96844834  1  0  0.091909  0  0.936261  0  0  0.104893  0  0.995677  0  0  0.10666  0  0.993499  0  0  0.13176  0.103511  0  0.997289  0
H  H19  1  0.91838345  0.19950757  0.03152043  1  0  0.09148  0  0.936471  0  0  0.104046  0  0.99648  0  0  0.105843  0  0.994246  0  0  0.131049  0.102535  0  0.998315  0
H  H20  1  0.46511392  0.79008132  0.62599727  1  0  0.102686  0  0.95149  0  0  0.1186  0  1.013125  0  0  0.120493  0  1.01291  0  0  0.102479  0.117185  0  1.013348  0
H  H21  1  0.33745654  0.16468788  0.37372941  1  0  0.101873  0  0.952614  0  0  0.117238  0  1.014664  0  0  0.119113  0  1.014543  0  0  0.102  0.115833  0  1.014856  0
H  H22  1  0.44508092  0.87218949  0.77302933  1  0  0.09672  0  0.931322  0  0  0.116632  0  0.986879  0  0  0.118125  0  0.986611  0  0  0.097347  0.11551  0  0.987334  0
H  H23  1  0.17076943  0.09923105  0.22648325  1  0  0.0965  0  0.930659  0  0  0.115841  0  0.986433  0  0  0.11745  0  0.986053  0  0  0.097031  0.114701  0  0.986897  0
H  H24  1  0.72223633  0.67780861  0.70998188  1  0  0.071255  0  0.922203  0  0  0.090335  0  0.978992  0  0  0.091104  0  0.98001  0  0  0.089322  0.089807  0  0.978268  0
H  H25  1  0.51190924  0.96911212  0.29006201  1  0  0.07081  0  0.923529  0  0  0.090215  0  0.980082  0  0  0.091083  0  0.980992  0  0  0.089331  0.089625  0  0.979441  0
H  H26  1  0.69041093  0.74962764  0.85519086  1  0  0.064258  0  0.92658  0  0  0.082485  0  0.984686  0  0  0.084407  0  0.983098  0  0  0.087005  0.081099  0  0.985862  0
H  H27  1  0.33477402  0.89509089  0.14484779  1  0  0.065231  0  0.926544  0  0  0.083402  0  0.984824  0  0  0.085362  0  0.983228  0  0  0.087372  0.081992  0  0.986017  0
H  H28  1  0.39388304  0.57524299  0.60156375  1  0  0.096784  0  0.953141  0  0  0.113825  0  1.011685  0  0  0.115925  0  1.010768  0  0  0.097542  0.112429  0  1.012351  0
H  H29  1  0.29278416  0.97412316  0.39864269  1  0  0.096747  0  0.953086  0  0  0.114109  0  1.011302  0  0  0.116173  0  1.010445  0  0  0.097789  0.112722  0  1.011962  0
H  H30  1  0.37504162  0.63361177  0.74963211  1  0  0.10345  0  0.91272  0  0  0.123857  0  0.96256  0  0  0.125525  0  0.962494  0  0  0.102803  0.122847  0  0.962582  0
H  H31  1  0.12542622  0.88452170  0.25070587  1  0  0.102897  0  0.91122  0  0  0.123082  0  0.961581  0  0  0.124757  0  0.96151  0  0  0.102697  0.122076  0  0.961598  0
C  C32  1  0.73843156  0.24253050  0.50771515  1  0  0.2103  0  3.730258  0  0  0.152144  0  4.00043  0  0  0.165698  0  4.016568  0  0  0.140505  0.143084  0  3.989451  0
C  C33  1  0.73090113  0.73496277  0.49209000  1  0  0.212891  0  3.726399  0  0  0.154707  0  3.996794  0  0  0.16822  0  4.012908  0  0  0.140505  0.145644  0  3.985796  0
C  C34  1  0.93094420  0.10891215  0.46358098  1  0  0.22784  0  3.704054  0  0  0.173342  0  3.965352  0  0  0.187648  0  3.979848  0  0  0.14571  0.16372  0  3.955447  0
C  C35  1  0.96714132  0.64517663  0.53653832  1  0  0.2299  0  3.70447  0  0  0.174793  0  3.965576  0  0  0.189097  0  3.980059  0  0  0.145509  0.165155  0  3.955663  0
C  C36  1  0.12580756  0.39394254  0.96679267  1  0  0.217239  0  3.729036  0  0  0.161223  0  4.00041  0  0  0.174756  0  4.01482  0  0  0.141501  0.15225  0  3.990353  0
C  C37  1  0.65916800  0.42722039  0.03324080  1  0  0.215696  0  3.728908  0  0  0.159657  0  4.000802  0  0  0.173182  0  4.015186  0  0  0.140395  0.150688  0  3.990712  0
C  C38  1  0.28260434  0.22902284  0.94853070  1  0  0.202197  0  3.747728  0  0  0.142436  0  4.018458  0  0  0.155981  0  4.034704  0  0  0.132062  0.133431  0  4.007242  0
C  C39  1  0.83354763  0.28018231  0.05145512  1  0  0.202503  0  3.746836  0  0  0.143149  0  4.017483  0  0  0.156693  0  4.033683  0  0  0.132308  0.134184  0  4.006295  0
C  C40  1  0.66491343  0.96010612  0.75886264  1  0  0.706936  0  3.848945  0  0  0.653983  0  4.159155  0  0  0.687543  0  4.152355  0  0  0.204399  0.631246  0  4.162722  0
C  C41  1  0.40474479  0.20202587  0.24114138  1  0  0.707075  0  3.846291  0  0  0.653796  0  4.156473  0  0  0.687349  0  4.149642  0  0  0.204113  0.631036  0  4.160041  0
C  C42  1  0.54328782  0.83326461  0.72684181  1  0  -0.288802  0  3.716536  0  0  -0.325734  0  3.969461  0  0  -0.332479  0  3.980193  0  0  -0.172958  -0.32111  0  3.962217  0
C  C43  1  0.31521747  0.10697609  0.27294407  1  0  -0.287999  0  3.71746  0  0  -0.323239  0  3.968704  0  0  -0.33014  0  3.979761  0  0  -0.172156  -0.318515  0  3.961272  0
C  C44  1  0.62229299  0.71551344  0.75427504  1  0  -0.047722  0  3.700433  0  0  -0.092476  0  3.966196  0  0  -0.091644  0  3.979188  0  0  -0.168709  -0.092896  0  3.957279  0
C  C45  1  0.36754525  0.96203218  0.24573020  1  0  -0.049373  0  3.701895  0  0  -0.094754  0  3.967614  0  0  -0.093979  0  3.980743  0  0  -0.169575  -0.095117  0  3.958546  0
C  C46  1  0.46939717  0.59819539  0.69940972  1  0  -0.27018  0  3.680458  0  0  -0.30552  0  3.929048  0  0  -0.312153  0  3.9391  0  0  -0.168069  -0.300857  0  3.921708  0
C  C47  1  0.27006020  0.89932527  0.30069206  1  0  -0.268002  0  3.676939  0  0  -0.303643  0  3.925496  0  0  -0.310285  0  3.935676  0  0  -0.167836  -0.298896  0  3.918035  0
C  C48  1  0.51746610  0.46118930  0.70085802  1  0  0.689177  0  3.877095  0  0  0.644507  0  4.174945  0  0  0.677875  0  4.169478  0  0  0.198223  0.62207  0  4.177078  0
C  C49  1  0.31694618  0.76080286  0.29893230  1  0  0.688258  0  3.877678  0  0  0.644295  0  4.174573  0  0  0.677666  0  4.169132  0  0  0.198079  0.621851  0  4.176691  0
N  N50  1  0.88548729  0.08613581  0.54658755  1  0  -0.307082  0  3.165213  0  0  -0.243586  0  3.451006  0  0  -0.260753  0  3.468785  0  0  -0.259604  -0.231071  0  3.438527  0
N  N51  1  0.83848130  0.53949290  0.45348745  1  0  -0.308322  0  3.165137  0  0  -0.245192  0  3.451395  0  0  -0.262344  0  3.469159  0  0  -0.259606  -0.232684  0  3.438899  0
N  N52  1  0.76080510  0.17181612  0.57443538  1  0  -0.292325  0  3.19449  0  0  -0.228024  0  3.483067  0  0  -0.245741  0  3.501005  0  0  -0.263265  -0.215845  0  3.470593  0
N  N53  1  0.68620584  0.59752020  0.42545478  1  0  -0.291793  0  3.195519  0  0  -0.227152  0  3.48393  0  0  -0.244896  0  3.501889  0  0  -0.262642  -0.214936  0  3.471404  0
N  N54  1  0.84170907  0.20612391  0.43640146  1  0  -0.438095  0  3.247566  0  0  -0.345673  0  3.526767  0  0  -0.371788  0  3.542544  0  0  -0.36977  -0.327331  0  3.515771  0
N  N55  1  0.90547351  0.76971072  0.56355993  1  0  -0.438726  0  3.24733  0  0  -0.346035  0  3.526441  0  0  -0.372179  0  3.542241  0  0  -0.368956  -0.327666  0  3.515419  0
N  N56  1  0.14377171  0.18401249  0.84162771  1  0  -0.309783  0  3.272492  0  0  -0.229528  0  3.556408  0  0  -0.249426  0  3.57609  0  0  -0.270102  -0.215869  0  3.542625  0
N  N57  1  0.80193314  0.34248344  0.15842881  1  0  -0.309545  0  3.270562  0  0  -0.22942  0  3.554607  0  0  -0.249321  0  3.574246  0  0  -0.269937  -0.215856  0  3.540805  0
N  N58  1  0.04179900  0.29014234  0.85311411  1  0  -0.301466  0  3.150065  0  0  -0.244974  0  3.431722  0  0  -0.261278  0  3.44971  0  0  -0.263193  -0.233592  0  3.418934  0
N  N59  1  0.68888792  0.43739283  0.14697435  1  0  -0.300612  0  3.147343  0  0  -0.24414  0  3.428799  0  0  -0.260419  0  3.446802  0  0  -0.262582  -0.232719  0  3.415969  0
N  N60  1  0.27605385  0.36028362  0.02984670  1  0  -0.433104  0  3.228047  0  0  -0.352597  0  3.513524  0  0  -0.377131  0  3.528985  0  0  -0.362446  -0.335636  0  3.502571  0
N  N61  1  0.74587508  0.33008483  0.97010004  1  0  -0.433717  0  3.22699  0  0  -0.353362  0  3.512616  0  0  -0.377892  0  3.528026  0  0  -0.362284  -0.336414  0  3.501609  0
O  O62  1  0.82837153  0.98160288  0.82139646  1  0  -0.67119  0  1.962115  0  0  -0.617786  0  2.200316  0  0  -0.642452  0  2.18873  0  0  -0.32997  -0.600233  0  2.207487  0
O  O63  1  0.50629370  0.16123821  0.17906676  1  0  -0.67175  0  1.960228  0  0  -0.618357  0  2.198846  0  0  -0.643028  0  2.187249  0  0  -0.329693  -0.600772  0  2.206075  0
O  O64  1  0.58501385  0.04403414  0.71616352  1  0  -0.677157  0  2.046374  0  0  -0.597954  0  2.300291  0  0  -0.628852  0  2.286585  0  0  -0.334697  -0.576211  0  2.310119  0
O  O65  1  0.36695756  0.32848589  0.28341808  1  0  -0.676291  0  2.045011  0  0  -0.597282  0  2.298654  0  0  -0.628034  0  2.284915  0  0  -0.334535  -0.5756  0  2.308457  0
O  O66  1  0.66062776  0.46611931  0.78645270  1  0  -0.645591  0  1.966638  0  0  -0.577556  0  2.211898  0  0  -0.607351  0  2.200366  0  0  -0.343416  -0.555986  0  2.218647  0
O  O67  1  0.37420524  0.68018997  0.21310358  1  0  -0.645379  0  1.965269  0  0  -0.577407  0  2.209473  0  0  -0.607218  0  2.198061  0  0  -0.343925  -0.556091  0  2.216488  0
O  O68  1  0.41489281  0.34873044  0.61801904  1  0  -0.662386  0  1.904024  0  0  -0.609019  0  2.11846  0  0  -0.634103  0  2.106688  0  0  -0.34152  -0.590466  0  2.1262  0
O  O69  1  0.29745431  0.73092175  0.38162692  1  0  -0.662375  0  1.904859  0  0  -0.609079  0  2.119289  0  0  -0.634134  0  2.107473  0  0  -0.34097  -0.590261  0  2.126963  0
O  O70  1  0.24909251  0.95056580  0.56870705  1  0  -0.86518  0  1.894978  0  0  -0.791062  0  2.102409  0  0  -0.815886  0  2.066079  0  0  -0.596881  -0.773174  0  2.127647  0
O  O71  1  0.17972422  0.38200803  0.43139970  1  0  -0.865974  0  1.895238  0  0  -0.79212  0  2.103004  0  0  -0.816939  0  2.066754  0  0  -0.59775  -0.774323  0  2.128011  0
O  O72  1  0.14423705  0.88094555  0.83754888  1  0  -0.830179  0  1.770367  0  0  -0.786656  0  1.930946  0  0  -0.804959  0  1.902571  0  0  -0.593885  -0.773508  0  1.949688  0
O  O73  1  0.80565713  0.04374609  0.16297891  1  0  -0.831375  0  1.771645  0  0  -0.787226  0  1.933452  0  0  -0.80557  0  1.904449  0  0  -0.594193  -0.774041  0  1.952284  0
