# generated using pymatgen
data_ZnPH5CNO3
_symmetry_space_group_name_H-M   'P 1'
_cell_length_a   5.21573355
_cell_length_b   8.43880856
_cell_length_c   10.77493897
_cell_angle_alpha   89.99995751
_cell_angle_beta   89.99776603
_cell_angle_gamma   100.78417479
_symmetry_Int_Tables_number   1
_chemical_formula_structural   ZnPH5CNO3
_chemical_formula_sum   'Zn4 P4 H20 C4 N4 O12'
_cell_volume   465.87855806
_cell_formula_units_Z   4
loop_
 _symmetry_equiv_pos_site_id
 _symmetry_equiv_pos_as_xyz
  1  'x, y, z'
loop_
 _atom_site_type_symbol
 _atom_site_label
 _atom_site_symmetry_multiplicity
 _atom_site_fract_x
 _atom_site_fract_y
 _atom_site_fract_z
 _atom_site_occupancy
 _atom_site_hle17_bader_spin_density
 _atom_site_hle17_ddec_charge
 _atom_site_hle17_ddec_spin_density
 _atom_site_hle17_ddec_sum_bond_order
 _atom_site_hle17_magmom
 _atom_site_hse06_10hf_bader_spin_density
 _atom_site_hse06_10hf_ddec_charge
 _atom_site_hse06_10hf_ddec_spin_density
 _atom_site_hse06_10hf_ddec_sum_bond_order
 _atom_site_hse06_10hf_magmom
 _atom_site_hse06_bader_spin_density
 _atom_site_hse06_ddec_charge
 _atom_site_hse06_ddec_spin_density
 _atom_site_hse06_ddec_sum_bond_order
 _atom_site_hse06_magmom
 _atom_site_pbe_bader_spin_density
 _atom_site_pbe_cm5_charge
 _atom_site_pbe_ddec_charge
 _atom_site_pbe_ddec_spin_density
 _atom_site_pbe_ddec_sum_bond_order
 _atom_site_pbe_magmom
Zn  Zn0  1  0.98403065  0.18089611  0.37046063  1  0  1.152368  0  1.778005  0  0  0.975969  0  2.254835  0  0  1.018298  0  2.197316  0  0  0.707163  0.945754  0  2.294621  0
Zn  Zn1  1  0.51600346  0.31912797  0.87047025  1  0  1.152273  0  1.778003  0  0  0.975827  0  2.254841  0  0  1.018162  0  2.197318  0  0  0.706998  0.945614  0  2.294634  0
Zn  Zn2  1  0.01598015  0.81911759  0.62953801  1  0  1.152341  0  1.778067  0  0  0.975968  0  2.25493  0  0  1.018302  0  2.197402  0  0  0.707196  0.945752  0  2.294718  0
Zn  Zn3  1  0.48398579  0.68086391  0.12953581  1  0  1.152173  0  1.777957  0  0  0.97577  0  2.254814  0  0  1.01811  0  2.197288  0  0  0.706981  0.945548  0  2.294603  0
P  P4  1  0.76725783  0.37505552  0.14332316  1  0  1.43023  0  4.921728  0  0  1.240864  0  5.417468  0  0  1.291087  0  5.381598  0  0  0.282088  1.205676  0  5.441572  0
P  P5  1  0.73274469  0.12494556  0.64332951  1  0  1.429968  0  4.921153  0  0  1.240617  0  5.416871  0  0  1.290858  0  5.38099  0  0  0.282168  1.205448  0  5.44098  0
P  P6  1  0.23273773  0.62493159  0.85667455  1  0  1.430277  0  4.921723  0  0  1.240981  0  5.417469  0  0  1.291168  0  5.381591  0  0  0.282113  1.20581  0  5.441582  0
P  P7  1  0.26726316  0.87506451  0.35667748  1  0  1.430228  0  4.921136  0  0  1.240911  0  5.416838  0  0  1.291134  0  5.380964  0  0  0.28222  1.205733  0  5.440946  0
H  H8  1  0.99819829  0.48721862  0.16478736  1  0  -0.146097  0  0.944675  0  0  -0.111216  0  1.029631  0  0  -0.11496  0  1.02552  0  0  0.089418  -0.109196  0  1.033209  0
H  H9  1  0.50176849  0.01278449  0.66477507  1  0  -0.146017  0  0.94462  0  0  -0.111165  0  1.029586  0  0  -0.114894  0  1.025461  0  0  0.089398  -0.109148  0  1.033167  0
H  H10  1  0.00180475  0.51277456  0.83520200  1  0  -0.14608  0  0.944563  0  0  -0.111285  0  1.029606  0  0  -0.11496  0  1.025419  0  0  0.089417  -0.109261  0  1.033181  0
H  H11  1  0.49823840  0.98720872  0.33521800  1  0  -0.14605  0  0.944625  0  0  -0.111216  0  1.029611  0  0  -0.114929  0  1.025468  0  0  0.08942  -0.1092  0  1.033193  0
H  H12  1  0.46255590  0.25246321  0.42083396  1  0  0.307093  0  0.940197  0  0  0.293967  0  0.997736  0  0  0.30035  0  0.993936  0  0  0.289191  0.289344  0  1.000613  0
H  H13  1  0.03744832  0.24752196  0.92084623  1  0  0.307313  0  0.940484  0  0  0.29418  0  0.997967  0  0  0.300563  0  0.994173  0  0  0.289312  0.289558  0  1.000847  0
H  H14  1  0.53745490  0.74755050  0.57917024  1  0  0.307094  0  0.940187  0  0  0.294027  0  0.997646  0  0  0.300407  0  0.993856  0  0  0.289233  0.289407  0  1.000513  0
H  H15  1  0.96253030  0.75246623  0.07915798  1  0  0.307311  0  0.940272  0  0  0.29419  0  0.997791  0  0  0.300578  0  0.99398  0  0  0.289283  0.289566  0  1.000674  0
H  H16  1  0.39044283  0.38067403  0.31706119  1  0  0.309759  0  0.943784  0  0  0.297543  0  0.998125  0  0  0.30422  0  0.994099  0  0  0.287497  0.292835  0  1.00092  0
H  H17  1  0.10958407  0.11934681  0.81705958  1  0  0.309905  0  0.943683  0  0  0.297689  0  0.998035  0  0  0.304374  0  0.994  0  0  0.287502  0.292982  0  1.000838  0
H  H18  1  0.60955699  0.61933478  0.68294580  1  0  0.30983  0  0.943773  0  0  0.297639  0  0.99809  0  0  0.304321  0  0.994048  0  0  0.28751  0.292926  0  1.000908  0
H  H19  1  0.89039325  0.88065703  0.18293720  1  0  0.309834  0  0.943739  0  0  0.297604  0  0.99814  0  0  0.304288  0  0.994102  0  0  0.287451  0.292898  0  1.000929  0
H  H20  1  0.31647669  0.39025246  0.58936223  1  0  0.062519  0  0.92485  0  0  0.081765  0  0.984726  0  0  0.082333  0  0.984473  0  0  0.103864  0.081218  0  0.985106  0
H  H21  1  0.18350322  0.10972481  0.08936200  1  0  0.062622  0  0.924751  0  0  0.081882  0  0.98458  0  0  0.082438  0  0.984322  0  0  0.103954  0.081298  0  0.984996  0
H  H22  1  0.68354598  0.60976253  0.41065126  1  0  0.062515  0  0.924834  0  0  0.081816  0  0.984639  0  0  0.082382  0  0.984388  0  0  0.103873  0.081245  0  0.985031  0
H  H23  1  0.81647025  0.89024529  0.91063107  1  0  0.062484  0  0.924512  0  0  0.081672  0  0.984446  0  0  0.082229  0  0.984195  0  0  0.103887  0.081126  0  0.984829  0
H  H24  1  0.22148949  0.53055132  0.48324160  1  0  0.063218  0  0.955044  0  0  0.081164  0  1.017273  0  0  0.081614  0  1.01762  0  0  0.103419  0.080716  0  1.017183  0
H  H25  1  0.27849748  0.96943312  0.98323205  1  0  0.063156  0  0.955119  0  0  0.081178  0  1.017235  0  0  0.081618  0  1.017582  0  0  0.10351  0.080756  0  1.017118  0
H  H26  1  0.77854800  0.46946859  0.51676446  1  0  0.063168  0  0.955072  0  0  0.081129  0  1.017278  0  0  0.08158  0  1.017631  0  0  0.103394  0.080663  0  1.017202  0
H  H27  1  0.72148066  0.03054664  0.01674988  1  0  0.063087  0  0.955039  0  0  0.081048  0  1.017215  0  0  0.081493  0  1.01756  0  0  0.103405  0.080618  0  1.017113  0
C  C28  1  0.36085985  0.45028606  0.49930646  1  0  0.060092  0  3.608643  0  0  0.002022  0  3.872018  0  0  0.005837  0  3.884572  0  0  -0.075683  -0.000496  0  3.863402  0
C  C29  1  0.13911609  0.04967680  0.99930176  1  0  0.059947  0  3.609809  0  0  0.001954  0  3.872941  0  0  0.005776  0  3.885492  0  0  -0.07597  -0.00056  0  3.864323  0
C  C30  1  0.63915740  0.54973010  0.50070239  1  0  0.060165  0  3.608274  0  0  0.002115  0  3.871643  0  0  0.005921  0  3.884205  0  0  -0.075653  -0.000369  0  3.863019  0
C  C31  1  0.86087061  0.95029942  0.00068574  1  0  0.060443  0  3.609466  0  0  0.002534  0  3.872628  0  0  0.006343  0  3.885188  0  0  -0.075702  5e-06  0  3.864013  0
N  N32  1  0.32973634  0.32568403  0.40090361  1  0  -0.68158  0  3.131406  0  0  -0.614972  0  3.398192  0  0  -0.636499  0  3.392529  0  0  -0.639203  -0.599842  0  3.401804  0
N  N33  1  0.17021461  0.17429004  0.90092949  1  0  -0.681892  0  3.131838  0  0  -0.615405  0  3.398749  0  0  -0.636945  0  3.393052  0  0  -0.639117  -0.600259  0  3.40235  0
N  N34  1  0.67028352  0.67433455  0.59910895  1  0  -0.681611  0  3.131264  0  0  -0.615149  0  3.398127  0  0  -0.636671  0  3.392452  0  0  -0.63926  -0.600015  0  3.401731  0
N  N35  1  0.82976448  0.82570658  0.09906822  1  0  -0.681842  0  3.131764  0  0  -0.615374  0  3.398641  0  0  -0.636914  0  3.392967  0  0  -0.639064  -0.600232  0  3.402247  0
O  O36  1  0.76910676  0.23168657  0.23050160  1  0  -0.841365  0  2.020592  0  0  -0.740246  0  2.324021  0  0  -0.768581  0  2.299442  0  0  -0.387838  -0.719689  0  2.340355  0
O  O37  1  0.73087950  0.26832353  0.73053720  1  0  -0.841363  0  2.020616  0  0  -0.740115  0  2.323893  0  0  -0.768512  0  2.299421  0  0  -0.38782  -0.719565  0  2.340251  0
O  O38  1  0.23090396  0.76830667  0.76949240  1  0  -0.841429  0  2.020357  0  0  -0.740316  0  2.323765  0  0  -0.768631  0  2.299155  0  0  -0.387898  -0.719736  0  2.340056  0
O  O39  1  0.26910584  0.73168157  0.26947350  1  0  -0.841433  0  2.020369  0  0  -0.740212  0  2.323678  0  0  -0.768555  0  2.299101  0  0  -0.387916  -0.719658  0  2.340023  0
O  O40  1  0.53500582  0.45995286  0.17144686  1  0  -0.859101  0  2.063188  0  0  -0.756793  0  2.360773  0  0  -0.78484  0  2.335761  0  0  -0.381833  -0.736974  0  2.377127  0
O  O41  1  0.96497185  0.04002983  0.67146877  1  0  -0.859019  0  2.063231  0  0  -0.756694  0  2.360765  0  0  -0.78479  0  2.335795  0  0  -0.381826  -0.736899  0  2.377137  0
O  O42  1  0.46498673  0.54004386  0.82854064  1  0  -0.85917  0  2.063394  0  0  -0.756809  0  2.360882  0  0  -0.784857  0  2.335891  0  0  -0.381826  -0.737003  0  2.37725  0
O  O43  1  0.03503271  0.95997540  0.32854193  1  0  -0.859183  0  2.063294  0  0  -0.756878  0  2.360864  0  0  -0.784952  0  2.335879  0  0  -0.381865  -0.737088  0  2.377239  0
O  O44  1  0.77045056  0.32602888  0.00583380  1  0  -0.857084  0  2.113278  0  0  -0.750018  0  2.411149  0  0  -0.778792  0  2.386919  0  0  -0.378069  -0.729294  0  2.427325  0
O  O45  1  0.72957080  0.17399118  0.50583355  1  0  -0.857051  0  2.113054  0  0  -0.750052  0  2.410986  0  0  -0.778815  0  2.386743  0  0  -0.378161  -0.729338  0  2.427162  0
O  O46  1  0.22953752  0.67395216  0.99415834  1  0  -0.856989  0  2.113241  0  0  -0.750039  0  2.411209  0  0  -0.778827  0  2.386992  0  0  -0.378054  -0.729328  0  2.427399  0
O  O47  1  0.27044103  0.82602614  0.49416416  1  0  -0.857056  0  2.113258  0  0  -0.750072  0  2.411188  0  0  -0.778862  0  2.386965  0  0  -0.378106  -0.729346  0  2.427353  0
