# generated using pymatgen
data_CoH2C4O3
_symmetry_space_group_name_H-M   'P 1'
_cell_length_a   6.66784021
_cell_length_b   15.11510699
_cell_length_c   15.11516206
_cell_angle_alpha   117.89403888
_cell_angle_beta   98.43422360
_cell_angle_gamma   98.43534034
_symmetry_Int_Tables_number   1
_chemical_formula_structural   CoH2C4O3
_chemical_formula_sum   'Co6 H12 C24 O18'
_cell_volume   1290.80433381
_cell_formula_units_Z   6
loop_
 _symmetry_equiv_pos_site_id
 _symmetry_equiv_pos_as_xyz
  1  'x, y, z'
loop_
 _atom_site_type_symbol
 _atom_site_label
 _atom_site_symmetry_multiplicity
 _atom_site_fract_x
 _atom_site_fract_y
 _atom_site_fract_z
 _atom_site_occupancy
 _atom_site_hle17_ddec_charge
 _atom_site_hle17_ddec_spin_density
 _atom_site_hle17_ddec_sum_bond_order
 _atom_site_hle17_magmom
 _atom_site_hse06_10hf_ddec_charge
 _atom_site_hse06_10hf_ddec_spin_density
 _atom_site_hse06_10hf_ddec_sum_bond_order
 _atom_site_hse06_10hf_magmom
 _atom_site_hse06_ddec_charge
 _atom_site_hse06_ddec_spin_density
 _atom_site_hse06_ddec_sum_bond_order
 _atom_site_hse06_magmom
 _atom_site_pbe_cm5_charge
 _atom_site_pbe_ddec_charge
 _atom_site_pbe_ddec_spin_density
 _atom_site_pbe_ddec_sum_bond_order
 _atom_site_pbe_magmom
Co  Co0  1  0.81207666  0.41880656  0.69760398  1  0.940964  2.245339  2.43249  2.019  0.975958  2.06345  2.865471  1.9  1.070792  2.230478  2.758544  2.093  0.581199  0.897782  1.958105  2.943329  1.773
Co  Co1  1  0.39341244  0.27891276  0.58128313  1  0.940884  2.246648  2.431355  2.019  0.975905  2.064568  2.864282  1.9  1.070696  2.231674  2.757388  2.093  0.581563  0.897812  1.959557  2.941939  1.774
Co  Co2  1  0.11489145  0.30230672  0.72124489  1  0.941301  2.249329  2.429625  2.021  0.976009  2.065248  2.862409  1.901  1.070489  2.231692  2.755911  2.094  0.581996  0.898682  1.962893  2.939661  1.777
Co  Co3  1  0.11490220  0.72123962  0.30230619  1  0.941475  2.249512  2.429423  2.021  0.976057  2.06532  2.862313  1.901  1.070493  2.231798  2.755854  2.094  0.582065  0.898751  1.962677  2.939581  1.776
Co  Co4  1  0.39340058  0.58128043  0.27890844  1  0.940874  2.246584  2.431437  2.019  0.975814  2.064541  2.864435  1.9  1.0706  2.231662  2.757518  2.093  0.581493  0.897709  1.959537  2.942067  1.774
Co  Co5  1  0.81207190  0.69760865  0.41881497  1  0.94116  2.245225  2.432185  2.019  0.976028  2.063408  2.865236  1.9  1.070867  2.230406  2.758304  2.093  0.581254  0.897842  1.958361  2.943072  1.773
H  H6  1  0.77385859  0.51726907  0.76774575  1  -0.054306  -0.376  0.668714  -0.215  -0.136829  -0.199372  0.839251  -0.096  -0.11884  -0.316912  0.796857  -0.155  -0.014451  -0.140698  -0.135672  0.858392  -0.066
H  H7  1  0.25684280  0.25060727  0.48287273  1  -0.053281  -0.376075  0.668036  -0.216  -0.13562  -0.199494  0.83831  -0.096  -0.117632  -0.317119  0.795912  -0.156  -0.014117  -0.139378  -0.135754  0.857307  -0.066
H  H8  1  0.00704923  0.23227547  0.74974105  1  -0.052574  -0.375904  0.667496  -0.216  -0.135213  -0.199565  0.838013  -0.096  -0.11723  -0.317085  0.795637  -0.156  -0.013641  -0.138963  -0.135917  0.85703  -0.066
H  H9  1  0.00704087  0.74973744  0.23227064  1  -0.052554  -0.376035  0.667239  -0.216  -0.135226  -0.199629  0.83779  -0.096  -0.117225  -0.31719  0.795409  -0.156  -0.013676  -0.139005  -0.135862  0.856852  -0.066
H  H10  1  0.25684200  0.48286743  0.25060474  1  -0.053278  -0.376068  0.667996  -0.216  -0.13563  -0.199488  0.838299  -0.096  -0.117635  -0.317116  0.795892  -0.156  -0.014147  -0.139415  -0.13574  0.8573  -0.066
H  H11  1  0.77385468  0.76774535  0.51726921  1  -0.05442  -0.375908  0.668844  -0.215  -0.136886  -0.19933  0.839347  -0.096  -0.118903  -0.31684  0.796956  -0.155  -0.0145  -0.140762  -0.135739  0.858477  -0.066
H  H12  1  0.73396082  0.47971857  0.47971237  1  0.146914  -0.001806  0.914975  -0.002  0.1586  0.000103  0.968837  0.0  0.1628  0.000231  0.9678  0.0  0.117251  0.155538  2.2e-05  0.969609  0.0
H  H13  1  0.25429978  0.99983172  0.52013554  1  0.146721  -0.001723  0.915916  -0.002  0.159096  0.000114  0.969008  0.0  0.163314  0.000239  0.967904  0.0  0.117403  0.156042  4.4e-05  0.969831  0.0
H  H14  1  0.25430750  0.52013104  0.99982788  1  0.146799  -0.001715  0.91586  -0.002  0.159132  0.000114  0.968987  0.0  0.163339  0.000239  0.967897  0.0  0.117413  0.156074  4.6e-05  0.969817  0.0
H  H15  1  0.08839940  0.57661941  0.57662457  1  0.120332  0.000587  0.942014  0.001  0.127646  0.00037  1.00399  0.0  0.131283  0.000364  0.999783  0.0  0.117438  0.125127  0.000402  1.006988  0.0
H  H16  1  0.51215684  0.00006627  0.42351728  1  0.119109  0.000579  0.943596  0.001  0.127034  0.000368  1.00485  0.0  0.130729  0.000364  1.000554  0.0  0.116764  0.124497  0.000399  1.007844  0.0
H  H17  1  0.51215780  0.42351923  0.00006737  1  0.119184  0.000586  0.943596  0.001  0.12704  0.000368  1.004855  0.0  0.130739  0.000363  1.000554  0.0  0.116756  0.124509  0.000397  1.007808  0.0
C  C18  1  0.50093488  0.46477560  0.55970473  1  0.38183  -0.021618  3.80192  -0.012  0.375788  -0.001301  4.062337  0.002  0.399919  -0.004052  4.082959  0.001  0.103768  0.35747  0.001723  4.048395  0.003
C  C19  1  0.03629187  0.09484899  0.53525712  1  0.386994  -0.021803  3.797341  -0.012  0.377291  -0.001369  4.062633  0.002  0.401369  -0.004041  4.083256  0.001  0.104207  0.359023  0.001516  4.048704  0.003
C  C20  1  0.94142377  0.44020951  0.90497182  1  0.380927  -0.021729  3.797557  -0.012  0.374093  -0.001402  4.063096  0.002  0.398085  -0.004137  4.08372  0.001  0.103075  0.356341  0.001517  4.04939  0.003
C  C21  1  0.94141096  0.90497000  0.44021121  1  0.380913  -0.021806  3.797262  -0.012  0.374031  -0.001404  4.062851  0.002  0.398012  -0.004133  4.083497  0.001  0.103041  0.35582  0.001518  4.04896  0.003
C  C22  1  0.03630278  0.53525774  0.09485136  1  0.386685  -0.021741  3.797492  -0.012  0.377475  -0.00137  4.062298  0.002  0.401543  -0.004039  4.082919  0.001  0.104349  0.359213  0.001512  4.048356  0.003
C  C23  1  0.50092328  0.55970901  0.46477349  1  0.381532  -0.021606  3.80228  -0.012  0.375475  -0.001301  4.062715  0.002  0.399601  -0.004052  4.083349  0.001  0.103589  0.357163  0.001726  4.048748  0.003
C  C24  1  0.59340242  0.50212914  0.50212261  1  -0.279249  0.031289  3.60193  0.04  -0.313071  0.016694  3.853209  0.021  -0.333581  0.011104  3.874924  0.014  -0.102672  -0.297448  0.023773  3.837868  0.029
C  C25  1  0.09139700  0.99987548  0.49780821  1  -0.281273  0.03044  3.604366  0.039  -0.313208  0.01626  3.8566  0.021  -0.333567  0.010902  3.878252  0.014  -0.102248  -0.297821  0.022942  3.841447  0.028
C  C26  1  0.09140154  0.49780314  0.99986885  1  -0.281191  0.030398  3.604614  0.039  -0.313174  0.016261  3.856691  0.021  -0.333532  0.010903  3.878355  0.014  -0.102208  -0.297755  0.022944  3.8414  0.028
C  C27  1  0.31423666  0.49325751  0.58785091  1  -0.228504  0.017845  3.772455  0.027  -0.218292  0.008332  4.014275  0.013  -0.245236  0.0046  4.043597  0.009  -0.037175  -0.198685  0.01304  3.993974  0.018
C  C28  1  0.82124649  0.09458336  0.50684592  1  -0.231031  0.018314  3.77536  0.028  -0.219934  0.008505  4.017729  0.013  -0.246894  0.004673  4.047218  0.01  -0.038292  -0.200234  0.013345  3.99725  0.018
C  C29  1  0.72668942  0.41211130  0.90537539  1  -0.219729  0.018276  3.759372  0.028  -0.2168  0.00851  4.012461  0.013  -0.243467  0.004688  4.041518  0.01  -0.03729  -0.198885  0.01338  3.994356  0.018
C  C30  1  0.72668219  0.90537367  0.41210844  1  -0.219626  0.018311  3.759225  0.028  -0.216645  0.008511  4.012362  0.013  -0.243311  0.004686  4.041427  0.01  -0.03724  -0.197155  0.013384  3.992199  0.018
C  C31  1  0.82124448  0.50684779  0.09458377  1  -0.230452  0.018278  3.775344  0.028  -0.220044  0.008506  4.017678  0.013  -0.247013  0.004672  4.047168  0.01  -0.03827  -0.20031  0.013341  3.997079  0.018
C  C32  1  0.31423615  0.58784341  0.49325361  1  -0.228112  0.017853  3.771785  0.027  -0.217959  0.008335  4.013636  0.013  -0.2449  0.004602  4.042966  0.009  -0.0372  -0.198345  0.01304  3.99331  0.018
C  C33  1  0.19896580  0.45772659  0.64520023  1  0.687264  -0.010958  3.784008  -0.009  0.650265  0.001432  4.067136  0.002  0.695462  0.000457  4.059921  0.002  0.234549  0.616846  0.001827  4.07286  0.002
C  C34  1  0.74147318  0.18752416  0.54238212  1  0.686384  -0.011081  3.790393  -0.009  0.649257  0.001341  4.07333  0.002  0.694314  0.000393  4.066345  0.002  0.23484  0.615942  0.001751  4.078894  0.002
C  C35  1  0.55411043  0.35476614  0.81252134  1  0.686295  -0.011044  3.784954  -0.009  0.650828  0.001494  4.069028  0.002  0.695891  0.000487  4.061866  0.002  0.235385  0.617918  0.001855  4.074802  0.002
C  C36  1  0.55409840  0.81252145  0.35476319  1  0.686303  -0.011058  3.785254  -0.009  0.650945  0.001496  4.069135  0.002  0.696006  0.000486  4.061967  0.002  0.235431  0.617589  0.001855  4.074834  0.002
C  C37  1  0.74147236  0.54238016  0.18751805  1  0.686239  -0.011064  3.790542  -0.009  0.649393  0.001341  4.073205  0.002  0.694475  0.000395  4.066193  0.002  0.234742  0.616064  0.00175  4.078772  0.002
C  C38  1  0.19895091  0.64519554  0.45772006  1  0.686876  -0.010967  3.783872  -0.009  0.649916  0.001431  4.067025  0.002  0.695106  0.000456  4.059819  0.002  0.234438  0.616493  0.001826  4.072728  0.002
C  C39  1  0.22988916  0.55504372  0.55504750  1  0.00421  -0.02266  3.729789  -0.013  -0.028635  -0.002745  3.975188  -0.002  -0.015083  -0.00356  3.992833  -0.002  -0.063296  -0.038458  -0.002811  3.963156  -0.002
C  C40  1  0.67516702  0.00001697  0.44503139  1  0.00162  -0.022732  3.730159  -0.013  -0.028964  -0.002768  3.976402  -0.002  -0.015576  -0.003604  3.994103  -0.002  -0.063509  -0.038648  -0.0027  3.964272  -0.002
C  C41  1  0.67516339  0.44503149  0.00001389  1  0.001208  -0.022669  3.730456  -0.013  -0.028896  -0.002767  3.976385  -0.002  -0.01551  -0.00361  3.994088  -0.002  -0.063526  -0.038102  -0.002703  3.964621  -0.002
O  O42  1  0.58488205  0.39948217  0.58095803  1  -0.575028  0.060715  2.208945  0.105  -0.548268  0.057216  2.488828  0.093  -0.606213  0.035355  2.487307  0.058  -0.31489  -0.504714  0.074283  2.491266  0.119
O  O43  1  0.18544830  0.18139124  0.60053491  1  -0.578043  0.060198  2.206921  0.104  -0.549418  0.056768  2.487713  0.092  -0.607318  0.035  2.486185  0.057  -0.315313  -0.505989  0.073675  2.490156  0.118
O  O44  1  0.00389214  0.41882167  0.81830563  1  -0.574804  0.060512  2.207843  0.105  -0.546202  0.056988  2.487512  0.093  -0.60414  0.035215  2.48609  0.058  -0.314318  -0.502699  0.073837  2.48965  0.118
O  O45  1  0.00389286  0.81830439  0.41882153  1  -0.574887  0.060517  2.207762  0.105  -0.546187  0.056989  2.48743  0.093  -0.604128  0.035213  2.486031  0.058  -0.314288  -0.502706  0.073834  2.489719  0.118
O  O46  1  0.18545152  0.60053266  0.18139142  1  -0.578013  0.060201  2.207163  0.104  -0.549453  0.056772  2.487791  0.092  -0.607312  0.035006  2.48623  0.057  -0.315383  -0.506025  0.073666  2.49023  0.118
O  O47  1  0.58486539  0.58095606  0.39947928  1  -0.574985  0.060696  2.208936  0.105  -0.548092  0.057207  2.48872  0.093  -0.606038  0.035349  2.487211  0.058  -0.314789  -0.504545  0.074276  2.49113  0.119
O  O48  1  0.25840450  0.39017252  0.66591181  1  -0.602638  0.039171  2.318566  0.074  -0.566603  0.028195  2.59707  0.047  -0.619118  0.022794  2.589006  0.038  -0.300917  -0.527979  0.032228  2.603484  0.054
O  O49  1  0.86832306  0.27575256  0.60994196  1  -0.60263  0.039328  2.31841  0.074  -0.565907  0.028229  2.596091  0.047  -0.618239  0.022866  2.588083  0.038  -0.300911  -0.527379  0.032326  2.602399  0.054
O  O50  1  0.59272746  0.33409135  0.72425683  1  -0.604479  0.039336  2.322233  0.074  -0.567152  0.02823  2.599068  0.047  -0.619655  0.022847  2.591101  0.038  -0.301121  -0.528443  0.03235  2.605201  0.054
O  O51  1  0.59271105  0.72425672  0.33408732  1  -0.604493  0.039336  2.322177  0.074  -0.567204  0.028227  2.599023  0.047  -0.619701  0.022846  2.591049  0.038  -0.30112  -0.528535  0.032336  2.605351  0.054
O  O52  1  0.86832908  0.60994437  0.27574888  1  -0.602788  0.039322  2.318308  0.074  -0.566013  0.028225  2.595844  0.047  -0.61836  0.022857  2.587837  0.038  -0.300905  -0.527475  0.032337  2.602135  0.055
O  O53  1  0.25839720  0.66591259  0.39017202  1  -0.602465  0.039178  2.318687  0.074  -0.566446  0.028197  2.597231  0.047  -0.618957  0.0228  2.589173  0.038  -0.300857  -0.52783  0.032213  2.603636  0.054
O  O54  1  0.04393057  0.49398957  0.67369906  1  -0.545905  0.040307  2.055315  0.071  -0.504912  0.034298  2.298764  0.057  -0.550011  0.022752  2.287787  0.039  -0.28685  -0.473355  0.042285  2.308442  0.068
O  O55  1  0.55036841  0.17979452  0.50601958  1  -0.545219  0.040217  2.057499  0.071  -0.504424  0.034163  2.301171  0.057  -0.549515  0.022652  2.290304  0.039  -0.286506  -0.472881  0.042039  2.310817  0.068
O  O56  1  0.37072548  0.32622200  0.82033163  1  -0.546959  0.040402  2.056075  0.071  -0.506209  0.034356  2.299636  0.057  -0.551274  0.022761  2.288702  0.039  -0.287563  -0.47467  0.042448  2.309095  0.068
O  O57  1  0.37072138  0.82032691  0.32622125  1  -0.547033  0.040403  2.056357  0.071  -0.506265  0.034351  2.299872  0.057  -0.551325  0.022757  2.288933  0.039  -0.287575  -0.474756  0.042438  2.309524  0.068
O  O58  1  0.55036792  0.50601736  0.17979477  1  -0.54527  0.040215  2.057578  0.071  -0.504472  0.034166  2.301134  0.057  -0.549577  0.022652  2.290258  0.039  -0.286446  -0.472927  0.042041  2.310771  0.068
O  O59  1  0.04390716  0.67368803  0.49398664  1  -0.545774  0.040312  2.055353  0.071  -0.50482  0.034303  2.298863  0.057  -0.549906  0.022759  2.287881  0.039  -0.286802  -0.473273  0.042287  2.308532  0.068
