# generated using pymatgen
data_Cs2UH14C14(NO7)2
_symmetry_space_group_name_H-M   'P 1'
_cell_length_a   6.94570771
_cell_length_b   8.45204528
_cell_length_c   10.77508658
_cell_angle_alpha   99.88824035
_cell_angle_beta   105.64963310
_cell_angle_gamma   110.26711606
_symmetry_Int_Tables_number   1
_chemical_formula_structural   Cs2UH14C14(NO7)2
_chemical_formula_sum   'Cs2 U1 H14 C14 N2 O14'
_cell_volume   546.22184679
_cell_formula_units_Z   1
loop_
 _symmetry_equiv_pos_site_id
 _symmetry_equiv_pos_as_xyz
  1  'x, y, z'
loop_
 _atom_site_type_symbol
 _atom_site_label
 _atom_site_symmetry_multiplicity
 _atom_site_fract_x
 _atom_site_fract_y
 _atom_site_fract_z
 _atom_site_occupancy
 _atom_site_hle17_bader_spin_density
 _atom_site_hle17_ddec_charge
 _atom_site_hle17_ddec_spin_density
 _atom_site_hle17_ddec_sum_bond_order
 _atom_site_hle17_magmom
 _atom_site_hse06_10hf_bader_spin_density
 _atom_site_hse06_10hf_ddec_charge
 _atom_site_hse06_10hf_ddec_spin_density
 _atom_site_hse06_10hf_ddec_sum_bond_order
 _atom_site_hse06_10hf_magmom
 _atom_site_hse06_bader_spin_density
 _atom_site_hse06_ddec_charge
 _atom_site_hse06_ddec_spin_density
 _atom_site_hse06_ddec_sum_bond_order
 _atom_site_hse06_magmom
 _atom_site_pbe_bader_spin_density
 _atom_site_pbe_cm5_charge
 _atom_site_pbe_ddec_charge
 _atom_site_pbe_ddec_spin_density
 _atom_site_pbe_ddec_sum_bond_order
 _atom_site_pbe_magmom
Cs  Cs0  1  0.06192784  0.26372778  0.42826843  1  0  0.964437  0  0.581772  0  0  0.912355  0  0.827073  0  0  0.929048  0  0.80107  0  0  0.880385  0.899584  0  0.846101  0
Cs  Cs1  1  0.93808467  0.73626931  0.57173426  1  0  0.964424  0  0.581899  0  0  0.912334  0  0.827227  0  0  0.92903  0  0.801227  0  0  0.880468  0.899556  0  0.846251  0
U  U2  1  0.50001165  0.99999248  0.00000559  1  0  2.382306  0  4.1579  0  0  2.407532  0  4.839137  0  0  2.524352  0  4.796813  0  0  2.126146  2.327399  0  4.866069  0
H  H3  1  0.41554805  0.73015240  0.65217538  1  0  0.424968  0  0.868539  0  0  0.397823  0  0.92762  0  0  0.408499  0  0.911651  0  0  0.297173  0.390172  0  0.939048  0
H  H4  1  0.58444952  0.26989621  0.34781834  1  0  0.424954  0  0.868462  0  0  0.397806  0  0.927623  0  0  0.408481  0  0.911655  0  0  0.297169  0.39016  0  0.939047  0
H  H5  1  0.45684744  0.74584710  0.51698806  1  0  0.41551  0  0.887899  0  0  0.387484  0  0.948572  0  0  0.397652  0  0.933441  0  0  0.291333  0.380327  0  0.95925  0
H  H6  1  0.54315865  0.25416051  0.48300558  1  0  0.415535  0  0.887799  0  0  0.387387  0  0.948635  0  0  0.397555  0  0.933505  0  0  0.291319  0.380231  0  0.959313  0
H  H7  1  0.95015618  0.21236593  0.68375297  1  0  0.407428  0  0.907258  0  0  0.378624  0  0.969747  0  0  0.389025  0  0.954463  0  0  0.27739  0.371313  0  0.980468  0
H  H8  1  0.04986803  0.78763640  0.31625339  1  0  0.407335  0  0.907404  0  0  0.378495  0  0.969945  0  0  0.388898  0  0.954658  0  0  0.277333  0.37118  0  0.980674  0
H  H9  1  0.76085765  0.03782547  0.57578429  1  0  0.404855  0  0.904556  0  0  0.375942  0  0.967677  0  0  0.386577  0  0.951794  0  0  0.280732  0.368329  0  0.97905  0
H  H10  1  0.23917517  0.96216761  0.42422704  1  0  0.404869  0  0.904526  0  0  0.375977  0  0.967601  0  0  0.386606  0  0.951731  0  0  0.280764  0.368365  0  0.978973  0
H  H11  1  0.91467324  0.74945254  0.10782509  1  0  0.137545  0  0.931475  0  0  0.149843  0  0.985446  0  0  0.153349  0  0.983198  0  0  0.129535  0.147317  0  0.987181  0
H  H12  1  0.08530404  0.25054876  0.89218123  1  0  0.137513  0  0.931496  0  0  0.149803  0  0.985502  0  0  0.15331  0  0.983253  0  0  0.129508  0.147277  0  0.987237  0
H  H13  1  0.81671656  0.76266220  0.87150761  1  0  0.117181  0  0.934144  0  0  0.130186  0  0.987058  0  0  0.133611  0  0.983914  0  0  0.128985  0.127593  0  0.989744  0
H  H14  1  0.18327403  0.23734152  0.12848373  1  0  0.117268  0  0.934002  0  0  0.13023  0  0.986963  0  0  0.133655  0  0.983819  0  0  0.129001  0.127642  0  0.989642  0
H  H15  1  0.60512158  0.47549530  0.68126940  1  0  0.113044  0  0.964194  0  0  0.122321  0  1.028163  0  0  0.125823  0  1.026443  0  0  0.119399  0.119691  0  1.029687  0
H  H16  1  0.39489153  0.52448832  0.31870567  1  0  0.113069  0  0.9644  0  0  0.122429  0  1.028262  0  0  0.125935  0  1.026537  0  0  0.119453  0.119806  0  1.029791  0
C  C17  1  0.75125804  0.46384628  0.04672885  1  0  0.094477  0  3.765864  0  0  0.10371  0  4.013917  0  0  0.104472  0  4.034158  0  0  0.116863  0.102948  0  4.000474  0
C  C18  1  0.24872440  0.53615626  0.95327111  1  0  0.094726  0  3.765715  0  0  0.103727  0  4.014141  0  0  0.104478  0  4.034375  0  0  0.116954  0.102966  0  4.000707  0
C  C19  1  0.82209254  0.62860698  0.02403564  1  0  -0.076005  0  3.615186  0  0  -0.103516  0  3.86492  0  0  -0.10604  0  3.882574  0  0  -0.054579  -0.101961  0  3.853362  0
C  C20  1  0.17788967  0.37140080  0.97596032  1  0  -0.075964  0  3.615279  0  0  -0.103408  0  3.865037  0  0  -0.105937  0  3.882704  0  0  -0.054591  -0.101854  0  3.853481  0
C  C21  1  0.76847037  0.63503713  0.89101930  1  0  0.007162  0  3.660612  0  0  -0.013762  0  3.919328  0  0  -0.011644  0  3.934938  0  0  -0.047236  -0.015065  0  3.90895  0
C  C22  1  0.23154260  0.36496645  0.10897225  1  0  0.00714  0  3.660379  0  0  -0.013726  0  3.919093  0  0  -0.011609  0  3.9347  0  0  -0.047111  -0.015027  0  3.908719  0
C  C23  1  0.65310693  0.47745887  0.78660774  1  0  -0.095248  0  3.664691  0  0  -0.119469  0  3.911336  0  0  -0.122089  0  3.929432  0  0  -0.063325  -0.117772  0  3.899416  0
C  C24  1  0.34690088  0.52254344  0.21338552  1  0  -0.095326  0  3.664764  0  0  -0.11964  0  3.91142  0  0  -0.122259  0  3.929506  0  0  -0.063411  -0.117955  0  3.899516  0
C  C25  1  0.59465112  0.31828520  0.81852223  1  0  0.115316  0  3.742502  0  0  0.124665  0  3.985853  0  0  0.126505  0  4.003186  0  0  0.127463  0.123249  0  3.974108  0
C  C26  1  0.40536289  0.68171175  0.18146772  1  0  0.115053  0  3.742599  0  0  0.124436  0  3.985983  0  0  0.12628  0  4.003312  0  0  0.127167  0.123023  0  3.974242  0
C  C27  1  0.78968438  0.43748098  0.18363390  1  0  0.630427  0  3.934369  0  0  0.583846  0  4.234764  0  0  0.618303  0  4.226981  0  0  0.21139  0.560492  0  4.238858  0
C  C28  1  0.21030505  0.56251508  0.81638502  1  0  0.630501  0  3.933941  0  0  0.583868  0  4.234565  0  0  0.618354  0  4.226734  0  0  0.211362  0.560506  0  4.238669  0
C  C29  1  0.47592151  0.14074557  0.71499087  1  0  0.645256  0  3.910336  0  0  0.599131  0  4.20902  0  0  0.635328  0  4.197487  0  0  0.223945  0.57459  0  4.215797  0
C  C30  1  0.52411454  0.85924201  0.28499990  1  0  0.645514  0  3.910019  0  0  0.599289  0  4.208883  0  0  0.635487  0  4.197343  0  0  0.22399  0.574744  0  4.215662  0
N  N31  1  0.63873860  0.31164317  0.94605982  1  0  -0.387127  0  3.286628  0  0  -0.364039  0  3.556636  0  0  -0.38424  0  3.585309  0  0  -0.332874  -0.349844  0  3.536811  0
N  N32  1  0.36126772  0.68835909  0.05392760  1  0  -0.387055  0  3.286552  0  0  -0.363846  0  3.55657  0  0  -0.38405  0  3.58525  0  0  -0.332806  -0.349651  0  3.536746  0
O  O33  1  0.68576983  0.27818040  0.18313615  1  0  -0.688646  0  2.144546  0  0  -0.659125  0  2.416943  0  0  -0.694194  0  2.414015  0  0  -0.396418  -0.633913  0  2.417539  0
O  O34  1  0.31415418  0.72184507  0.81687690  1  0  -0.688764  0  2.144297  0  0  -0.659232  0  2.416756  0  0  -0.694321  0  2.413813  0  0  -0.396506  -0.634012  0  2.417348  0
O  O35  1  0.91567209  0.56229743  0.28835188  1  0  -0.638944  0  2.01874  0  0  -0.588662  0  2.247742  0  0  -0.614132  0  2.240692  0  0  -0.382387  -0.570671  0  2.251904  0
O  O36  1  0.08430874  0.43769079  0.71167009  1  0  -0.638937  0  2.018406  0  0  -0.588636  0  2.247494  0  0  -0.614088  0  2.240384  0  0  -0.382341  -0.570651  0  2.251657  0
O  O37  1  0.42854151  0.01015132  0.76351821  1  0  -0.677583  0  2.107981  0  0  -0.654044  0  2.379204  0  0  -0.688038  0  2.373689  0  0  -0.391641  -0.629703  0  2.381477  0
O  O38  1  0.57144359  0.98984186  0.23647266  1  0  -0.677627  0  2.107927  0  0  -0.654064  0  2.379224  0  0  -0.688062  0  2.373703  0  0  -0.391613  -0.629738  0  2.381549  0
O  O39  1  0.42936198  0.12929220  0.59154541  1  0  -0.635773  0  2.017252  0  0  -0.578637  0  2.240932  0  0  -0.603899  0  2.229476  0  0  -0.329851  -0.560875  0  2.248331  0
O  O40  1  0.57066467  0.87067164  0.40844250  1  0  -0.635789  0  2.017044  0  0  -0.578672  0  2.24083  0  0  -0.603937  0  2.22937  0  0  -0.329832  -0.560907  0  2.248233  0
O  O41  1  0.76583724  0.00078987  0.01533692  1  0  -0.685514  0  1.576394  0  0  -0.689392  0  1.874592  0  0  -0.711557  0  1.860368  0  0  -0.753443  -0.676129  0  1.884619  0
O  O42  1  0.23415048  0.99919439  0.98469039  1  0  -0.685589  0  1.575558  0  0  -0.689509  0  1.873713  0  0  -0.711682  0  1.859491  0  0  -0.753266  -0.67624  0  1.88374  0
O  O43  1  0.42191425  0.66368645  0.57039381  1  0  -0.890083  0  1.773835  0  0  -0.848062  0  1.934022  0  0  -0.865557  0  1.903769  0  0  -0.679628  -0.835353  0  1.955445  0
O  O44  1  0.57804971  0.33632935  0.42959997  1  0  -0.890102  0  1.773618  0  0  -0.847963  0  1.934078  0  0  -0.865459  0  1.903835  0  0  -0.679635  -0.835259  0  1.955483  0
O  O45  1  0.89549972  0.08231963  0.65560428  1  0  -0.893923  0  1.772025  0  0  -0.850973  0  1.926574  0  0  -0.868974  0  1.896757  0  0  -0.716384  -0.837993  0  1.947549  0
O  O46  1  0.10454159  0.91768393  0.34440339  1  0  -0.893816  0  1.772084  0  0  -0.850866  0  1.926694  0  0  -0.868847  0  1.896847  0  0  -0.716349  -0.837889  0  1.947682  0
