# generated using pymatgen
data_Al2H17C30N3O13
_symmetry_space_group_name_H-M   'P 1'
_cell_length_a   6.60891529
_cell_length_b   20.54851200
_cell_length_c   21.67435501
_cell_angle_alpha   90.03081625
_cell_angle_beta   89.44140354
_cell_angle_gamma   81.99419745
_symmetry_Int_Tables_number   1
_chemical_formula_structural   Al2H17C30N3O13
_chemical_formula_sum   'Al4 H34 C60 N6 O26'
_cell_volume   2914.61973899
_cell_formula_units_Z   2
loop_
 _symmetry_equiv_pos_site_id
 _symmetry_equiv_pos_as_xyz
  1  'x, y, z'
loop_
 _atom_site_type_symbol
 _atom_site_label
 _atom_site_symmetry_multiplicity
 _atom_site_fract_x
 _atom_site_fract_y
 _atom_site_fract_z
 _atom_site_occupancy
 _atom_site_pbe_bader_charge
 _atom_site_pbe_bader_spin_density
 _atom_site_pbe_cm5_charge
 _atom_site_pbe_ddec_charge
 _atom_site_pbe_ddec_spin_density
 _atom_site_pbe_ddec_sum_bond_order
 _atom_site_pbe_magmom
Al  Al0  1  0.10461302  0.68438491  0.49878617  1  2.499692  0  0.396658  1.631886  0  2.588151  0
Al  Al1  1  0.90607155  0.31466263  0.99942226  1  2.500895  0  0.394677  1.634363  0  2.59335  0
Al  Al2  1  0.60400696  0.68675253  0.49945655  1  2.502155  0  0.397371  1.638091  0  2.581459  0
Al  Al3  1  0.40628784  0.31309346  0.00027463  1  2.501047  0  0.400469  1.639489  0  2.570217  0
H  H4  1  0.79047291  0.49682798  0.90977421  1  0.086756  0  0.109808  0.11617  0  0.986207  0
H  H5  1  0.22640507  0.50677359  0.40518334  1  0.083852  0  0.110788  0.117554  0  0.986065  0
H  H6  1  0.87030107  0.63822764  0.74275218  1  0.075171  0  0.107465  0.109815  0  0.983681  0
H  H7  1  0.14114095  0.36154037  0.24145621  1  0.065798  0  0.106139  0.108218  0  0.985758  0
H  H8  1  0.74751069  0.58541697  0.82981559  1  0.064433  0  0.104768  0.110325  0  0.993494  0
H  H9  1  0.26866160  0.41664803  0.32622074  1  0.060869  0  0.103534  0.10855  0  0.996309  0
H  H10  1  0.69727254  0.50204413  0.57802973  1  0.095452  0  0.110587  0.114839  0  0.989368  0
H  H11  1  0.31339305  0.49787237  0.08220317  1  0.114631  0  0.108145  0.111946  0  0.993897  0
H  H12  1  0.53687311  0.40933977  0.74536896  1  0.122518  0  0.105938  0.116657  0  1.047027  0
H  H13  1  0.47534084  0.59002721  0.24891711  1  0.125765  0  0.105679  0.114923  0  1.044259  0
H  H14  1  0.75987680  0.41082219  0.65464408  1  0.062622  0  0.10643  0.104256  0  0.982785  0
H  H15  1  0.25503632  0.58997098  0.15850614  1  0.075771  0  0.104577  0.102363  0  0.985791  0
H  H16  1  0.10836326  0.64241448  0.65595226  1  0.067297  0  0.107286  0.115002  0  1.02727  0
H  H17  1  0.89868884  0.35583215  0.15747033  1  0.084871  0  0.105909  0.11408  0  1.029012  0
H  H18  1  0.58260961  0.81607651  0.64706524  1  0.142618  0  0.123902  0.141706  0  0.975512  0
H  H19  1  0.42100568  0.18146447  0.14463934  1  0.147726  0  0.125045  0.142815  0  0.974476  0
H  H20  1  0.54106618  0.02440791  0.85426880  1  0.10291  0  0.115086  0.124297  0  0.979328  0
H  H21  1  0.47073079  0.97576019  0.35545798  1  0.109619  0  0.11618  0.125209  0  0.977262  0
H  H22  1  0.51883980  0.12585451  0.92131794  1  0.129458  0  0.112859  0.118518  0  0.989805  0
H  H23  1  0.49841189  0.87579452  0.42406083  1  0.08743  0  0.111522  0.11572  0  0.99155  0
H  H24  1  0.97234846  0.87003102  0.57950766  1  0.110078  0  0.115478  0.122435  0  0.981773  0
H  H25  1  0.03476390  0.12879486  0.07561002  1  0.121713  0  0.11663  0.12303  0  0.981549  0
H  H26  1  0.95141335  0.09453979  0.77880252  1  0.096432  0  0.112439  0.119632  0  0.998497  0
H  H27  1  0.05242824  0.90367831  0.27236642  1  0.127458  0  0.113695  0.121121  0  0.996742  0
H  H28  1  0.93528535  0.97196088  0.64576434  1  0.137892  0  0.114999  0.130675  0  1.000026  0
H  H29  1  0.07151591  0.02689765  0.14168123  1  0.133142  0  0.115499  0.130323  0  0.997843  0
H  H30  1  0.92023766  0.19244428  0.85042698  1  0.114167  0  0.11383  0.121492  0  0.983009  0
H  H31  1  0.08811426  0.80671842  0.34434136  1  0.071594  0  0.109895  0.111557  0  0.990746  0
H  H32  1  0.39416014  0.38606357  0.86993608  1  0.646064  0  0.30962  0.343981  0  0.991484  0
H  H33  1  0.59903195  0.60829365  0.37563744  1  0.659007  0  0.313515  0.358975  0  0.964745  0
H  H34  1  0.86418033  0.65339976  0.57267177  1  0.629488  0  0.350876  0.425265  0  0.865404  0
H  H35  1  0.14044178  0.34726558  0.07304617  1  0.616838  0  0.351062  0.427087  0  0.864271  0
H  H36  1  0.33816292  0.71764449  0.42457072  1  0.606989  0  0.351564  0.425082  0  0.862986  0
H  H37  1  0.65187165  0.34194734  0.92310239  1  0.618566  0  0.351074  0.424843  0  0.866199  0
C  C38  1  0.90699257  0.59842096  0.42168045  1  1.496043  0  0.260073  0.644002  0  4.08616  0
C  C39  1  0.10344928  0.40215667  0.92226282  1  1.497307  0  0.259834  0.643331  0  4.077357  0
C  C40  1  0.81097795  0.77696517  0.42861563  1  1.564767  0  0.270686  0.642652  0  4.089946  0
C  C41  1  0.20411442  0.22411664  0.92904083  1  1.577629  0  0.26855  0.634761  0  4.106475  0
C  C42  1  0.30125638  0.77659264  0.57053005  1  1.572338  0  0.264202  0.626557  0  4.124148  0
C  C43  1  0.70594069  0.22178021  0.06804126  1  1.586855  0  0.272049  0.636092  0  4.106871  0
C  C44  1  0.40212313  0.59970869  0.57517994  1  1.539964  0  0.274332  0.656207  0  4.062949  0
C  C45  1  0.60425638  0.39870566  0.07833386  1  1.556191  0  0.270726  0.654869  0  4.069394  0
C  C46  1  0.88009253  0.54736415  0.82913826  1  -0.075644  0  -0.102515  -0.166745  0  4.030757  0
C  C47  1  0.13340266  0.45367475  0.32705252  1  0.002578  0  -0.103469  -0.169045  0  4.034611  0
C  C48  1  0.08219053  0.45251693  0.87365596  1  -0.00916  0  -0.045273  -0.214482  0  4.017891  0
C  C49  1  0.92750945  0.54740360  0.37366919  1  -0.015105  0  -0.04475  -0.215879  0  4.017319  0
C  C50  1  0.59792869  0.50081831  0.61828690  1  -0.050244  0  -0.080747  -0.087282  0  4.00429  0
C  C51  1  0.41210620  0.49872387  0.12205266  1  -0.068083  0  -0.083722  -0.088753  0  4.00948  0
C  C52  1  0.63279440  0.45015423  0.66140070  1  -0.059833  0  -0.091174  -0.082916  0  4.053143  0
C  C53  1  0.37929003  0.54982204  0.16507303  1  -0.088133  0  -0.092527  -0.086635  0  4.060033  0
C  C54  1  0.50659931  0.44928307  0.71269555  1  0.013356  0  -0.084947  -0.117755  0  3.959084  0
C  C55  1  0.50402839  0.55001252  0.21602198  1  0.027601  0  -0.084404  -0.113885  0  3.960355  0
C  C56  1  0.33883111  0.49914489  0.72341027  1  0.006926  0  0.001611  0.052076  0  3.911116  0
C  C57  1  0.66888659  0.49929760  0.22618090  1  -0.043531  0  0.001416  0.050766  0  3.91504  0
C  C58  1  0.29890606  0.55045771  0.67807920  1  -0.044749  0  0.00116  0.064291  0  3.941279  0
C  C59  1  0.70819084  0.44790337  0.18062521  1  -0.008361  0  0.000652  0.065  0  3.940696  0
C  C60  1  0.20327531  0.49929691  0.77698900  1  -0.018877  0  -0.010766  -0.086831  0  3.887826  0
C  C61  1  0.80440783  0.49911912  0.27891744  1  0.022036  0  -0.01234  -0.088924  0  3.89191  0
C  C62  1  0.02694320  0.54808715  0.78113171  1  0.0441  0  -0.001689  0.101496  0  4.037663  0
C  C63  1  0.98356564  0.45148159  0.28105917  1  -0.043609  0  -0.003263  0.100956  0  4.041736  0
C  C64  1  0.99962209  0.59947417  0.73657693  1  -0.074545  0  -0.087093  -0.125682  0  4.018012  0
C  C65  1  0.01025230  0.39983561  0.23652190  1  0.006395  0  -0.087478  -0.125839  0  4.019329  0
C  C66  1  0.13121743  0.60159909  0.68808431  1  0.003035  0  -0.092142  -0.130885  0  4.013869  0
C  C67  1  0.87630899  0.39687599  0.18952192  1  -0.045868  0  -0.094105  -0.133521  0  4.015334  0
C  C68  1  0.23358887  0.45359437  0.82708806  1  0.535205  0  0.104612  0.28514  0  3.987777  0
C  C69  1  0.77132227  0.54408784  0.32987216  1  0.541307  0  0.105895  0.284992  0  3.991259  0
C  C70  1  0.90396113  0.49931418  0.87338398  1  0.010018  0  -0.086261  -0.064037  0  4.044612  0
C  C71  1  0.10959307  0.50232353  0.37093225  1  -0.039527  0  -0.084204  -0.057966  0  4.037669  0
C  C72  1  0.43154906  0.54996058  0.62542606  1  -0.004425  0  -0.016956  -0.106827  0  3.945293  0
C  C73  1  0.57591013  0.44874039  0.12862285  1  -0.041281  0  -0.018726  -0.106052  0  3.943941  0
C  C74  1  0.21948778  0.16499229  0.88877948  1  -0.016099  0  -0.009997  -0.041499  0  3.965426  0
C  C75  1  0.79380096  0.83538321  0.38754812  1  -0.008674  0  -0.010859  -0.045695  0  3.971569  0
C  C76  1  0.05696117  0.15603093  0.84965626  1  -0.027599  0  -0.073894  -0.075275  0  3.959736  0
C  C77  1  0.95225677  0.84346384  0.34567995  1  0.005696  0  -0.076753  -0.076765  0  3.973854  0
C  C78  1  0.07313930  0.10212844  0.81045223  1  -0.023859  0  -0.077071  -0.142835  0  3.941138  0
C  C79  1  0.93341264  0.89679730  0.30592323  1  -0.062031  0  -0.075899  -0.139467  0  3.937656  0
C  C80  1  0.25029140  0.05545440  0.81224272  1  0.313349  0  0.095505  0.177803  0  4.033882  0
C  C81  1  0.75718368  0.94377710  0.30958424  1  0.343034  0  0.097027  0.17929  0  4.030214  0
C  C82  1  0.40829357  0.06236374  0.85357511  1  0.002514  0  -0.074547  -0.137622  0  3.93938  0
C  C83  1  0.60292158  0.93764477  0.35330842  1  -0.04068  0  -0.072075  -0.133447  0  3.935122  0
C  C84  1  0.39522659  0.11807433  0.89050393  1  -0.076859  0  -0.077453  -0.083323  0  3.974855  0
C  C85  1  0.61893234  0.88261546  0.39105056  1  -0.021997  0  -0.078126  -0.082531  0  3.978282  0
C  C86  1  0.41493918  0.90480962  0.68509632  1  0.203639  0  0.086104  0.010682  0  3.898567  0
C  C87  1  0.58868518  0.09290499  0.18192055  1  0.193668  0  0.087693  0.012257  0  3.894489  0
C  C88  1  0.43907649  0.84940335  0.64766101  1  0.019852  0  -0.067013  -0.126387  0  3.926678  0
C  C89  1  0.56511703  0.14842944  0.14481989  1  0.037978  0  -0.065524  -0.126366  0  3.924735  0
C  C90  1  0.23074419  0.94903970  0.68561923  1  0.342604  0  0.107188  0.139313  0  4.025398  0
C  C91  1  0.77390908  0.04916666  0.18203318  1  0.412709  0  0.108067  0.138332  0  4.023088  0
C  C92  1  0.27792307  0.83666141  0.61008638  1  0.010377  0  -0.006284  -0.022394  0  3.958347  0
C  C93  1  0.72772390  0.16159710  0.10710175  1  -0.030672  0  -0.004431  -0.023398  0  3.959002  0
C  C94  1  0.09586461  0.88074722  0.60911611  1  -0.062063  0  -0.071004  -0.070963  0  3.947185  0
C  C95  1  0.91055720  0.11785077  0.10554876  1  -0.035119  0  -0.068461  -0.069153  0  3.943144  0
C  C96  1  0.07503953  0.93699741  0.64542483  1  0.059163  0  -0.071411  -0.124697  0  3.928709  0
C  C97  1  0.93112413  0.06159297  0.14165375  1  0.006158  0  -0.069946  -0.121509  0  3.922294  0
N  N98  1  0.28256402  0.99922455  0.77430577  1  -0.46059  0  -0.131954  -0.10594  0  3.27827  0
N  N99  1  0.72263877  0.99959630  0.27135923  1  -0.450946  0  -0.133116  -0.109767  0  3.273265  0
N  N100  1  0.18892199  0.00470431  0.72360699  1  -0.441645  0  -0.135008  -0.110088  0  3.266642  0
N  N101  1  0.81597993  0.99378079  0.22006844  1  -0.451927  0  -0.132403  -0.104823  0  3.263226  0
N  N102  1  0.59552579  0.91731391  0.72015757  1  0.398781  0  0.056767  0.514183  0  4.258292  0
N  N103  1  0.40692172  0.07953016  0.21703386  1  0.408719  0  0.057169  0.514556  0  4.257831  0
O  O104  1  0.64659513  0.76338811  0.45372364  1  -1.261312  0  -0.235174  -0.592706  0  2.341118  0
O  O105  1  0.36705550  0.23674189  0.95463001  1  -1.256997  0  -0.231979  -0.579995  0  2.339895  0
O  O106  1  0.06608970  0.60943078  0.45017109  1  -1.262143  0  -0.234791  -0.577681  0  2.337278  0
O  O107  1  0.94389044  0.39148461  0.95168187  1  -1.264612  0  -0.235623  -0.584524  0  2.340197  0
O  O108  1  0.22249143  0.62725858  0.56217283  1  -1.268317  0  -0.231403  -0.597454  0  2.378271  0
O  O109  1  0.78400883  0.37053353  0.06494259  1  -1.2657  0  -0.236547  -0.607098  0  2.385029  0
O  O110  1  0.98735280  0.74394943  0.43569042  1  -1.267762  0  -0.234472  -0.596682  0  2.348187  0
O  O111  1  0.02942925  0.25875327  0.93490163  1  -1.259444  0  -0.236391  -0.59413  0  2.358351  0
O  O112  1  0.13880048  0.76135091  0.54681828  1  -1.251936  0  -0.234672  -0.584486  0  2.351843  0
O  O113  1  0.86862585  0.23682659  0.04349305  1  -1.254719  0  -0.228333  -0.575048  0  2.343868  0
O  O114  1  0.72650915  0.63112865  0.43179518  1  -1.256786  0  -0.243307  -0.614522  0  2.385155  0
O  O115  1  0.28432595  0.36987591  0.93205591  1  -1.252845  0  -0.242584  -0.610957  0  2.366255  0
O  O116  1  0.85364201  0.68391976  0.53829490  1  -1.433703  0  -0.44871  -0.983571  0  2.18824  0
O  O117  1  0.15373382  0.31619603  0.03895886  1  -1.422632  0  -0.449591  -0.985956  0  2.185153  0
O  O118  1  0.48030376  0.74498544  0.56403634  1  -1.252832  0  -0.238509  -0.592661  0  2.341743  0
O  O119  1  0.52821917  0.25407457  0.06258694  1  -1.253467  0  -0.23124  -0.580484  0  2.337425  0
O  O120  1  0.56298908  0.61168537  0.54655697  1  -1.270191  0  -0.238898  -0.602864  0  2.340773  0
O  O121  1  0.44243877  0.38735475  0.05057570  1  -1.273054  0  -0.246072  -0.617413  0  2.343587  0
O  O122  1  0.35574639  0.68752151  0.45918749  1  -1.411984  0  -0.447351  -0.980269  0  2.180094  0
O  O123  1  0.65560033  0.31564865  0.96025341  1  -1.424763  0  -0.448789  -0.984397  0  2.188826  0
O  O124  1  0.68115917  0.87161786  0.75171638  1  -0.437784  0  -0.135408  -0.32952  0  1.864568  0
O  O125  1  0.65685222  0.97116499  0.71245732  1  -0.463757  0  -0.133273  -0.342194  0  1.94828  0
O  O126  1  0.31660610  0.12500707  0.24845840  1  -0.43685  0  -0.133624  -0.326812  0  1.863661  0
O  O127  1  0.34963329  0.02506441  0.20951300  1  -0.472231  0  -0.136163  -0.345741  0  1.943133  0
O  O128  1  0.40675693  0.41017070  0.82988511  1  -1.174216  0  -0.342148  -0.433419  0  2.333868  0
O  O129  1  0.59113322  0.58343111  0.33576499  1  -1.168901  0  -0.335484  -0.427427  0  2.332366  0
