# generated using pymatgen
data_TbH10C16NO8
_symmetry_space_group_name_H-M   'P 1'
_cell_length_a   14.55060987
_cell_length_b   23.38120722
_cell_length_c   26.19141044
_cell_angle_alpha   85.04286043
_cell_angle_beta   73.88257033
_cell_angle_gamma   71.86537460
_symmetry_Int_Tables_number   1
_chemical_formula_structural   TbH10C16NO8
_chemical_formula_sum   'Tb8 H80 C128 N8 O64'
_cell_volume   8135.15567640
_cell_formula_units_Z   8
loop_
 _symmetry_equiv_pos_site_id
 _symmetry_equiv_pos_as_xyz
  1  'x, y, z'
loop_
 _atom_site_type_symbol
 _atom_site_label
 _atom_site_symmetry_multiplicity
 _atom_site_fract_x
 _atom_site_fract_y
 _atom_site_fract_z
 _atom_site_occupancy
 _atom_site_pbe_bader_charge
 _atom_site_pbe_bader_spin_density
 _atom_site_pbe_cm5_charge
 _atom_site_pbe_ddec_charge
 _atom_site_pbe_ddec_spin_density
 _atom_site_pbe_ddec_sum_bond_order
 _atom_site_pbe_magmom
Tb  Tb0  1  0.08062785  0.25001573  0.83869270  1  2.210148  0  1.530903  2.164597  0  2.135111  0
Tb  Tb1  1  0.66922415  0.25003542  0.66129322  1  2.209187  0  1.531179  2.162997  0  2.137697  0
Tb  Tb2  1  0.91937299  0.74998240  0.16130820  1  2.210108  0  1.530884  2.164563  0  2.135134  0
Tb  Tb3  1  0.33077330  0.74996676  0.33870834  1  2.208959  0  1.53123  2.163009  0  2.137764  0
Tb  Tb4  1  0.83090273  0.33805072  0.75001432  1  2.22446  0  1.537389  2.17728  0  2.155359  0
Tb  Tb5  1  0.41900459  0.16192199  0.74997167  1  2.223398  0  1.5371  2.178126  0  2.154313  0
Tb  Tb6  1  0.16909297  0.66194921  0.24998581  1  2.224415  0  1.53742  2.177348  0  2.155327  0
Tb  Tb7  1  0.58099254  0.83807794  0.25002917  1  2.223436  0  1.537114  2.178209  0  2.154228  0
H  H8  1  0.76647257  0.21806031  0.77416263  1  0.107296  0  0.114085  0.103113  0  1.076529  0
H  H9  1  0.45944165  0.28185287  0.77414605  1  0.15057  0  0.114059  0.102953  0  1.076481  0
H  H10  1  0.01534832  0.21818068  0.72573136  1  0.105599  0  0.114148  0.102941  0  1.076974  0
H  H11  1  0.25872572  0.28184734  0.72574101  1  0.109207  0  0.114352  0.10303  0  1.076745  0
H  H12  1  0.23352587  0.78194008  0.22583669  1  0.107319  0  0.114097  0.103158  0  1.076531  0
H  H13  1  0.54055835  0.71814661  0.22585573  1  0.150534  0  0.114054  0.102919  0  1.076475  0
H  H14  1  0.98465057  0.78181881  0.27426796  1  0.105583  0  0.11414  0.102913  0  1.076987  0
H  H15  1  0.74127256  0.71815304  0.27425918  1  0.109247  0  0.114348  0.103037  0  1.076613  0
H  H16  1  0.62268360  0.09226110  0.86477011  1  0.156626  0  0.111426  0.132518  0  1.029875  0
H  H17  1  0.51251545  0.40776141  0.86470463  1  0.163888  0  0.111981  0.133535  0  1.030428  0
H  H18  1  0.28488263  0.09218207  0.63528695  1  0.140474  0  0.11203  0.133476  0  1.030247  0
H  H19  1  0.07967595  0.40778297  0.63519457  1  0.152501  0  0.111572  0.133261  0  1.030571  0
H  H20  1  0.37731429  0.90773883  0.13522997  1  0.156657  0  0.111437  0.132518  0  1.029892  0
H  H21  1  0.48748442  0.59223942  0.13529589  1  0.16353  0  0.111972  0.133535  0  1.030424  0
H  H22  1  0.71511807  0.90781787  0.36471319  1  0.140458  0  0.112014  0.133467  0  1.030269  0
H  H23  1  0.92032210  0.59221741  0.36480513  1  0.152528  0  0.111577  0.133276  0  1.03059  0
H  H24  1  0.86293448  0.13046234  0.90924009  1  0.075274  0  0.107352  0.117669  0  1.000177  0
H  H25  1  0.22790027  0.36945058  0.90918943  1  0.105977  0  0.107606  0.117976  0  1.000767  0
H  H26  1  0.00646581  0.13044412  0.59074125  1  0.08989  0  0.106945  0.116868  0  1.000564  0
H  H27  1  0.40260488  0.36949684  0.59073028  1  0.067213  0  0.107189  0.117318  0  1.000754  0
H  H28  1  0.13706478  0.86953759  0.09075933  1  0.075253  0  0.107347  0.117653  0  1.000179  0
H  H29  1  0.77209877  0.63055070  0.09081098  1  0.106013  0  0.107591  0.11796  0  1.000757  0
H  H30  1  0.99353604  0.86955536  0.40925725  1  0.090055  0  0.106957  0.116885  0  1.000615  0
H  H31  1  0.59739324  0.63050309  0.40927029  1  0.067171  0  0.107192  0.117332  0  1.000761  0
H  H32  1  0.53420049  0.00774653  0.03630024  1  0.149255  0  0.107967  0.114974  0  1.024444  0
H  H33  1  0.42949040  0.49224774  0.03628633  1  0.157706  0  0.107328  0.114623  0  1.024376  0
H  H34  1  0.45812433  0.00772181  0.46366082  1  0.147418  0  0.108141  0.115203  0  1.025739  0
H  H35  1  0.07810857  0.49240749  0.46363020  1  0.158619  0  0.107627  0.114257  0  1.02537  0
H  H36  1  0.46579945  0.99225161  0.96369870  1  0.149645  0  0.107958  0.11494  0  1.024444  0
H  H37  1  0.57051128  0.50775219  0.96371354  1  0.157683  0  0.107315  0.114648  0  1.024415  0
H  H38  1  0.54187411  0.99227902  0.53633899  1  0.147398  0  0.108128  0.115185  0  1.025757  0
H  H39  1  0.92189131  0.50759289  0.53636983  1  0.158624  0  0.107622  0.114272  0  1.025372  0
H  H40  1  0.55908553  0.94094535  0.11341927  1  0.10881  0  0.112814  0.118406  0  0.995145  0
H  H41  1  0.32765385  0.55906271  0.11339932  1  0.103196  0  0.112709  0.118894  0  0.995343  0
H  H42  1  0.49999736  0.94094134  0.38654100  1  0.112129  0  0.112798  0.118202  0  0.996668  0
H  H43  1  0.11344669  0.55912830  0.38648244  1  0.102481  0  0.112701  0.118701  0  0.996338  0
H  H44  1  0.44091457  0.05905413  0.88658027  1  0.108809  0  0.112813  0.118455  0  0.995136  0
H  H45  1  0.67234761  0.44093767  0.88660055  1  0.103185  0  0.112737  0.11895  0  0.995326  0
H  H46  1  0.50000107  0.05905949  0.61345881  1  0.112106  0  0.112832  0.118276  0  0.996722  0
H  H47  1  0.88655401  0.44087163  0.61351770  1  0.10247  0  0.112689  0.118692  0  0.996341  0
H  H48  1  0.87878579  0.89862862  0.05104355  1  0.092277  0  0.105233  0.106321  0  1.003557  0
H  H49  1  0.07017780  0.60140047  0.05111799  1  0.10577  0  0.105073  0.106262  0  1.003718  0
H  H50  1  0.22265506  0.89861244  0.44894801  1  0.080077  0  0.104843  0.105146  0  1.003994  0
H  H51  1  0.32860611  0.60129576  0.44885724  1  0.088225  0  0.104859  0.105904  0  1.002577  0
H  H52  1  0.12121447  0.10137221  0.94895659  1  0.092219  0  0.105222  0.106275  0  1.003522  0
H  H53  1  0.92982274  0.39859901  0.94888253  1  0.105747  0  0.105072  0.106258  0  1.003697  0
H  H54  1  0.77734616  0.10138569  0.55105251  1  0.080084  0  0.104814  0.105104  0  1.00406  0
H  H55  1  0.67139587  0.39870283  0.55114301  1  0.088261  0  0.104851  0.105944  0  1.002569  0
H  H56  1  0.85532579  0.96737817  0.97448485  1  0.050166  0  0.098308  0.092411  0  1.011878  0
H  H57  1  0.17001433  0.53261297  0.97458094  1  0.051984  0  0.098041  0.091502  0  1.011274  0
H  H58  1  0.17738575  0.96733835  0.52550219  1  0.034612  0  0.098428  0.092666  0  1.012393  0
H  H59  1  0.29725931  0.53259870  0.52542735  1  0.035502  0  0.097887  0.091698  0  1.011361  0
H  H60  1  0.14467424  0.03262266  0.02551480  1  0.050188  0  0.098266  0.092347  0  1.011852  0
H  H61  1  0.82998599  0.46738696  0.02541958  1  0.051999  0  0.098065  0.091565  0  1.011228  0
H  H62  1  0.82261441  0.03266068  0.47449822  1  0.034623  0  0.098437  0.092661  0  1.012378  0
H  H63  1  0.70274063  0.46740078  0.47457306  1  0.035524  0  0.097904  0.091733  0  1.01135  0
H  H64  1  0.79194487  0.06119462  0.95464138  1  0.438714  0  0.31933  0.268329  0  0.947125  0
H  H65  1  0.25335963  0.43877658  0.95457745  1  0.455008  0  0.318968  0.267788  0  0.945199  0
H  H66  1  0.14688174  0.06112696  0.54533951  1  0.436026  0  0.319227  0.268275  0  0.945749  0
H  H67  1  0.30771520  0.43885969  0.54535554  1  0.468591  0  0.319243  0.268411  0  0.945493  0
H  H68  1  0.20805539  0.93880577  0.04535826  1  0.438714  0  0.319339  0.268333  0  0.947105  0
H  H69  1  0.74663820  0.56122426  0.04542225  1  0.455035  0  0.319004  0.267857  0  0.945178  0
H  H70  1  0.85311889  0.93887342  0.45465975  1  0.436  0  0.319221  0.268267  0  0.94574  0
H  H71  1  0.69228292  0.56114024  0.45464503  1  0.468544  0  0.319234  0.268394  0  0.94557  0
H  H72  1  0.97349495  0.27902226  0.95883551  1  0.638452  0  0.337927  0.423428  0  0.860268  0
H  H73  1  0.06749759  0.22084406  0.95884667  1  0.622213  0  0.337331  0.423082  0  0.860915  0
H  H74  1  0.74767327  0.27894991  0.54112491  1  0.626191  0  0.338105  0.424413  0  0.858944  0
H  H75  1  0.71186558  0.22077005  0.54115146  1  0.625681  0  0.337647  0.423641  0  0.860268  0
H  H76  1  0.02650971  0.72098128  0.04116387  1  0.63844  0  0.3379  0.423399  0  0.860299  0
H  H77  1  0.93250631  0.77915948  0.04115348  1  0.622172  0  0.337337  0.423017  0  0.860985  0
H  H78  1  0.25236206  0.72103697  0.45887359  1  0.626119  0  0.338105  0.424408  0  0.858993  0
H  H79  1  0.28816951  0.77921728  0.45885065  1  0.625609  0  0.337694  0.423642  0  0.860248  0
H  H80  1  0.75575753  0.47207244  0.72091940  1  0.648785  0  0.34342  0.433435  0  0.84499  0
H  H81  1  0.52353492  0.02789502  0.72088121  1  0.658155  0  0.343755  0.433711  0  0.844458  0
H  H82  1  0.77247436  0.47208527  0.77905818  1  0.641052  0  0.343251  0.432732  0  0.845848  0
H  H83  1  0.44870575  0.02793499  0.77902725  1  0.636946  0  0.343599  0.433629  0  0.844736  0
H  H84  1  0.24425075  0.52792615  0.27907884  1  0.64881  0  0.343385  0.433372  0  0.84508  0
H  H85  1  0.47646579  0.97210491  0.27911893  1  0.658152  0  0.343766  0.433731  0  0.84443  0
H  H86  1  0.22753348  0.52791421  0.22094006  1  0.641065  0  0.343332  0.432915  0  0.845639  0
H  H87  1  0.55129503  0.97206720  0.22097311  1  0.636912  0  0.343593  0.43361  0  0.844742  0
C  C88  1  0.89433674  0.21311653  0.83367863  1  1.555654  0  0.232809  0.650878  0  4.150711  0
C  C89  1  0.27207411  0.28679004  0.83366544  1  1.564331  0  0.234266  0.65168  0  4.151407  0
C  C90  1  0.89243426  0.21316686  0.66625710  1  1.570465  0  0.233911  0.65242  0  4.151973  0
C  C91  1  0.44112676  0.28684320  0.66625377  1  1.568073  0  0.233977  0.652145  0  4.151965  0
C  C92  1  0.10566239  0.78688566  0.16632052  1  1.55589  0  0.2328  0.650816  0  4.150798  0
C  C93  1  0.72792545  0.71320989  0.16633585  1  1.564406  0  0.234182  0.651567  0  4.151335  0
C  C94  1  0.10756724  0.78683397  0.33373966  1  1.570526  0  0.233912  0.652306  0  4.152061  0
C  C95  1  0.55887024  0.71315809  0.33374581  1  1.568084  0  0.233934  0.652053  0  4.151783  0
C  C96  1  0.82016075  0.17885023  0.84194410  1  0.025826  0  -0.013581  -0.017681  0  3.986055  0
C  C97  1  0.33796698  0.32106664  0.84192952  1  -0.013755  0  -0.014265  -0.018576  0  3.989319  0
C  C98  1  0.00088418  0.17888154  0.65799632  1  0.04254  0  -0.013907  -0.019041  0  3.987297  0
C  C99  1  0.34094866  0.32106762  0.65796419  1  -0.083434  0  -0.013393  -0.018137  0  3.986412  0
C  C100  1  0.17983965  0.82115150  0.15805615  1  0.025827  0  -0.0136  -0.017611  0  3.986048  0
C  C101  1  0.66203243  0.67893194  0.15807117  1  -0.013665  0  -0.014209  -0.018406  0  3.989088  0
C  C102  1  0.99911502  0.82111929  0.34200272  1  0.042586  0  -0.01396  -0.019083  0  3.987263  0
C  C103  1  0.65905007  0.67893231  0.34203649  1  -0.083352  0  -0.013379  -0.018078  0  3.986286  0
C  C104  1  0.75900605  0.18737248  0.80754170  1  -0.0053  0  -0.073005  -0.107266  0  3.917653  0
C  C105  1  0.43349832  0.31254997  0.80752188  1  -0.08296  0  -0.072782  -0.107452  0  3.921432  0
C  C106  1  0.05350194  0.18744134  0.69238836  1  -0.042932  0  -0.073011  -0.106508  0  3.921149  0
C  C107  1  0.25394378  0.31254094  0.69236259  1  0.014533  0  -0.073737  -0.107641  0  3.918931  0
C  C108  1  0.24099299  0.81262880  0.19245871  1  -0.005496  0  -0.073002  -0.107352  0  3.91766  0
C  C109  1  0.56649972  0.68744861  0.19247945  1  -0.083121  0  -0.072747  -0.107367  0  3.921417  0
C  C110  1  0.94649650  0.81255904  0.30761096  1  -0.042915  0  -0.072964  -0.106407  0  3.921113  0
C  C111  1  0.74605699  0.68745809  0.30763793  1  0.014567  0  -0.073717  -0.107596  0  3.918838  0
C  C112  1  0.68894608  0.15585851  0.81559194  1  -0.031446  0  -0.012084  -0.020915  0  3.963382  0
C  C113  1  0.49544335  0.34411790  0.81556724  1  -0.019439  0  -0.011637  -0.019755  0  3.965035  0
C  C114  1  0.15505211  0.15588006  0.68438525  1  -0.025015  0  -0.01205  -0.021254  0  3.96162  0
C  C115  1  0.16040040  0.34409641  0.68433557  1  -0.011814  0  -0.012509  -0.021438  0  3.962853  0
C  C116  1  0.31105379  0.84414187  0.18440809  1  -0.031335  0  -0.012107  -0.020965  0  3.963531  0
C  C117  1  0.50455666  0.65588068  0.18443355  1  -0.019304  0  -0.011648  -0.019894  0  3.965179  0
C  C118  1  0.84494655  0.84412032  0.31561456  1  -0.02515  0  -0.012063  -0.021276  0  3.961713  0
C  C119  1  0.83959947  0.65590352  0.31566397  1  -0.011869  0  -0.012458  -0.021463  0  3.962854  0
C  C120  1  0.67865083  0.11574583  0.85813776  1  0.025733  0  -0.078428  -0.169759  0  3.872144  0
C  C121  1  0.46317681  0.38426277  0.85809335  1  0.015066  0  -0.079147  -0.171321  0  3.873607  0
C  C122  1  0.20544739  0.11571214  0.64188498  1  0.046757  0  -0.079191  -0.170846  0  3.874577  0
C  C123  1  0.15250715  0.38425196  0.64181304  1  0.023325  0  -0.078636  -0.170844  0  3.873113  0
C  C124  1  0.32134729  0.88425455  0.14186330  1  0.025713  0  -0.078415  -0.169753  0  3.872339  0
C  C125  1  0.53682253  0.61573671  0.14190695  1  0.015372  0  -0.079178  -0.171344  0  3.87372  0
C  C126  1  0.79455127  0.88428824  0.35811483  1  0.046798  0  -0.079144  -0.170824  0  3.874574  0
C  C127  1  0.84749219  0.61574752  0.35818726  1  0.023364  0  -0.078639  -0.170853  0  3.873061  0
C  C128  1  0.74226288  0.10587564  0.89185943  1  0.304612  0  0.095392  0.241912  0  4.045281  0
C  C129  1  0.36586659  0.39411928  0.89181768  1  0.291556  0  0.095992  0.242156  0  4.045306  0
C  C130  1  0.15175719  0.10583283  0.60814416  1  0.373134  0  0.09596  0.241509  0  4.047234  0
C  C131  1  0.23995297  0.39412019  0.60808854  1  0.260703  0  0.096068  0.242924  0  4.045665  0
C  C132  1  0.25773760  0.89412519  0.10814120  1  0.304452  0  0.095376  0.241905  0  4.045314  0
C  C133  1  0.63413146  0.60588155  0.10818251  1  0.291955  0  0.096024  0.24224  0  4.045554  0
C  C134  1  0.84824140  0.89416890  0.39185575  1  0.373176  0  0.096049  0.241562  0  4.047229  0
C  C135  1  0.76004659  0.60587884  0.39191176  1  0.260718  0  0.096058  0.242979  0  4.045564  0
C  C136  1  0.81283006  0.13749311  0.88347919  1  -0.046911  0  -0.08435  -0.190538  0  3.927831  0
C  C137  1  0.30374932  0.36244740  0.88344424  1  0.005908  0  -0.084551  -0.190516  0  3.929776  0
C  C138  1  0.04956806  0.13747603  0.61648911  1  -0.134326  0  -0.084287  -0.189061  0  3.927939  0
C  C139  1  0.33376756  0.36246345  0.61645517  1  0.073225  0  -0.084608  -0.190059  0  3.929187  0
C  C140  1  0.18716837  0.86250818  0.11652111  1  -0.046677  0  -0.084327  -0.190511  0  3.927776  0
C  C141  1  0.69624820  0.63755208  0.11655572  1  0.005635  0  -0.084598  -0.190646  0  3.92998  0
C  C142  1  0.95043197  0.86252480  0.38351054  1  -0.134451  0  -0.084324  -0.189119  0  3.928011  0
C  C143  1  0.66623222  0.63753559  0.38354562  1  0.073206  0  -0.084651  -0.190181  0  3.929162  0
C  C144  1  0.62523183  0.16609827  0.77744733  1  1.591535  0  0.243909  0.675352  0  4.134303  0
C  C145  1  0.59728021  0.33391615  0.77743555  1  1.578404  0  0.242938  0.673857  0  4.1336  0
C  C146  1  0.20853902  0.16611888  0.72251781  1  1.625587  0  0.242412  0.675127  0  4.131312  0
C  C147  1  0.06877252  0.33393211  0.72252010  1  1.590749  0  0.242384  0.674214  0  4.135781  0
C  C148  1  0.37476721  0.83390211  0.22255210  1  1.591492  0  0.243991  0.675545  0  4.134248  0
C  C149  1  0.40272177  0.66608333  0.22256569  1  1.578402  0  0.242954  0.673971  0  4.13335  0
C  C150  1  0.79146069  0.83388061  0.27748211  1  1.625617  0  0.242416  0.675146  0  4.131333  0
C  C151  1  0.93122666  0.66606738  0.27748107  1  1.590676  0  0.242327  0.674163  0  4.135723  0
C  C152  1  0.67231456  0.03346897  0.95507031  1  1.383134  0  0.239785  0.473785  0  4.135109  0
C  C153  1  0.37252233  0.46653237  0.95506818  1  1.376778  0  0.239022  0.4739  0  4.134113  0
C  C154  1  0.29421413  0.03343314  0.54494385  1  1.401222  0  0.239834  0.47472  0  4.136106  0
C  C155  1  0.16081647  0.46658322  0.54487778  1  1.391893  0  0.239019  0.473084  0  4.135181  0
C  C156  1  0.32768570  0.96653096  0.04492885  1  1.38314  0  0.239799  0.473754  0  4.135163  0
C  C157  1  0.62747732  0.53346801  0.04493136  1  1.376721  0  0.239069  0.473909  0  4.133984  0
C  C158  1  0.70578702  0.96656544  0.45505580  1  1.401212  0  0.239805  0.474578  0  4.136125  0
C  C159  1  0.83918325  0.53341627  0.45512214  1  1.391896  0  0.239032  0.473056  0  4.135207  0
C  C160  1  0.69251938  0.99374037  0.00119533  1  -0.021271  0  -0.017523  -0.034759  0  4.010479  0
C  C161  1  0.30622119  0.50624623  0.00121810  1  -0.033228  0  -0.017912  -0.03674  0  4.010815  0
C  C162  1  0.31379260  0.99371473  0.49880456  1  -0.025583  0  -0.01788  -0.034333  0  4.01086  0
C  C163  1  0.18743008  0.50630707  0.49875223  1  -0.016299  0  -0.018111  -0.036211  0  4.010028  0
C  C164  1  0.30748088  0.00625866  0.99880284  1  -0.021375  0  -0.017583  -0.034741  0  4.010452  0
C  C165  1  0.69378088  0.49375325  0.99878090  1  -0.033276  0  -0.017889  -0.03668  0  4.010759  0
C  C166  1  0.68620810  0.00628431  0.50119459  1  -0.025611  0  -0.017906  -0.034291  0  4.01083  0
C  C167  1  0.81256804  0.49369286  0.50124834  1  -0.016734  0  -0.018082  -0.036129  0  4.0101  0
C  C168  1  0.60965028  0.98540340  0.04022861  1  -0.039204  0  -0.078748  -0.087738  0  3.950536  0
C  C169  1  0.35011815  0.51460100  0.04022989  1  -0.044848  0  -0.078033  -0.085854  0  3.948059  0
C  C170  1  0.40498928  0.98539674  0.45975669  1  -0.098846  0  -0.078826  -0.087679  0  3.952929  0
C  C171  1  0.13522880  0.51467657  0.45971144  1  -0.058553  0  -0.077966  -0.084961  0  3.951018  0
C  C172  1  0.39035021  0.01459518  0.95976956  1  -0.039667  0  -0.078708  -0.087667  0  3.950549  0
C  C173  1  0.64988393  0.48539848  0.95976910  1  -0.044684  0  -0.078044  -0.085908  0  3.948122  0
C  C174  1  0.59501196  0.01460319  0.54024220  1  -0.098786  0  -0.078776  -0.087614  0  3.95283  0
C  C175  1  0.86477069  0.48532336  0.54028848  1  -0.058547  0  -0.077952  -0.085016  0  3.951007  0
C  C176  1  0.62358173  0.94769678  0.08330524  1  -0.0527  0  -0.077408  -0.08269  0  3.945803  0
C  C177  1  0.29319927  0.55232629  0.08330427  1  -0.025882  0  -0.077876  -0.085534  0  3.947095  0
C  C178  1  0.42876129  0.94769093  0.41668058  1  -0.021416  0  -0.077105  -0.082903  0  3.94828  0
C  C179  1  0.15459330  0.55235065  0.41661560  1  -0.015863  0  -0.078054  -0.085345  0  3.950271  0
C  C180  1  0.37641898  0.05230180  0.91669342  1  -0.052664  0  -0.07747  -0.082845  0  3.94596  0
C  C181  1  0.70680325  0.44767274  0.91669522  1  -0.025888  0  -0.077882  -0.085576  0  3.947125  0
C  C182  1  0.57123721  0.05230946  0.58332010  1  -0.021403  0  -0.077166  -0.083087  0  3.94822  0
C  C183  1  0.84540679  0.44764928  0.58338443  1  -0.015816  0  -0.078092  -0.085377  0  3.950232  0
C  C184  1  0.72053416  0.91618539  0.08723179  1  0.010268  0  -0.014662  -0.037133  0  3.95595  0
C  C185  1  0.19232105  0.58385162  0.08723527  1  -0.028423  0  -0.014463  -0.03588  0  3.954543  0
C  C186  1  0.36332262  0.91617884  0.41276459  1  -0.013445  0  -0.015275  -0.03847  0  3.954936  0
C  C187  1  0.22402269  0.58380291  0.41269073  1  -0.027931  0  -0.014262  -0.037631  0  3.9609  0
C  C188  1  0.27946534  0.08381409  0.91276763  1  0.010269  0  -0.014601  -0.03714  0  3.956051  0
C  C189  1  0.80767997  0.41614877  0.91276361  1  -0.028479  0  -0.014465  -0.035853  0  3.954494  0
C  C190  1  0.63667830  0.08382065  0.58723555  1  -0.013502  0  -0.015265  -0.038345  0  3.954823  0
C  C191  1  0.77597763  0.41619702  0.58730979  1  -0.027999  0  -0.014234  -0.037598  0  3.96079  0
C  C192  1  0.80362753  0.92378294  0.04782748  1  -0.047345  0  -0.092452  -0.104772  0  4.005526  0
C  C193  1  0.14855453  0.57623807  0.04786621  1  -0.060829  0  -0.091756  -0.104594  0  4.004937  0
C  C194  1  0.27264434  0.92376503  0.45217440  1  -0.020453  0  -0.091212  -0.101045  0  4.004121  0
C  C195  1  0.27534500  0.57617555  0.45208982  1  -0.046735  0  -0.091413  -0.102682  0  4.007448  0
C  C196  1  0.19637377  0.07621654  0.95217228  1  -0.04729  0  -0.092354  -0.104455  0  4.005445  0
C  C197  1  0.85144602  0.42376051  0.95213333  1  -0.060827  0  -0.091731  -0.10453  0  4.004876  0
C  C198  1  0.72735567  0.07623355  0.54782639  1  -0.020462  0  -0.091196  -0.101103  0  4.004195  0
C  C199  1  0.72465501  0.42382303  0.54791097  1  -0.046733  0  -0.09147  -0.102827  0  4.007401  0
C  C200  1  0.78984104  0.96288377  0.00543826  1  -0.128047  0  -0.099151  -0.134465  0  4.037469  0
C  C201  1  0.20464654  0.53711001  0.00549022  1  -0.091644  0  -0.098697  -0.132405  0  4.037049  0
C  C202  1  0.24734295  0.96285973  0.49455719  1  -0.088295  0  -0.099554  -0.136571  0  4.03957  0
C  C203  1  0.25821092  0.53710358  0.49448783  1  -0.101365  0  -0.098588  -0.133466  0  4.035308  0
C  C204  1  0.21015922  0.03711571  0.99456041  1  -0.127933  0  -0.099152  -0.134583  0  4.037467  0
C  C205  1  0.79535455  0.46288992  0.99450954  1  -0.091655  0  -0.09872  -0.132527  0  4.037086  0
C  C206  1  0.75265639  0.03713975  0.50544311  1  -0.088284  0  -0.099568  -0.136554  0  4.039625  0
C  C207  1  0.74178842  0.46289590  0.50551247  1  -0.10097  0  -0.098581  -0.13345  0  4.035364  0
C  C208  1  0.73510353  0.87298730  0.13233710  1  1.614202  0  0.240428  0.662257  0  4.149882  0
C  C209  1  0.13267995  0.62709447  0.13230514  1  1.600048  0  0.241559  0.663196  0  4.148807  0
C  C210  1  0.39200429  0.87293469  0.36768735  1  1.58927  0  0.241745  0.664272  0  4.147647  0
C  C211  1  0.24042732  0.62704324  0.36762358  1  1.591135  0  0.240767  0.66332  0  4.149327  0
C  C212  1  0.26489953  0.12701263  0.86766212  1  1.61363  0  0.240472  0.662221  0  4.149873  0
C  C213  1  0.86732226  0.37290411  0.86769560  1  1.599766  0  0.241458  0.663001  0  4.148807  0
C  C214  1  0.60799794  0.12706524  0.63231127  1  1.589441  0  0.241765  0.664356  0  4.147736  0
C  C215  1  0.75957421  0.37295759  0.63237814  1  1.591142  0  0.240803  0.663404  0  4.149238  0
N  N216  1  0.74006732  0.06494768  0.93443366  1  -1.249663  0  -0.398801  -0.377467  0  3.592176  0
N  N217  1  0.32542669  0.43506907  0.93438135  1  -1.264433  0  -0.398712  -0.377085  0  3.589528  0
N  N218  1  0.19494822  0.06488611  0.56558017  1  -1.236944  0  -0.398891  -0.377702  0  3.590215  0
N  N219  1  0.23939300  0.43510089  0.56554693  1  -1.277306  0  -0.398715  -0.377965  0  3.589744  0
N  N220  1  0.25993300  0.93505180  0.06556637  1  -1.249739  0  -0.398802  -0.377456  0  3.592207  0
N  N221  1  0.67457152  0.56493221  0.06561846  1  -1.264497  0  -0.398799  -0.377226  0  3.589449  0
N  N222  1  0.80505242  0.93511427  0.43441910  1  -1.236977  0  -0.39893  -0.377655  0  3.590214  0
N  N223  1  0.76060595  0.56489814  0.43445326  1  -1.27731  0  -0.398671  -0.377904  0  3.58984  0
O  O224  1  0.96118472  0.19702006  0.85904731  1  -1.165681  0  -0.392563  -0.655206  0  2.20434  0
O  O225  1  0.17987118  0.30291023  0.85899335  1  -1.177197  0  -0.394007  -0.655399  0  2.204869  0
O  O226  1  0.84165564  0.19704524  0.64093051  1  -1.181802  0  -0.393381  -0.655552  0  2.207364  0
O  O227  1  0.51714037  0.30303606  0.64094549  1  -1.179071  0  -0.393786  -0.654924  0  2.205036  0
O  O228  1  0.03881566  0.80297898  0.14095360  1  -1.165918  0  -0.392572  -0.655163  0  2.204455  0
O  O229  1  0.82012777  0.69709016  0.14100832  1  -1.177185  0  -0.393928  -0.655316  0  2.204855  0
O  O230  1  0.15834405  0.80295875  0.35906575  1  -1.18168  0  -0.393374  -0.655435  0  2.207287  0
O  O231  1  0.48285357  0.69696612  0.35905813  1  -1.179053  0  -0.393767  -0.654941  0  2.204932  0
O  O232  1  0.88853104  0.25713139  0.80097114  1  -1.215866  0  -0.40952  -0.73303  0  2.405419  0
O  O233  1  0.31056266  0.24275419  0.80097680  1  -1.216073  0  -0.409743  -0.733185  0  2.407042  0
O  O234  1  0.85423447  0.25720675  0.69893969  1  -1.211755  0  -0.409582  -0.733777  0  2.406738  0
O  O235  1  0.44674570  0.24279099  0.69892918  1  -1.210405  0  -0.409156  -0.733675  0  2.406695  0
O  O236  1  0.11147224  0.74286719  0.19902709  1  -1.215791  0  -0.409516  -0.733051  0  2.405382  0
O  O237  1  0.68943492  0.75724574  0.19902503  1  -1.216224  0  -0.409747  -0.733209  0  2.406991  0
O  O238  1  0.14576451  0.74279273  0.30105738  1  -1.211829  0  -0.409586  -0.733757  0  2.406845  0
O  O239  1  0.55325350  0.75720895  0.30106888  1  -1.210451  0  -0.409176  -0.733643  0  2.406646  0
O  O240  1  0.65700878  0.18800479  0.73236327  1  -1.206588  0  -0.415718  -0.708481  0  2.379497  0
O  O241  1  0.61057344  0.31206612  0.73232540  1  -1.205379  0  -0.415415  -0.708002  0  2.378658  0
O  O242  1  0.15485818  0.18804531  0.76759602  1  -1.211507  0  -0.415117  -0.709121  0  2.379951  0
O  O243  1  0.07738781  0.31209229  0.76762787  1  -1.204266  0  -0.414366  -0.707975  0  2.380367  0
O  O244  1  0.34299072  0.81199469  0.26763615  1  -1.206383  0  -0.415796  -0.708588  0  2.379499  0
O  O245  1  0.38942560  0.68793516  0.26767501  1  -1.205516  0  -0.415366  -0.707941  0  2.378443  0
O  O246  1  0.84514383  0.81195507  0.23240259  1  -1.211581  0  -0.415121  -0.709145  0  2.37992  0
O  O247  1  0.92261130  0.68790719  0.23237194  1  -1.204176  0  -0.414384  -0.707998  0  2.380338  0
O  O248  1  0.54309260  0.15286211  0.79196328  1  -1.199963  0  -0.407099  -0.688664  0  2.231372  0
O  O249  1  0.66489265  0.34710858  0.79200062  1  -1.193998  0  -0.406986  -0.687391  0  2.230738  0
O  O250  1  0.30391170  0.15287101  0.70800453  1  -1.231005  0  -0.406469  -0.687918  0  2.229097  0
O  O251  1  0.98789875  0.34714963  0.70800384  1  -1.200877  0  -0.406953  -0.688535  0  2.229838  0
O  O252  1  0.45690499  0.84713737  0.20803805  1  -1.199947  0  -0.407095  -0.688744  0  2.231455  0
O  O253  1  0.33511006  0.65288910  0.20800149  1  -1.193894  0  -0.407057  -0.687516  0  2.230664  0
O  O254  1  0.69608862  0.84712847  0.29199550  1  -1.230996  0  -0.406469  -0.687917  0  2.229121  0
O  O255  1  0.01210007  0.65285165  0.29199608  1  -1.200833  0  -0.406931  -0.688461  0  2.229793  0
O  O256  1  0.59967569  0.03739544  0.93777527  1  -1.123657  0  -0.281321  -0.461062  0  2.12589  0
O  O257  1  0.46244234  0.46260509  0.93779671  1  -1.122555  0  -0.280253  -0.460541  0  2.125138  0
O  O258  1  0.36289278  0.03738703  0.56224975  1  -1.123804  0  -0.281053  -0.461503  0  2.127414  0
O  O259  1  0.07482956  0.46264319  0.56214680  1  -1.129834  0  -0.280142  -0.459991  0  2.125351  0
O  O260  1  0.40032472  0.96260494  0.06222350  1  -1.123624  0  -0.281297  -0.461012  0  2.125904  0
O  O261  1  0.53755798  0.53739394  0.06220282  1  -1.122557  0  -0.280259  -0.460511  0  2.125155  0
O  O262  1  0.63710707  0.96261110  0.43775143  1  -1.123799  0  -0.281044  -0.461464  0  2.127389  0
O  O263  1  0.92516977  0.53735584  0.43785300  1  -1.129781  0  -0.280162  -0.460003  0  2.125322  0
O  O264  1  0.66286269  0.88109043  0.17423378  1  -1.211323  0  -0.396713  -0.678347  0  2.304652  0
O  O265  1  0.16293982  0.61899832  0.17422970  1  -1.199127  0  -0.396502  -0.677487  0  2.306026  0
O  O266  1  0.45624606  0.88098651  0.32582050  1  -1.200417  0  -0.397043  -0.678507  0  2.306427  0
O  O267  1  0.21820596  0.61894798  0.32571234  1  -1.197505  0  -0.39654  -0.677134  0  2.306045  0
O  O268  1  0.33714014  0.11891040  0.82576593  1  -1.210815  0  -0.396724  -0.678227  0  2.304621  0
O  O269  1  0.83706550  0.38100071  0.82576984  1  -1.198781  0  -0.396546  -0.677526  0  2.305944  0
O  O270  1  0.54375399  0.11901612  0.67417751  1  -1.200461  0  -0.397023  -0.678546  0  2.306449  0
O  O271  1  0.78179527  0.38105330  0.67428802  1  -1.197583  0  -0.396584  -0.6772  0  2.306152  0
O  O272  1  0.81828400  0.83157742  0.12473077  1  -1.204221  0  -0.393308  -0.666262  0  2.299549  0
O  O273  1  0.05716237  0.66852599  0.12466575  1  -1.206567  0  -0.395019  -0.668088  0  2.3003  0
O  O274  1  0.35017952  0.83155629  0.37528536  1  -1.187939  0  -0.394697  -0.667347  0  2.298578  0
O  O275  1  0.27448118  0.66847651  0.37527164  1  -1.194337  0  -0.394516  -0.667555  0  2.299542  0
O  O276  1  0.18171807  0.16842296  0.87526920  1  -1.204174  0  -0.393362  -0.666347  0  2.299677  0
O  O277  1  0.94283862  0.33147349  0.87533575  1  -1.206656  0  -0.394886  -0.667865  0  2.300311  0
O  O278  1  0.64982648  0.16844184  0.62471468  1  -1.187966  0  -0.39469  -0.667388  0  2.298542  0
O  O279  1  0.72552020  0.33152298  0.62472948  1  -1.194327  0  -0.394481  -0.667546  0  2.299477  0
O  O280  1  0.03174469  0.25015993  0.93707196  1  -1.215521  0  -0.604583  -0.824205  0  2.082392  0
O  O281  1  0.71792456  0.25024271  0.56290591  1  -1.207705  0  -0.605086  -0.825805  0  2.080214  0
O  O282  1  0.96825449  0.74983865  0.06292823  1  -1.215461  0  -0.604561  -0.824099  0  2.08246  0
O  O283  1  0.28201425  0.74978332  0.43709298  1  -1.207574  0  -0.605144  -0.825839  0  2.080286  0
O  O284  1  0.77547457  0.44762187  0.75019653  1  -1.248469  0  -0.60981  -0.833897  0  2.070088  0
O  O285  1  0.47399833  0.05237695  0.74997257  1  -1.25315  0  -0.610451  -0.835197  0  2.068597  0
O  O286  1  0.22451413  0.55237761  0.24980724  1  -1.248514  0  -0.609861  -0.834047  0  2.070051  0
O  O287  1  0.52599906  0.94762388  0.25002614  1  -1.253071  0  -0.610463  -0.835211  0  2.068571  0
