# generated using pymatgen
data_ErH6C7SO8
_symmetry_space_group_name_H-M   'P 1'
_cell_length_a   9.76019064
_cell_length_b   10.83230734
_cell_length_c   12.23274681
_cell_angle_alpha   103.39700663
_cell_angle_beta   89.99648015
_cell_angle_gamma   116.72447814
_symmetry_Int_Tables_number   1
_chemical_formula_structural   ErH6C7SO8
_chemical_formula_sum   'Er4 H24 C28 S4 O32'
_cell_volume   1115.62568984
_cell_formula_units_Z   4
loop_
 _symmetry_equiv_pos_site_id
 _symmetry_equiv_pos_as_xyz
  1  'x, y, z'
loop_
 _atom_site_type_symbol
 _atom_site_label
 _atom_site_symmetry_multiplicity
 _atom_site_fract_x
 _atom_site_fract_y
 _atom_site_fract_z
 _atom_site_occupancy
 _atom_site_pbe_bader_spin_density
 _atom_site_pbe_cm5_charge
 _atom_site_pbe_ddec_charge
 _atom_site_pbe_ddec_spin_density
 _atom_site_pbe_ddec_sum_bond_order
 _atom_site_pbe_magmom
Er  Er0  1  0.48639931  0.99991282  0.24998541  1  0  1.525162  2.055576  0  2.218461  0
Er  Er1  1  0.51359510  0.00007427  0.75000228  1  0  1.525032  2.055543  0  2.218453  0
Er  Er2  1  0.98085425  0.00015703  0.25011019  1  0  1.467319  2.117312  0  2.061586  0
Er  Er3  1  0.01914349  0.99984701  0.74989580  1  0  1.467271  2.117231  0  2.061634  0
H  H4  1  0.08871000  0.94086241  0.00239387  1  0  0.314515  0.405956  0  0.905517  0
H  H5  1  0.14783306  0.05919153  0.49781130  1  0  0.314318  0.40592  0  0.90586  0
H  H6  1  0.91129933  0.05913201  0.99760845  1  0  0.31455  0.405922  0  0.905455  0
H  H7  1  0.85217814  0.94082099  0.50220304  1  0  0.314348  0.406026  0  0.905854  0
H  H8  1  0.22692100  0.04317046  0.09717797  1  0  0.309548  0.398514  0  0.937356  0
H  H9  1  0.18396796  0.95710270  0.40279614  1  0  0.309242  0.397725  0  0.938726  0
H  H10  1  0.77309435  0.95681548  0.90281519  1  0  0.309499  0.398446  0  0.937422  0
H  H11  1  0.81606096  0.04292273  0.59721440  1  0  0.309191  0.397633  0  0.938895  0
H  H12  1  0.82216989  0.85101857  0.02307778  1  0  0.304956  0.390049  0  0.935408  0
H  H13  1  0.97094318  0.14900835  0.47719876  1  0  0.304969  0.390218  0  0.934783  0
H  H14  1  0.17783922  0.14898770  0.97692051  1  0  0.305016  0.390167  0  0.935243  0
H  H15  1  0.02906807  0.85100221  0.52279963  1  0  0.304941  0.390176  0  0.934899  0
H  H16  1  0.68946866  0.83860545  0.09371270  1  0  0.303902  0.40145  0  0.925243  0
H  H17  1  0.85064132  0.16150594  0.40663460  1  0  0.303833  0.4017  0  0.925108  0
H  H18  1  0.31052484  0.16136753  0.90628752  1  0  0.303903  0.401473  0  0.925205  0
H  H19  1  0.14935274  0.83849277  0.59336863  1  0  0.303852  0.401687  0  0.925101  0
H  H20  1  0.67274667  0.40717878  0.41081023  1  0  0.11714  0.134837  0  0.984465  0
H  H21  1  0.26540923  0.59198795  0.08941479  1  0  0.116936  0.134538  0  0.984556  0
H  H22  1  0.32721630  0.59280897  0.58921274  1  0  0.117154  0.134894  0  0.984364  0
H  H23  1  0.73458706  0.40803983  0.91057990  1  0  0.116979  0.134548  0  0.984678  0
H  H24  1  0.81221660  0.68018815  0.40755320  1  0  0.110603  0.123163  0  1.007459  0
H  H25  1  0.13135776  0.31901660  0.09293647  1  0  0.111046  0.123597  0  1.007166  0
H  H26  1  0.18777929  0.31980808  0.59247729  1  0  0.110663  0.123188  0  1.007621  0
H  H27  1  0.86865360  0.68099417  0.90704480  1  0  0.110998  0.123467  0  1.007403  0
C  C28  1  0.46103205  0.39643576  0.34222157  1  0  -0.01681  -0.127409  0  3.943835  0
C  C29  1  0.06459791  0.60345056  0.15768677  1  0  -0.016246  -0.126462  0  3.943626  0
C  C30  1  0.53895237  0.60356825  0.65778687  1  0  -0.016749  -0.127364  0  3.943647  0
C  C31  1  0.93538900  0.39654615  0.84230459  1  0  -0.016223  -0.126448  0  3.943666  0
C  C32  1  0.61631616  0.46392667  0.38430910  1  0  -0.087788  -0.104806  0  3.999196  0
C  C33  1  0.15218907  0.53552049  0.11581475  1  0  -0.087583  -0.103923  0  3.99982  0
C  C34  1  0.38366442  0.53607173  0.61571941  1  0  -0.087906  -0.104993  0  3.999507  0
C  C35  1  0.84781101  0.46449232  0.88417594  1  0  -0.08772  -0.104146  0  4.000083  0
C  C36  1  0.68961828  0.60871957  0.38298194  1  0  -0.090713  -0.096961  0  3.993108  0
C  C37  1  0.08041858  0.39077661  0.11728146  1  0  -0.09179  -0.099549  0  3.996203  0
C  C38  1  0.31037097  0.39127771  0.61704961  1  0  -0.090681  -0.096867  0  3.993211  0
C  C39  1  0.91958245  0.60922990  0.88269727  1  0  -0.091602  -0.099164  0  3.996116  0
C  C40  1  0.58970531  0.65002709  0.33980821  1  0  -0.024774  -0.14165  0  3.956043  0
C  C41  1  0.93915559  0.34990111  0.16027726  1  0  -0.024412  -0.139998  0  3.958299  0
C  C42  1  0.41030021  0.34998636  0.66021777  1  0  -0.024802  -0.1417  0  3.956519  0
C  C43  1  0.06084154  0.65008940  0.83969398  1  0  -0.02462  -0.14029  0  3.958624  0
C  C44  1  0.35461497  0.24245720  0.32039318  1  0  0.230108  0.673403  0  4.1888  0
C  C45  1  0.11249252  0.75756646  0.17957418  1  0  0.229915  0.672573  0  4.190398  0
C  C46  1  0.64538712  0.75755553  0.67960404  1  0  0.230087  0.673324  0  4.188729  0
C  C47  1  0.88749857  0.24243861  0.82043530  1  0  0.229882  0.672658  0  4.19048  0
C  C48  1  0.63305148  0.78852875  0.31484520  1  0  0.228831  0.664119  0  4.178149  0
C  C49  1  0.84385353  0.21154111  0.18528862  1  0  0.227102  0.662227  0  4.182561  0
C  C50  1  0.36695564  0.21148380  0.68516588  1  0  0.228698  0.664041  0  4.17863  0
C  C51  1  0.15614863  0.78844716  0.81469032  1  0  0.227217  0.662472  0  4.182259  0
C  C52  1  0.46375567  0.05192366  0.00779740  1  0  0.227643  0.51549  0  4.172693  0
C  C53  1  0.41196403  0.94800209  0.49218623  1  0  0.227083  0.514797  0  4.17456  0
C  C54  1  0.53623396  0.94805797  0.99219812  1  0  0.227674  0.515617  0  4.172347  0
C  C55  1  0.58805480  0.05202364  0.50779984  1  0  0.226918  0.514477  0  4.175378  0
S  S56  1  0.40469155  0.51141775  0.30380575  1  0  0.129014  0.212629  0  2.868112  0
S  S57  1  0.89308656  0.48887923  0.19597625  1  0  0.129173  0.212239  0  2.869056  0
S  S58  1  0.59530243  0.48857875  0.69620191  1  0  0.128981  0.212616  0  2.868086  0
S  S59  1  0.10690374  0.51110786  0.80401143  1  0  0.129242  0.212308  0  2.869338  0
O  O60  1  0.41113613  0.16186697  0.33672921  1  0  -0.418586  -0.692026  0  2.352498  0
O  O61  1  0.24958350  0.83777956  0.16323244  1  0  -0.418076  -0.690922  0  2.350701  0
O  O62  1  0.58885297  0.83813412  0.66325490  1  0  -0.418641  -0.692026  0  2.352482  0
O  O63  1  0.75041160  0.16222124  0.83677451  1  0  -0.418051  -0.690984  0  2.350716  0
O  O64  1  0.21368629  0.19789904  0.28441459  1  0  -0.408969  -0.668957  0  2.306133  0
O  O65  1  0.01635613  0.80250610  0.21559957  1  0  -0.409624  -0.668977  0  2.307447  0
O  O66  1  0.78631138  0.80210074  0.71558886  1  0  -0.408926  -0.66885  0  2.306128  0
O  O67  1  0.98364150  0.19749565  0.78441738  1  0  -0.409581  -0.668979  0  2.307495  0
O  O68  1  0.77706601  0.88104977  0.33927924  1  0  -0.418886  -0.717787  0  2.361593  0
O  O69  1  0.89531987  0.11884379  0.16111055  1  0  -0.418378  -0.717243  0  2.364058  0
O  O70  1  0.22295126  0.11895849  0.66073174  1  0  -0.418794  -0.717734  0  2.361811  0
O  O71  1  0.10469621  0.88115182  0.83888140  1  0  -0.418398  -0.717392  0  2.364085  0
O  O72  1  0.53140524  0.81051458  0.27066901  1  0  -0.375672  -0.644999  0  2.278014  0
O  O73  1  0.72013363  0.18966061  0.22922957  1  0  -0.375241  -0.644335  0  2.279011  0
O  O74  1  0.46859918  0.18948641  0.72932245  1  0  -0.375639  -0.64498  0  2.278114  0
O  O75  1  0.27986100  0.81030847  0.77073876  1  0  -0.37525  -0.644326  0  2.278666  0
O  O76  1  0.42506123  0.08635344  0.10427087  1  0  -0.34938  -0.578546  0  2.364901  0
O  O77  1  0.33888412  0.91339206  0.39569241  1  0  -0.349624  -0.578545  0  2.365883  0
O  O78  1  0.57493122  0.91361745  0.89572563  1  0  -0.349307  -0.578553  0  2.364393  0
O  O79  1  0.66114486  0.08663142  0.60430218  1  0  -0.349486  -0.578369  0  2.36558  0
O  O80  1  0.44693277  0.09290057  0.92226628  1  0  -0.35431  -0.588289  0  2.377982  0
O  O81  1  0.35422111  0.90701130  0.57771563  1  0  -0.353881  -0.587982  0  2.376575  0
O  O82  1  0.55304170  0.90706508  0.07772012  1  0  -0.354466  -0.588408  0  2.377961  0
O  O83  1  0.64576745  0.09299075  0.42227768  1  0  -0.35381  -0.587809  0  2.3774  0
O  O84  1  0.11629365  0.01366479  0.07538889  1  0  -0.600829  -0.827955  0  2.126578  0
O  O85  1  0.10283620  0.98661757  0.42467465  1  0  -0.600695  -0.826802  0  2.128058  0
O  O86  1  0.88372183  0.98632964  0.92461180  1  0  -0.60081  -0.827793  0  2.126827  0
O  O87  1  0.89717544  0.01339171  0.57534063  1  0  -0.600702  -0.826849  0  2.128123  0
O  O88  1  0.78410525  0.82580346  0.09327960  1  0  -0.625157  -0.816733  0  2.040485  0
O  O89  1  0.95807173  0.17434941  0.40705829  1  0  -0.624814  -0.817133  0  2.039504  0
O  O90  1  0.21590585  0.17420064  0.90672069  1  0  -0.625216  -0.816859  0  2.040378  0
O  O91  1  0.04192656  0.82565368  0.59293769  1  0  -0.624833  -0.817075  0  2.039626  0
