# generated using pymatgen
data_AgH17C18N4O3
_symmetry_space_group_name_H-M   'P 1'
_cell_length_a   5.94074136
_cell_length_b   12.83014866
_cell_length_c   26.42535040
_cell_angle_alpha   94.07982251
_cell_angle_beta   89.99354555
_cell_angle_gamma   103.39872208
_symmetry_Int_Tables_number   1
_chemical_formula_structural   AgH17C18N4O3
_chemical_formula_sum   'Ag4 H68 C72 N16 O12'
_cell_volume   1954.08928618
_cell_formula_units_Z   4
loop_
 _symmetry_equiv_pos_site_id
 _symmetry_equiv_pos_as_xyz
  1  'x, y, z'
loop_
 _atom_site_type_symbol
 _atom_site_label
 _atom_site_symmetry_multiplicity
 _atom_site_fract_x
 _atom_site_fract_y
 _atom_site_fract_z
 _atom_site_occupancy
 _atom_site_pbe_bader_charge
 _atom_site_pbe_bader_spin_density
 _atom_site_pbe_cm5_charge
 _atom_site_pbe_ddec_charge
 _atom_site_pbe_ddec_spin_density
 _atom_site_pbe_ddec_sum_bond_order
 _atom_site_pbe_magmom
Ag  Ag0  1  0.49998680  0.99999270  0.49999852  1  0.578958  0  0.493479  0.375101  0  1.860287  0
Ag  Ag1  1  0.50001058  0.99999616  0.99999947  1  0.579417  0  0.492576  0.37378  0  1.859011  0
Ag  Ag2  1  0.13988123  0.99992553  0.75000756  1  0.733146  0  0.50459  0.516551  0  1.942396  0
Ag  Ag3  1  0.86009877  0.00008033  0.24999350  1  0.733187  0  0.504605  0.516637  0  1.942197  0
H  H4  1  0.95898771  0.16533888  0.60414424  1  0.119171  0  0.103868  0.112191  0  1.040561  0
H  H5  1  0.79406890  0.83445543  0.89585048  1  0.109794  0  0.104778  0.113276  0  1.040675  0
H  H6  1  0.04100471  0.83465815  0.39585648  1  0.119111  0  0.10388  0.112223  0  1.04046  0
H  H7  1  0.20592982  0.16554075  0.10415247  1  0.109708  0  0.104771  0.113251  0  1.040714  0
H  H8  1  0.41681460  0.29023834  0.60204221  1  0.071011  0  0.10217  0.115317  0  0.981196  0
H  H9  1  0.12722351  0.70936205  0.89797742  1  0.05077  0  0.102325  0.115737  0  0.980232  0
H  H10  1  0.58319240  0.70976767  0.39795280  1  0.070994  0  0.102137  0.115359  0  0.981088  0
H  H11  1  0.87278147  0.29063653  0.10202562  1  0.050755  0  0.102296  0.115701  0  0.980294  0
H  H12  1  0.66200852  0.39493230  0.59386211  1  0.024073  0  0.099586  0.106978  0  0.97399  0
H  H13  1  0.26774172  0.60470373  0.90615487  1  0.036964  0  0.099649  0.107562  0  0.973944  0
H  H14  1  0.33801070  0.60507120  0.40613697  1  0.024277  0  0.099631  0.107071  0  0.973986  0
H  H15  1  0.73225830  0.39529167  0.09384653  1  0.037075  0  0.099594  0.107463  0  0.974011  0
H  H16  1  0.82001110  0.25113595  0.43993545  1  0.113757  0  0.108025  0.113003  0  1.001111  0
H  H17  1  0.56778386  0.74971865  0.06012716  1  0.124683  0  0.108188  0.113425  0  1.000352  0
H  H18  1  0.17997635  0.74885787  0.56006476  1  0.113705  0  0.108041  0.113025  0  1.001117  0
H  H19  1  0.43224491  0.25027028  0.93987664  1  0.124213  0  0.108222  0.113479  0  1.000253  0
H  H20  1  0.75179072  0.29338720  0.52887574  1  0.04645  0  0.104202  0.102797  0  0.99936  0
H  H21  1  0.45779819  0.70693239  0.97114366  1  0.069343  0  0.104605  0.103549  0  0.998594  0
H  H22  1  0.24819801  0.70660582  0.47112443  1  0.046044  0  0.104209  0.102831  0  0.999398  0
H  H23  1  0.54221752  0.29305734  0.02885980  1  0.069155  0  0.104579  0.103472  0  0.998706  0
H  H24  1  0.85741292  0.17346181  0.68471292  1  0.09949  0  0.111758  0.132043  0  1.018209  0
H  H25  1  0.68455232  0.82613396  0.81521700  1  0.124439  0  0.110868  0.131048  0  1.018444  0
H  H26  1  0.14256853  0.82653683  0.31528747  1  0.099275  0  0.111736  0.132047  0  1.018228  0
H  H27  1  0.31545891  0.17386701  0.18478689  1  0.124188  0  0.110894  0.131127  0  1.018447  0
H  H28  1  0.39619443  0.36331281  0.74544251  1  0.057756  0  0.098384  0.109747  0  1.008888  0
H  H29  1  0.03321967  0.63622978  0.75461158  1  0.026954  0  0.098301  0.109288  0  1.009186  0
H  H30  1  0.60377696  0.63668593  0.25455335  1  0.057716  0  0.098393  0.109692  0  1.008901  0
H  H31  1  0.96678935  0.36377689  0.24538989  1  0.027143  0  0.098324  0.109293  0  1.009243  0
H  H32  1  0.28230476  0.26078867  0.69764516  1  0.089702  0  0.104966  0.127123  0  0.999323  0
H  H33  1  0.02192873  0.73877225  0.80240453  1  0.094283  0  0.105017  0.127581  0  0.999035  0
H  H34  1  0.71768726  0.73921091  0.30234922  1  0.089814  0  0.104955  0.127101  0  0.999361  0
H  H35  1  0.97808532  0.26123438  0.19759807  1  0.094326  0  0.105033  0.127602  0  0.999048  0
H  H36  1  0.19792552  0.12652858  0.55298712  1  0.124971  0  0.112359  0.08716  0  1.059057  0
H  H37  1  0.07122205  0.87341762  0.94705670  1  0.11843  0  0.112828  0.086976  0  1.058587  0
H  H38  1  0.80205955  0.87346048  0.44701025  1  0.12485  0  0.112391  0.087193  0  1.05906  0
H  H39  1  0.92878761  0.12658021  0.05294405  1  0.118405  0  0.1128  0.08698  0  1.058658  0
H  H40  1  0.02855485  0.16479466  0.37393363  1  0.152894  0  0.108442  0.121343  0  1.028143  0
H  H41  1  0.86258533  0.83616190  0.12612267  1  0.106341  0  0.108472  0.121916  0  1.027565  0
H  H42  1  0.97144208  0.83520803  0.62606541  1  0.152973  0  0.108495  0.12142  0  1.028087  0
H  H43  1  0.13744628  0.16383271  0.87387832  1  0.106736  0  0.108481  0.121921  0  1.027616  0
H  H44  1  0.16338651  0.39089225  0.64206925  1  0.016053  0  0.080519  0.113088  0  1.046526  0
H  H45  1  0.77297910  0.60862592  0.85798650  1  0.02819  0  0.07967  0.112162  0  1.046565  0
H  H46  1  0.83661593  0.60911135  0.35792529  1  0.01615  0  0.080533  0.11311  0  1.046516  0
H  H47  1  0.22702289  0.39137677  0.14201254  1  0.028217  0  0.079665  0.112173  0  1.046556  0
H  H48  1  0.36789392  0.50873903  0.62671862  1  0.026337  0  0.086904  0.125062  0  0.997486  0
H  H49  1  0.85963422  0.49077953  0.87331506  1  0.013792  0  0.086909  0.125397  0  0.997513  0
H  H50  1  0.63211187  0.49126454  0.37327705  1  0.026091  0  0.086911  0.125056  0  0.997507  0
H  H51  1  0.14035825  0.50921759  0.12668150  1  0.013763  0  0.086894  0.12534  0  0.997545  0
H  H52  1  0.26820401  0.49657109  0.68947404  1  0.013938  0  0.083426  0.114179  0  1.033766  0
H  H53  1  0.77215560  0.50297116  0.81056688  1  0.024119  0  0.083584  0.114525  0  1.032322  0
H  H54  1  0.73178792  0.50343170  0.31052085  1  0.013994  0  0.083409  0.114134  0  1.033836  0
H  H55  1  0.22784841  0.49703560  0.18943005  1  0.024133  0  0.08362  0.114574  0  1.032183  0
H  H56  1  0.67311784  0.53507682  0.72132660  1  0.004887  0  0.083351  0.113892  0  1.025353  0
H  H57  1  0.13891070  0.46464876  0.77865388  1  0.020624  0  0.083427  0.114166  0  1.025767  0
H  H58  1  0.32687540  0.46492186  0.27867229  1  0.004871  0  0.083338  0.113859  0  1.025361  0
H  H59  1  0.86109040  0.53535554  0.22134523  1  0.020554  0  0.083453  0.114202  0  1.025789  0
H  H60  1  0.78957384  0.54430850  0.65946766  1  0.054239  0  0.087991  0.131816  0  1.009032  0
H  H61  1  0.24603010  0.45538122  0.84051936  1  0.039343  0  0.087867  0.131671  0  1.010753  0
H  H62  1  0.21042524  0.45569176  0.34053243  1  0.05424  0  0.087984  0.131818  0  1.009037  0
H  H63  1  0.75396104  0.54461663  0.15948025  1  0.039361  0  0.087853  0.13166  0  1.010747  0
H  H64  1  0.86763879  0.45499269  0.70073150  1  0.018014  0  0.082361  0.111635  0  1.046861  0
H  H65  1  0.41334730  0.54486271  0.79930682  1  0.023593  0  0.081502  0.110155  0  1.047825  0
H  H66  1  0.13235445  0.54500597  0.29926776  1  0.017958  0  0.082359  0.111629  0  1.046863  0
H  H67  1  0.58665562  0.45513511  0.20069468  1  0.023535  0  0.081469  0.110162  0  1.047838  0
H  H68  1  0.31378612  0.06043985  0.40089543  1  0.139814  0  0.115576  0.097431  0  1.030901  0
H  H69  1  0.25259870  0.94016044  0.09914929  1  0.140078  0  0.115606  0.096817  0  1.030423  0
H  H70  1  0.68620298  0.93955726  0.59910150  1  0.139868  0  0.115582  0.097387  0  1.030875  0
H  H71  1  0.74742355  0.05983902  0.90085076  1  0.140092  0  0.115611  0.096862  0  1.030407  0
C  C72  1  0.98668521  0.19568696  0.50267750  1  -0.080748  0  -0.013455  0.046723  0  4.068142  0
C  C73  1  0.79040343  0.80464911  0.99737350  1  -0.022165  0  -0.015037  0.045474  0  4.068054  0
C  C74  1  0.01330184  0.80430607  0.49732192  1  -0.081293  0  -0.013566  0.046577  0  4.068215  0
C  C75  1  0.20961213  0.19534707  0.00262945  1  -0.022209  0  -0.014833  0.045707  0  4.067913  0
C  C76  1  0.51548676  0.40006140  0.66893577  1  0.083475  0  -0.013705  0.261135  0  3.785454  0
C  C77  1  0.11592934  0.59952887  0.83109666  1  0.072804  0  -0.013098  0.260974  0  3.78624  0
C  C78  1  0.48451148  0.59994053  0.33106173  1  0.083245  0  -0.013645  0.261386  0  3.785044  0
C  C79  1  0.88407518  0.40047216  0.16890496  1  0.072779  0  -0.013144  0.260919  0  3.786323  0
C  C80  1  0.85778952  0.22028953  0.59166378  1  -0.064417  0  -0.085655  -0.139645  0  3.982101  0
C  C81  1  0.63777229  0.77956880  0.90833504  1  -0.065088  0  -0.087571  -0.142265  0  3.986311  0
C  C82  1  0.14221085  0.77970993  0.40833627  1  -0.064365  0  -0.085661  -0.139598  0  3.981971  0
C  C83  1  0.36223197  0.22042497  0.09166743  1  -0.065139  0  -0.08751  -0.142225  0  3.986284  0
C  C84  1  0.62068365  0.26070306  0.72072278  1  0.037203  0  0.037316  0.17757  0  3.9319  0
C  C85  1  0.36037530  0.73892680  0.77926867  1  0.032098  0  0.037517  0.178429  0  3.929501  0
C  C86  1  0.37930278  0.73929883  0.27927624  1  0.036858  0  0.037229  0.177333  0  3.932156  0
C  C87  1  0.63963297  0.26107499  0.22073488  1  0.032041  0  0.037468  0.178356  0  3.92943  0
C  C88  1  0.72754967  0.26135293  0.63102740  1  0.032191  0  0.020522  0.19215  0  3.906751  0
C  C89  1  0.46678141  0.73827507  0.86894785  1  -0.024287  0  0.020551  0.191153  0  3.906777  0
C  C90  1  0.27245271  0.73865055  0.36897206  1  0.032051  0  0.020503  0.19209  0  3.906762  0
C  C91  1  0.53322357  0.26172353  0.13105444  1  -0.024275  0  0.020495  0.191085  0  3.906776  0
C  C92  1  0.57778819  0.33743762  0.62101262  1  -0.028737  0  -0.15188  -0.258949  0  3.86259  0
C  C93  1  0.24098010  0.66216304  0.87900029  1  -0.023886  0  -0.150802  -0.258475  0  3.861717  0
C  C94  1  0.42221589  0.66256591  0.37898532  1  -0.029021  0  -0.151935  -0.259165  0  3.862505  0
C  C95  1  0.75902449  0.33783477  0.12100158  1  -0.023494  0  -0.150764  -0.258356  0  3.861797  0
C  C96  1  0.94492198  0.20629854  0.45109703  1  -0.056726  0  -0.062144  -0.076454  0  3.916017  0
C  C97  1  0.73770880  0.79438870  0.04896104  1  -0.071006  0  -0.062564  -0.077482  0  3.915291  0
C  C98  1  0.05506756  0.79369609  0.54890283  1  -0.056731  0  -0.062099  -0.076365  0  3.916051  0
C  C99  1  0.26231653  0.20560347  0.95104175  1  -0.070508  0  -0.062762  -0.077701  0  3.915314  0
C  C100  1  0.85843174  0.24130533  0.54196372  1  -0.023332  0  -0.079252  -0.110079  0  3.97282  0
C  C101  1  0.61679509  0.75886135  0.95806611  1  -0.038585  0  -0.079811  -0.110267  0  3.97336  0
C  C102  1  0.14156862  0.75869411  0.45803671  1  -0.022635  0  -0.079284  -0.110169  0  3.972906  0
C  C103  1  0.38321461  0.24113321  0.04193715  1  -0.038651  0  -0.079888  -0.110235  0  3.973362  0
C  C104  1  0.74428060  0.22763165  0.67884312  1  -0.041759  0  -0.092723  -0.224128  0  3.899086  0
C  C105  1  0.51723360  0.77195506  0.82111634  1  0.009571  0  -0.092681  -0.223192  0  3.898401  0
C  C106  1  0.25570711  0.77236942  0.32115623  1  -0.041111  0  -0.092625  -0.224005  0  3.89907  0
C  C107  1  0.48277467  0.22804674  0.17888683  1  0.009924  0  -0.092718  -0.223345  0  3.89844  0
C  C108  1  0.43994616  0.32107135  0.71054875  1  -0.048013  0  -0.155446  -0.272889  0  3.860866  0
C  C109  1  0.11929623  0.67851039  0.78949379  1  -0.016972  0  -0.155272  -0.27272  0  3.860003  0
C  C110  1  0.56004118  0.67892899  0.28944793  1  -0.04782  0  -0.155433  -0.272839  0  3.861022  0
C  C111  1  0.88071117  0.32149303  0.21050869  1  -0.017219  0  -0.15524  -0.272664  0  3.85998  0
C  C112  1  0.15275905  0.13793563  0.51404832  1  0.542282  0  0.042893  0.032992  0  3.874308  0
C  C113  1  0.01444253  0.86225154  0.98600299  1  0.550649  0  0.043751  0.034885  0  3.872536  0
C  C114  1  0.84722386  0.86205582  0.48594991  1  0.542755  0  0.042917  0.032971  0  3.874261  0
C  C115  1  0.98556785  0.13775110  0.01399832  1  0.550611  0  0.043731  0.034713  0  3.872763  0
C  C116  1  0.06133831  0.15825147  0.41396057  1  -0.023673  0  -0.08263  -0.104723  0  3.961125  0
C  C117  1  0.90207125  0.84252775  0.08609343  1  -0.023299  0  -0.081291  -0.103692  0  3.9591  0
C  C118  1  0.93864827  0.84174398  0.58603857  1  -0.023475  0  -0.082639  -0.104785  0  3.96103  0
C  C119  1  0.09795700  0.15746688  0.91390718  1  -0.023866  0  -0.081231  -0.103585  0  3.959043  0
C  C120  1  0.66942029  0.23663357  0.76957868  1  0.195518  0  0.004756  -0.104485  0  4.099923  0
C  C121  1  0.43269991  0.76321309  0.73040266  1  0.163819  0  0.004276  -0.105262  0  4.099586  0
C  C122  1  0.33058442  0.76337795  0.23042109  1  0.195534  0  0.004855  -0.104165  0  4.099907  0
C  C123  1  0.56730954  0.23679108  0.26960212  1  0.163491  0  0.004434  -0.104998  0  4.099398  0
C  C124  1  0.56306326  0.27239027  0.81335160  1  0.821405  0  0.190528  0.261219  0  4.05846  0
C  C125  1  0.29027933  0.72737779  0.68668260  1  0.853204  0  0.189559  0.259082  0  4.059205  0
C  C126  1  0.43692927  0.72762045  0.18664776  1  0.821272  0  0.190437  0.261124  0  4.058386  0
C  C127  1  0.70972677  0.27262641  0.31332105  1  0.85337  0  0.189417  0.258814  0  4.059222  0
C  C128  1  0.31711349  0.45152768  0.65602491  1  -0.047567  0  -0.246363  -0.419165  0  3.901197  0
C  C129  1  0.86606384  0.54801223  0.84402384  1  -0.06282  0  -0.245113  -0.417908  0  3.899127  0
C  C130  1  0.68288854  0.54847509  0.34397073  1  -0.04736  0  -0.246383  -0.419206  0  3.901111  0
C  C131  1  0.13393606  0.45198966  0.15597480  1  -0.06286  0  -0.245117  -0.417872  0  3.898995  0
C  C132  1  0.72388061  0.48841325  0.68854458  1  -0.0785  0  -0.250135  -0.428725  0  3.88756  0
C  C133  1  0.23613855  0.51129681  0.81146356  1  -0.083369  0  -0.250174  -0.428484  0  3.891816  0
C  C134  1  0.27611511  0.51158701  0.31145512  1  -0.078252  0  -0.250118  -0.428742  0  3.887503  0
C  C135  1  0.76386262  0.48870424  0.18853694  1  -0.083266  0  -0.250145  -0.428505  0  3.891883  0
C  C136  1  0.84303631  0.18004517  0.77748957  1  0.859429  0  0.211793  0.307582  0  3.985432  0
C  C137  1  0.66276829  0.81993770  0.72241679  1  0.875387  0  0.212599  0.307283  0  3.983728  0
C  C138  1  0.15696631  0.81996552  0.22251131  1  0.859684  0  0.211822  0.307497  0  3.985707  0
C  C139  1  0.33722986  0.18006407  0.27758752  1  0.875807  0  0.212694  0.307377  0  3.983669  0
C  C140  1  0.21940494  0.10069448  0.42840207  1  0.453378  0  0.04388  0.083862  0  3.882885  0
C  C141  1  0.11793136  0.89988970  0.07165078  1  0.445642  0  0.043355  0.083818  0  3.880864  0
C  C142  1  0.78058085  0.89929940  0.57159549  1  0.452911  0  0.043848  0.083894  0  3.882763  0
C  C143  1  0.88209392  0.10010574  0.92834949  1  0.446083  0  0.043326  0.083594  0  3.881053  0
N  N144  1  0.26492966  0.09181553  0.47796684  1  -1.206096  0  -0.352144  -0.18906  0  3.639196  0
N  N145  1  0.17265404  0.90849029  0.02208273  1  -1.209247  0  -0.351665  -0.188909  0  3.636401  0
N  N146  1  0.73505405  0.90817755  0.52203068  1  -1.206034  0  -0.3521  -0.188975  0  3.639187  0
N  N147  1  0.82736524  0.09150998  0.97791735  1  -1.209336  0  -0.351603  -0.18866  0  3.6364  0
N  N148  1  0.32518626  0.03718102  0.64515603  1  0.817226  0  0.09189  0.72231  0  4.420069  0
N  N149  1  0.28863770  0.96257078  0.85473619  1  0.818957  0  0.089655  0.718348  0  4.420207  0
N  N150  1  0.67478799  0.96282008  0.35484219  1  0.81711  0  0.091897  0.722559  0  4.420568  0
N  N151  1  0.71137605  0.03743189  0.14526399  1  0.818662  0  0.089719  0.71849  0  4.420467  0
N  N152  1  0.99369110  0.13631184  0.78153916  1  -1.159407  0  -0.329235  -0.370293  0  3.159027  0
N  N153  1  0.85713581  0.86376470  0.71831440  1  -1.172821  0  -0.329992  -0.369958  0  3.15839  0
N  N154  1  0.00631160  0.86369565  0.21846083  1  -1.159677  0  -0.329301  -0.370342  0  3.159373  0
N  N155  1  0.14287480  0.13624516  0.28168758  1  -1.173218  0  -0.330089  -0.370081  0  3.158599  0
N  N156  1  0.48387503  0.30559733  0.84986777  1  -1.141101  0  -0.29513  -0.365613  0  2.805302  0
N  N157  1  0.17754637  0.69416602  0.65021841  1  -1.146282  0  -0.294133  -0.363402  0  2.804558  0
N  N158  1  0.51611463  0.69441101  0.15013037  1  -1.141108  0  -0.295138  -0.365678  0  2.805214  0
N  N159  1  0.82247391  0.30584298  0.34978656  1  -1.146294  0  -0.294018  -0.363205  0  2.804348  0
O  O160  1  0.16318288  0.08409917  0.65615795  1  -0.571799  0  -0.203582  -0.473444  0  2.005797  0
O  O161  1  0.07984249  0.91547121  0.84365490  1  -0.573375  0  -0.201713  -0.47161  0  2.005436  0
O  O162  1  0.83678058  0.91589716  0.34383781  1  -0.571567  0  -0.203576  -0.473546  0  2.006203  0
O  O163  1  0.92016835  0.08452899  0.15634783  1  -0.573262  0  -0.201749  -0.47167  0  2.005594  0
O  O164  1  0.40374576  0.98770775  0.67882799  1  -0.542537  0  -0.206725  -0.459581  0  2.024206  0
O  O165  1  0.41664912  0.01231503  0.82112475  1  -0.540345  0  -0.206295  -0.457889  0  2.023487  0
O  O166  1  0.59623417  0.01230133  0.32117282  1  -0.542701  0  -0.206711  -0.459645  0  2.024234  0
O  O167  1  0.58335366  0.98768925  0.17887511  1  -0.540238  0  -0.206277  -0.457911  0  2.02351  0
O  O168  1  0.40935242  0.03980666  0.60130332  1  -0.555021  0  -0.196225  -0.468857  0  2.079366  0
O  O169  1  0.36997511  0.95986895  0.89859690  1  -0.557897  0  -0.196327  -0.468431  0  2.078647  0
O  O170  1  0.59062608  0.96019282  0.39869522  1  -0.555062  0  -0.196257  -0.469003  0  2.079526  0
O  O171  1  0.63004964  0.04013215  0.10140208  1  -0.557802  0  -0.196384  -0.468542  0  2.078902  0
