# generated using pymatgen
data_Cu3H8C12I3N2
_symmetry_space_group_name_H-M   'P 1'
_cell_length_a   4.08139784
_cell_length_b   13.16909734
_cell_length_c   15.64443623
_cell_angle_alpha   112.82496342
_cell_angle_beta   92.45982257
_cell_angle_gamma   97.49405131
_symmetry_Int_Tables_number   1
_chemical_formula_structural   Cu3H8C12I3N2
_chemical_formula_sum   'Cu6 H16 C24 I6 N4'
_cell_volume   764.36421686
_cell_formula_units_Z   2
loop_
 _symmetry_equiv_pos_site_id
 _symmetry_equiv_pos_as_xyz
  1  'x, y, z'
loop_
 _atom_site_type_symbol
 _atom_site_label
 _atom_site_symmetry_multiplicity
 _atom_site_fract_x
 _atom_site_fract_y
 _atom_site_fract_z
 _atom_site_occupancy
 _atom_site_hle17_bader_spin_density
 _atom_site_hle17_ddec_charge
 _atom_site_hle17_ddec_spin_density
 _atom_site_hle17_ddec_sum_bond_order
 _atom_site_hle17_magmom
 _atom_site_hse06_10hf_bader_spin_density
 _atom_site_hse06_10hf_ddec_charge
 _atom_site_hse06_10hf_ddec_spin_density
 _atom_site_hse06_10hf_ddec_sum_bond_order
 _atom_site_hse06_10hf_magmom
 _atom_site_hse06_bader_spin_density
 _atom_site_hse06_ddec_charge
 _atom_site_hse06_ddec_spin_density
 _atom_site_hse06_ddec_sum_bond_order
 _atom_site_hse06_magmom
 _atom_site_pbe_bader_spin_density
 _atom_site_pbe_cm5_charge
 _atom_site_pbe_ddec_charge
 _atom_site_pbe_ddec_spin_density
 _atom_site_pbe_ddec_sum_bond_order
 _atom_site_pbe_magmom
Cu  Cu0  1  0.94427770  0.93006377  0.40623908  1  0  0.176826  0  2.266063  0  0  0.118532  0  2.734927  0  0  0.136838  0  2.673422  0  0  0.13544  0.106553  0  2.778449  0
Cu  Cu1  1  0.05572937  0.06993823  0.59376000  1  0  0.17687  0  2.266053  0  0  0.11858  0  2.734911  0  0  0.13689  0  2.673408  0  0  0.135472  0.106605  0  2.778433  0
Cu  Cu2  1  0.47923119  0.03266719  0.36095874  1  0  0.214566  0  2.285551  0  0  0.16224  0  2.755736  0  0  0.176362  0  2.699735  0  0  0.138642  0.153361  0  2.795315  0
Cu  Cu3  1  0.52077996  0.96733312  0.63903983  1  0  0.214549  0  2.285617  0  0  0.162238  0  2.755781  0  0  0.176363  0  2.699785  0  0  0.138659  0.153358  0  2.795363  0
Cu  Cu4  1  0.98655398  0.18994728  0.20193419  1  0  0.332102  0  2.143922  0  0  0.229085  0  2.652557  0  0  0.231341  0  2.606637  0  0  0.345415  0.230384  0  2.682076  0
Cu  Cu5  1  0.01345349  0.81005055  0.79806286  1  0  0.332093  0  2.143944  0  0  0.229055  0  2.652535  0  0  0.231314  0  2.606612  0  0  0.345404  0.230331  0  2.682102  0
H  H6  1  0.05703284  0.38481931  0.40664451  1  0  0.069499  0  0.938269  0  0  0.079768  0  1.003309  0  0  0.08285  0  1.000049  0  0  0.106596  0.077424  0  1.00577  0
H  H7  1  0.94296355  0.61517599  0.59335541  1  0  0.069407  0  0.938109  0  0  0.079677  0  1.003178  0  0  0.082758  0  0.999915  0  0  0.106537  0.077332  0  1.005644  0
H  H8  1  0.38031878  0.57925508  0.47628703  1  0  0.096019  0  0.961201  0  0  0.10779  0  1.021484  0  0  0.110661  0  1.021251  0  0  0.099382  0.105631  0  1.021984  0
H  H9  1  0.61965966  0.42074359  0.52371444  1  0  0.096049  0  0.961147  0  0  0.107817  0  1.021431  0  0  0.110689  0  1.021193  0  0  0.099381  0.105656  0  1.02193  0
H  H10  1  0.69868337  0.65278470  0.37334661  1  0  0.096726  0  0.982969  0  0  0.105821  0  1.050329  0  0  0.108973  0  1.047595  0  0  0.08572  0.103383  0  1.05242  0
H  H11  1  0.30129099  0.34721565  0.62665602  1  0  0.096724  0  0.983025  0  0  0.105811  0  1.050407  0  0  0.108962  0  1.047674  0  0  0.085723  0.1034  0  1.052469  0
H  H12  1  0.85908958  0.62019123  0.21230549  1  0  0.096955  0  0.979  0  0  0.108217  0  1.042425  0  0  0.111137  0  1.041539  0  0  0.087216  0.105821  0  1.043642  0
H  H13  1  0.14089173  0.37980828  0.78769566  1  0  0.096949  0  0.978991  0  0  0.108206  0  1.042417  0  0  0.111128  0  1.041529  0  0  0.087243  0.105811  0  1.043628  0
H  H14  1  0.80462863  0.49896689  0.04388824  1  0  0.090131  0  0.964872  0  0  0.10311  0  1.025624  0  0  0.105893  0  1.024497  0  0  0.099273  0.101094  0  1.026544  0
H  H15  1  0.19537923  0.50103673  0.95611522  1  0  0.090096  0  0.964899  0  0  0.103086  0  1.025646  0  0  0.105857  0  1.024535  0  0  0.099269  0.101072  0  1.026563  0
H  H16  1  0.55066701  0.31727589  0.90952426  1  0  0.093277  0  0.962023  0  0  0.102374  0  1.028454  0  0  0.105435  0  1.026614  0  0  0.093975  0.100152  0  1.029809  0
H  H17  1  0.44935229  0.68272605  0.09047813  1  0  0.093319  0  0.962016  0  0  0.102395  0  1.028476  0  0  0.105454  0  1.026639  0  0  0.093992  0.100174  0  1.029832  0
H  H18  1  0.17520868  0.13386283  0.85762108  1  0  0.104871  0  0.974263  0  0  0.112942  0  1.039331  0  0  0.116079  0  1.038916  0  0  0.088234  0.110347  0  1.040311  0
H  H19  1  0.82480982  0.86613747  0.14237692  1  0  0.104848  0  0.974268  0  0  0.112928  0  1.039334  0  0  0.116067  0  1.038894  0  0  0.088241  0.110338  0  1.040307  0
H  H20  1  0.90289115  0.07867993  0.97622756  1  0  0.073237  0  0.955096  0  0  0.080588  0  1.024868  0  0  0.084259  0  1.02082  0  0  0.100986  0.07776  0  1.028012  0
H  H21  1  0.09711226  0.92131959  0.02376873  1  0  0.073297  0  0.955217  0  0  0.080631  0  1.02499  0  0  0.084301  0  1.020944  0  0  0.10101  0.077807  0  1.028137  0
C  C22  1  0.19215836  0.42038224  0.36335701  1  0  0.126696  0  3.708415  0  0  0.095737  0  3.963535  0  0  0.103562  0  3.978001  0  0  0.042003  0.090718  0  3.953937  0
C  C23  1  0.80782905  0.57961475  0.63664400  1  0  0.126816  0  3.70831  0  0  0.095826  0  3.963436  0  0  0.103652  0  3.977903  0  0  0.042055  0.090802  0  3.95383  0
C  C24  1  0.37550772  0.52866468  0.40204709  1  0  -0.132963  0  3.770673  0  0  -0.145461  0  4.024165  0  0  -0.153184  0  4.045573  0  0  -0.095395  -0.140777  0  4.010187  0
C  C25  1  0.62447234  0.47133233  0.59795385  1  0  -0.132931  0  3.770552  0  0  -0.145421  0  4.024039  0  0  -0.153142  0  4.04545  0  0  -0.095344  -0.140736  0  4.010065  0
C  C26  1  0.55034027  0.56968290  0.34523406  1  0  -0.048538  0  3.694921  0  0  -0.074606  0  3.941304  0  0  -0.069154  0  3.95724  0  0  -0.077397  -0.078114  0  3.930743  0
C  C27  1  0.44963614  0.43031663  0.65476640  1  0  -0.048649  0  3.695143  0  0  -0.074727  0  3.941553  0  0  -0.069279  0  3.957494  0  0  -0.077437  -0.078258  0  3.930972  0
C  C28  1  0.53342009  0.50250918  0.24911524  1  0  0.030738  0  3.787496  0  0  0.050654  0  4.013593  0  0  0.047033  0  4.037403  0  0  -0.004712  0.052768  0  3.997778  0
C  C29  1  0.46657552  0.49748949  0.75088387  1  0  0.030822  0  3.78741  0  0  0.05074  0  4.013524  0  0  0.047122  0  4.037332  0  0  -0.004747  0.052853  0  3.997714  0
C  C30  1  0.70416655  0.53810188  0.18499601  1  0  -0.097953  0  3.739543  0  0  -0.120294  0  3.991556  0  0  -0.123135  0  4.014151  0  0  -0.091059  -0.118379  0  3.976593  0
C  C31  1  0.29582823  0.46190010  0.81500739  1  0  -0.097903  0  3.739441  0  0  -0.120216  0  3.99143  0  0  -0.123057  0  4.014019  0  0  -0.091  -0.118298  0  3.976458  0
C  C32  1  0.67445602  0.47098405  0.09214318  1  0  -0.105754  0  3.754855  0  0  -0.12832  0  4.011231  0  0  -0.131192  0  4.033382  0  0  -0.08923  -0.126323  0  3.996351  0
C  C33  1  0.32555224  0.52901541  0.90785826  1  0  -0.105796  0  3.754955  0  0  -0.128393  0  4.011331  0  0  -0.131258  0  4.033489  0  0  -0.089289  -0.126394  0  3.996451  0
C  C34  1  0.47027588  0.36344379  0.05549448  1  0  0.026559  0  3.802773  0  0  0.043436  0  4.032125  0  0  0.04079  0  4.056562  0  0  -0.006075  0.045005  0  4.01585  0
C  C35  1  0.52972706  0.63655483  0.94450662  1  0  0.026588  0  3.802618  0  0  0.043482  0  4.031944  0  0  0.040836  0  4.056381  0  0  -0.006088  0.045044  0  4.015678  0
C  C36  1  0.42434901  0.29212054  0.95991255  1  0  -0.060402  0  3.695634  0  0  -0.083619  0  3.942163  0  0  -0.081271  0  3.959522  0  0  -0.075666  -0.085129  0  3.930587  0
C  C37  1  0.57566826  0.70788225  0.04008883  1  0  -0.060508  0  3.695701  0  0  -0.08371  0  3.942248  0  0  -0.081367  0  3.959615  0  0  -0.075731  -0.085218  0  3.930674  0
C  C38  1  0.21849279  0.19022533  0.93095023  1  0  -0.107999  0  3.739901  0  0  -0.121055  0  3.990506  0  0  -0.126102  0  4.01043  0  0  -0.090234  -0.118123  0  3.977733  0
C  C39  1  0.78152410  0.80977665  0.06904767  1  0  -0.107988  0  3.739983  0  0  -0.121055  0  3.99059  0  0  -0.126088  0  4.010506  0  0  -0.090269  -0.118122  0  3.97782  0
C  C40  1  0.06530291  0.15886112  0.99762146  1  0  0.141245  0  3.675173  0  0  0.110985  0  3.926957  0  0  0.119106  0  3.939396  0  0  0.046566  0.105591  0  3.919003  0
C  C41  1  0.93470705  0.84114171  0.00237665  1  0  0.141187  0  3.675226  0  0  0.110946  0  3.926992  0  0  0.119062  0  3.939429  0  0  0.046576  0.10555  0  3.919046  0
C  C42  1  0.30216251  0.32538752  0.11768034  1  0  0.125778  0  3.732282  0  0  0.119222  0  3.970559  0  0  0.123763  0  3.988542  0  0  0.107785  0.116061  0  3.958712  0
C  C43  1  0.69783885  0.67461282  0.88231811  1  0  0.125702  0  3.732235  0  0  0.11914  0  3.970517  0  0  0.123678  0  3.988501  0  0  0.107769  0.115988  0  3.958671  0
C  C44  1  0.33578807  0.39532392  0.21559446  1  0  0.133288  0  3.7201  0  0  0.123217  0  3.959492  0  0  0.12916  0  3.976718  0  0  0.10932  0.119249  0  3.948094  0
C  C45  1  0.66420424  0.60467306  0.78440597  1  0  0.133341  0  3.720186  0  0  0.123221  0  3.9596  0  0  0.129161  0  3.976829  0  0  0.109371  0.119248  0  3.948197  0
I  I46  1  0.04264127  0.14851115  0.46003669  1  0  -0.228114  0  2.13464  0  0  -0.174219  0  2.631627  0  0  -0.188885  0  2.581702  0  0  -0.128817  -0.164455  0  2.668859  0
I  I47  1  0.95736541  0.85149002  0.53996147  1  0  -0.22813  0  2.134652  0  0  -0.174261  0  2.631678  0  0  -0.188931  0  2.581757  0  0  -0.128832  -0.164493  0  2.668908  0
I  I48  1  0.37988878  0.81783221  0.30040222  1  0  -0.290891  0  1.836984  0  0  -0.236978  0  2.286561  0  0  -0.255358  0  2.247019  0  0  -0.15637  -0.223455  0  2.316196  0
I  I49  1  0.62011256  0.18216811  0.69959751  1  0  -0.290909  0  1.837012  0  0  -0.237  0  2.286581  0  0  -0.255382  0  2.247045  0  0  -0.156393  -0.223481  0  2.316219  0
I  I50  1  0.45669341  0.07787507  0.21125936  1  0  -0.364335  0  2.058266  0  0  -0.30302  0  2.606957  0  0  -0.322527  0  2.557677  0  0  -0.169187  -0.289996  0  2.641771  0
I  I51  1  0.54330998  0.92212443  0.78873884  1  0  -0.364296  0  2.058271  0  0  -0.302973  0  2.60695  0  0  -0.322474  0  2.557654  0  0  -0.169178  -0.289935  0  2.641775  0
N  N52  1  0.10502815  0.22389180  0.08859071  1  0  -0.297289  0  3.321525  0  0  -0.234112  0  3.610524  0  0  -0.242711  0  3.616529  0  0  -0.351268  -0.228986  0  3.606351  0
N  N53  1  0.89497607  0.77610937  0.91140742  1  0  -0.297234  0  3.321467  0  0  -0.234038  0  3.610425  0  0  -0.242628  0  3.616424  0  0  -0.35127  -0.228922  0  3.606262  0
N  N54  1  0.17174256  0.35449765  0.27270685  1  0  -0.294272  0  3.32615  0  0  -0.232023  0  3.622513  0  0  -0.239719  0  3.627224  0  0  -0.351141  -0.227564  0  3.618996  0
N  N55  1  0.82825222  0.64549934  0.72729234  1  0  -0.294315  0  3.326307  0  0  -0.231994  0  3.62261  0  0  -0.239692  0  3.62733  0  0  -0.351124  -0.227516  0  3.619081  0
