# generated using pymatgen
data_Cd2H10C18N8O7
_symmetry_space_group_name_H-M   'P 1'
_cell_length_a   8.05466474
_cell_length_b   9.23942070
_cell_length_c   15.17534472
_cell_angle_alpha   101.07851345
_cell_angle_beta   95.78047173
_cell_angle_gamma   99.68694258
_symmetry_Int_Tables_number   1
_chemical_formula_structural   Cd2H10C18N8O7
_chemical_formula_sum   'Cd4 H20 C36 N16 O14'
_cell_volume   1082.12495993
_cell_formula_units_Z   2
loop_
 _symmetry_equiv_pos_site_id
 _symmetry_equiv_pos_as_xyz
  1  'x, y, z'
loop_
 _atom_site_type_symbol
 _atom_site_label
 _atom_site_symmetry_multiplicity
 _atom_site_fract_x
 _atom_site_fract_y
 _atom_site_fract_z
 _atom_site_occupancy
 _atom_site_hle17_bader_spin_density
 _atom_site_hle17_ddec_charge
 _atom_site_hle17_ddec_spin_density
 _atom_site_hle17_ddec_sum_bond_order
 _atom_site_hle17_magmom
 _atom_site_hse06_10hf_bader_spin_density
 _atom_site_hse06_10hf_ddec_charge
 _atom_site_hse06_10hf_ddec_spin_density
 _atom_site_hse06_10hf_ddec_sum_bond_order
 _atom_site_hse06_10hf_magmom
 _atom_site_hse06_bader_spin_density
 _atom_site_hse06_ddec_charge
 _atom_site_hse06_ddec_spin_density
 _atom_site_hse06_ddec_sum_bond_order
 _atom_site_hse06_magmom
 _atom_site_pbe_bader_spin_density
 _atom_site_pbe_cm5_charge
 _atom_site_pbe_ddec_charge
 _atom_site_pbe_ddec_spin_density
 _atom_site_pbe_ddec_sum_bond_order
 _atom_site_pbe_magmom
Cd  Cd0  1  0.31634759  0.34536627  0.93232589  1  0  1.12305  0  1.687852  0  0  0.933963  0  2.131897  0  0  0.993491  0  2.080149  0  0  0.774268  0.893954  0  2.165248  0
Cd  Cd1  1  0.68364774  0.65463259  0.06767732  1  0  1.123014  0  1.687945  0  0  0.933933  0  2.131994  0  0  0.993459  0  2.080247  0  0  0.774251  0.893918  0  2.165344  0
Cd  Cd2  1  0.47392501  0.19272213  0.62142699  1  0  1.057322  0  1.738804  0  0  0.849741  0  2.185558  0  0  0.907072  0  2.136807  0  0  0.786322  0.808918  0  2.218988  0
Cd  Cd3  1  0.52607641  0.80727550  0.37856985  1  0  1.057381  0  1.738762  0  0  0.849806  0  2.185483  0  0  0.90714  0  2.136732  0  0  0.786333  0.808988  0  2.218914  0
H  H4  1  0.70511857  0.40844648  0.55202934  1  0  0.376782  0  0.949848  0  0  0.332904  0  1.033818  0  0  0.344838  0  1.017074  0  0  0.273246  0.32462  0  1.045365  0
H  H5  1  0.29488650  0.59156246  0.44797490  1  0  0.376948  0  0.949634  0  0  0.33306  0  1.033609  0  0  0.344997  0  1.016861  0  0  0.273331  0.324775  0  1.045158  0
H  H6  1  0.52375026  0.38970609  0.49350691  1  0  0.417231  0  0.834197  0  0  0.397152  0  0.893828  0  0  0.406361  0  0.883388  0  0  0.308574  0.390587  0  0.901254  0
H  H7  1  0.47624830  0.61032990  0.50650192  1  0  0.417319  0  0.833973  0  0  0.397213  0  0.893669  0  0  0.406423  0  0.883234  0  0  0.308574  0.390646  0  0.901102  0
H  H8  1  0.39254901  0.78974638  0.79084981  1  0  0.132594  0  0.921551  0  0  0.141687  0  0.978602  0  0  0.146506  0  0.974962  0  0  0.119614  0.137926  0  0.981753  0
H  H9  1  0.60745835  0.21026701  0.20915242  1  0  0.132661  0  0.921355  0  0  0.141744  0  0.978432  0  0  0.146562  0  0.974794  0  0  0.11965  0.137982  0  0.981586  0
H  H10  1  0.24694144  0.85288808  0.06062378  1  0  0.122489  0  0.939914  0  0  0.128714  0  1.005473  0  0  0.13248  0  1.003778  0  0  0.111742  0.125843  0  1.006998  0
H  H11  1  0.75304822  0.14710738  0.93937476  1  0  0.122487  0  0.939869  0  0  0.128714  0  1.005429  0  0  0.132479  0  1.003734  0  0  0.11171  0.125846  0  1.006955  0
H  H12  1  0.05385934  0.10628250  0.79176542  1  0  0.110531  0  0.938321  0  0  0.114496  0  1.003789  0  0  0.117593  0  1.001094  0  0  0.125434  0.112077  0  1.006098  0
H  H13  1  0.94614501  0.89371742  0.20823580  1  0  0.110514  0  0.938284  0  0  0.114477  0  1.003772  0  0  0.117572  0  1.001079  0  0  0.125437  0.112058  0  1.006081  0
H  H14  1  0.95441036  0.52035857  0.91825841  1  0  0.101531  0  0.932974  0  0  0.108119  0  0.996697  0  0  0.110892  0  0.994848  0  0  0.121976  0.105888  0  0.998551  0
H  H15  1  0.04557876  0.47963895  0.08172781  1  0  0.101318  0  0.933032  0  0  0.108014  0  0.996671  0  0  0.110789  0  0.994818  0  0  0.121921  0.105781  0  0.998529  0
H  H16  1  0.68795542  0.47617119  0.81051937  1  0  0.117534  0  0.912261  0  0  0.125753  0  0.968767  0  0  0.129148  0  0.966025  0  0  0.13075  0.122949  0  0.971443  0
H  H17  1  0.31203537  0.52381739  0.18946991  1  0  0.11758  0  0.912117  0  0  0.125775  0  0.968618  0  0  0.12918  0  0.965876  0  0  0.130738  0.122968  0  0.9713  0
H  H18  1  0.13684564  0.78083366  0.55699109  1  0  0.114226  0  0.908491  0  0  0.121008  0  0.971246  0  0  0.124912  0  0.968132  0  0  0.129892  0.118171  0  0.973598  0
H  H19  1  0.86314820  0.21917533  0.44301315  1  0  0.114205  0  0.908481  0  0  0.121019  0  0.971209  0  0  0.12491  0  0.968111  0  0  0.1299  0.118182  0  0.973562  0
H  H20  1  0.01638561  0.44330680  0.32220232  1  0  0.101838  0  0.90869  0  0  0.114013  0  0.961384  0  0  0.116715  0  0.960328  0  0  0.130892  0.112111  0  0.96212  0
H  H21  1  0.98363552  0.55669524  0.67779617  1  0  0.101859  0  0.908672  0  0  0.114027  0  0.961372  0  0  0.11673  0  0.96032  0  0  0.130915  0.112128  0  0.962106  0
H  H22  1  0.73890101  0.52712368  0.28563826  1  0  0.118231  0  0.95429  0  0  0.124938  0  1.015221  0  0  0.128645  0  1.012134  0  0  0.126434  0.122089  0  1.017822  0
H  H23  1  0.26111273  0.47287268  0.71435323  1  0  0.118239  0  0.954352  0  0  0.124947  0  1.015255  0  0  0.128653  0  1.012167  0  0  0.126445  0.122102  0  1.017858  0
C  C24  1  0.33992759  0.00593600  0.84966519  1  0  0.118227  0  3.743408  0  0  0.124058  0  3.983961  0  0  0.124636  0  4.002443  0  0  0.119199  0.123212  0  3.971447  0
C  C25  1  0.66007718  0.99407186  0.15034221  1  0  0.118286  0  3.743226  0  0  0.124116  0  3.983813  0  0  0.124696  0  4.002292  0  0  0.119187  0.123282  0  3.971277  0
C  C26  1  0.35447729  0.85798066  0.84926486  1  0  -0.088953  0  3.630599  0  0  -0.125124  0  3.875875  0  0  -0.125384  0  3.891446  0  0  -0.059794  -0.125193  0  3.866071  0
C  C27  1  0.64554075  0.14203047  0.15073973  1  0  -0.088899  0  3.630207  0  0  -0.1251  0  3.875505  0  0  -0.125361  0  3.891075  0  0  -0.059756  -0.125175  0  3.865701  0
C  C28  1  0.32501525  0.80263132  0.92701086  1  0  -0.00063  0  3.706834  0  0  0.019562  0  3.948096  0  0  0.015678  0  3.966776  0  0  0.007838  0.022024  0  3.935402  0
C  C29  1  0.67500730  0.19737753  0.07299242  1  0  -0.000782  0  3.706983  0  0  0.019515  0  3.948106  0  0  0.01563  0  3.966793  0  0  0.007791  0.021979  0  3.935414  0
C  C30  1  0.27407573  0.89362200  0.00003158  1  0  -0.080033  0  3.617857  0  0  -0.116657  0  3.86923  0  0  -0.117641  0  3.886534  0  0  -0.05934  -0.116291  0  3.858506  0
C  C31  1  0.72592562  0.10637569  0.99996988  1  0  -0.080105  0  3.617745  0  0  -0.116739  0  3.869074  0  0  -0.117723  0  3.886379  0  0  -0.059359  -0.116378  0  3.85836  0
C  C32  1  0.25980741  0.04037487  0.99484542  1  0  0.120258  0  3.714857  0  0  0.123887  0  3.957388  0  0  0.124977  0  3.977389  0  0  0.12045  0.122296  0  3.944342  0
C  C33  1  0.74018292  0.95961840  0.00515753  1  0  0.120235  0  3.7145  0  0  0.123854  0  3.957039  0  0  0.124946  0  3.977039  0  0  0.1204  0.122256  0  3.944018  0
C  C34  1  0.37421478  0.07819209  0.77083808  1  0  0.599245  0  3.93859  0  0  0.549328  0  4.22966  0  0  0.582924  0  4.224357  0  0  0.194997  0.526503  0  4.232336  0
C  C35  1  0.62577927  0.92181243  0.22916766  1  0  0.599275  0  3.93849  0  0  0.549363  0  4.229558  0  0  0.582961  0  4.224251  0  0  0.195027  0.526534  0  4.232238  0
C  C36  1  0.34519457  0.64577607  0.93045341  1  0  0.630613  0  3.914472  0  0  0.57946  0  4.204457  0  0  0.613374  0  4.198928  0  0  0.201984  0.557055  0  4.206055  0
C  C37  1  0.65481661  0.35422599  0.06954252  1  0  0.630697  0  3.914468  0  0  0.579495  0  4.20449  0  0  0.613408  0  4.198959  0  0  0.201983  0.557088  0  4.206088  0
C  C38  1  0.20580496  0.14856518  0.07164713  1  0  0.598167  0  3.989852  0  0  0.551716  0  4.291561  0  0  0.584235  0  4.285604  0  0  0.183649  0.529557  0  4.29465  0
C  C39  1  0.79418483  0.85143151  0.92835880  1  0  0.597991  0  3.990138  0  0  0.551564  0  4.291797  0  0  0.584083  0  4.285851  0  0  0.183677  0.529408  0  4.294884  0
C  C40  1  0.81367767  0.06030010  0.64494212  1  0  0.256673  0  3.82289  0  0  0.234292  0  4.092251  0  0  0.242327  0  4.11191  0  0  0.205178  0.228904  0  4.078855  0
C  C41  1  0.18631772  0.93969308  0.35505651  1  0  0.256669  0  3.822691  0  0  0.234284  0  4.092063  0  0  0.24232  0  4.111722  0  0  0.20522  0.228897  0  4.078667  0
C  C42  1  0.83531385  0.88408283  0.54021148  1  0  0.23859  0  3.853753  0  0  0.214146  0  4.125969  0  0  0.22218  0  4.145884  0  0  0.198427  0.209403  0  4.111923  0
C  C43  1  0.16468254  0.11590922  0.45978708  1  0  0.238587  0  3.853754  0  0  0.214135  0  4.126062  0  0  0.222177  0  4.145989  0  0  0.198393  0.209383  0  4.112032  0
C  C44  1  0.84169661  0.17846218  0.72627388  1  0  0.130613  0  3.760784  0  0  0.130935  0  4.001744  0  0  0.135058  0  4.020697  0  0  0.130906  0.127961  0  3.989238  0
C  C45  1  0.15829885  0.82153095  0.27372079  1  0  0.130603  0  3.7607  0  0  0.130949  0  4.001645  0  0  0.135073  0  4.020595  0  0  0.130866  0.127973  0  3.989141  0
C  C46  1  0.97840133  0.19348138  0.79405398  1  0  0.088044  0  3.627211  0  0  0.052393  0  3.881594  0  0  0.056073  0  3.896608  0  0  0.066234  0.04942  0  3.87235  0
C  C47  1  0.02159432  0.80651292  0.20594413  1  0  0.088162  0  3.627206  0  0  0.052454  0  3.88165  0  0  0.056136  0  3.896661  0  0  0.066297  0.049479  0  3.872407  0
C  C48  1  0.92013753  0.41828259  0.86542255  1  0  0.090632  0  3.647325  0  0  0.058291  0  3.911266  0  0  0.061844  0  3.927647  0  0  0.058058  0.05558  0  3.900978  0
C  C49  1  0.07984661  0.58170504  0.13457611  1  0  0.090801  0  3.647133  0  0  0.05832  0  3.911109  0  0  0.061874  0  3.927491  0  0  0.058109  0.055607  0  3.900822  0
C  C50  1  0.77325831  0.39604522  0.80317708  1  0  0.108688  0  3.642668  0  0  0.078247  0  3.903442  0  0  0.082304  0  3.918139  0  0  0.064049  0.075274  0  3.894138  0
C  C51  1  0.22673012  0.60394459  0.19681945  1  0  0.108606  0  3.642496  0  0  0.078233  0  3.903233  0  0  0.082278  0  3.917942  0  0  0.064038  0.07526  0  3.893929  0
C  C52  1  0.88848656  0.76306329  0.48024936  1  0  0.138399  0  3.756411  0  0  0.139028  0  4.000119  0  0  0.144054  0  4.018398  0  0  0.133385  0.134743  0  3.98822  0
C  C53  1  0.11151761  0.23694107  0.51974838  1  0  0.138503  0  3.756484  0  0  0.139023  0  4.000358  0  0  0.144013  0  4.018685  0  0  0.133462  0.134738  0  3.988459  0
C  C54  1  0.04609521  0.72063012  0.49762087  1  0  0.064869  0  3.627145  0  0  0.023398  0  3.890245  0  0  0.025747  0  3.904582  0  0  0.064229  0.022224  0  3.880844  0
C  C55  1  0.95391172  0.27938096  0.50237647  1  0  0.064798  0  3.627208  0  0  0.023354  0  3.890359  0  0  0.025723  0  3.904712  0  0  0.064157  0.022182  0  3.880959  0
C  C56  1  0.97927337  0.53581293  0.36730765  1  0  0.063854  0  3.679508  0  0  0.027674  0  3.949253  0  0  0.029579  0  3.967132  0  0  0.050709  0.026501  0  3.937127  0
C  C57  1  0.02073550  0.46418469  0.63269161  1  0  0.063814  0  3.679494  0  0  0.027646  0  3.949242  0  0  0.029547  0  3.967124  0  0  0.050635  0.026473  0  3.937119  0
C  C58  1  0.82489015  0.58044057  0.34798340  1  0  0.090752  0  3.66085  0  0  0.062676  0  3.915964  0  0  0.065364  0  3.933536  0  0  0.059597  0.060718  0  3.904101  0
C  C59  1  0.17511619  0.41955147  0.65201707  1  0  0.090695  0  3.660971  0  0  0.062649  0  3.916038  0  0  0.065339  0  3.933604  0  0  0.059601  0.060685  0  3.904179  0
N  N60  1  0.29681661  0.09317984  0.92164151  1  0  -0.355352  0  3.342334  0  0  -0.290722  0  3.590374  0  0  -0.307956  0  3.611763  0  0  -0.325841  -0.277523  0  3.573955  0
N  N61  1  0.70317695  0.90682243  0.07836329  1  0  -0.355372  0  3.342287  0  0  -0.290785  0  3.590404  0  0  -0.308024  0  3.611796  0  0  -0.325856  -0.277589  0  3.573984  0
N  N62  1  0.67844275  0.04508830  0.58119595  1  0  -0.274811  0  3.154934  0  0  -0.224549  0  3.433126  0  0  -0.240373  0  3.453929  0  0  -0.233905  -0.213364  0  3.418702  0
N  N63  1  0.32155307  0.95490157  0.41880629  1  0  -0.274963  0  3.154731  0  0  -0.2247  0  3.432929  0  0  -0.240526  0  3.453735  0  0  -0.233996  -0.213514  0  3.418506  0
N  N64  1  0.69131761  0.93132576  0.51457101  1  0  -0.285272  0  3.181309  0  0  -0.228769  0  3.460756  0  0  -0.245541  0  3.481558  0  0  -0.238666  -0.217779  0  3.446427  0
N  N65  1  0.30868051  0.06866856  0.48542922  1  0  -0.285127  0  3.181149  0  0  -0.22861  0  3.460596  0  0  -0.245382  0  3.481401  0  0  -0.238565  -0.217616  0  3.446268  0
N  N66  1  0.91709388  0.96227759  0.62183758  1  0  -0.422547  0  2.88457  0  0  -0.400616  0  3.148559  0  0  -0.413992  0  3.161748  0  0  -0.331394  -0.391056  0  3.139022  0
N  N67  1  0.08289525  0.03771002  0.37816138  1  0  -0.422532  0  2.884637  0  0  -0.400593  0  3.148637  0  0  -0.413966  0  3.161824  0  0  -0.331392  -0.391029  0  3.139102  0
N  N68  1  0.73635764  0.27842590  0.73273692  1  0  -0.313073  0  3.181289  0  0  -0.250339  0  3.435481  0  0  -0.265202  0  3.453709  0  0  -0.298948  -0.240002  0  3.422923  0
N  N69  1  0.26363527  0.72156166  0.26726028  1  0  -0.313107  0  3.181236  0  0  -0.250379  0  3.435387  0  0  -0.265242  0  3.453618  0  0  -0.298979  -0.240044  0  3.422831  0
N  N70  1  0.02038416  0.31535305  0.86140662  1  0  -0.287098  0  3.214947  0  0  -0.22296  0  3.485833  0  0  -0.237851  0  3.503922  0  0  -0.304738  -0.21307  0  3.473972  0
N  N71  1  0.97961731  0.68465016  0.13858820  1  0  -0.287117  0  3.214796  0  0  -0.222935  0  3.48572  0  0  -0.237824  0  3.503805  0  0  -0.304772  -0.213047  0  3.473859  0
N  N72  1  0.78079833  0.69383280  0.40399244  1  0  -0.295934  0  3.165628  0  0  -0.232505  0  3.418052  0  0  -0.246863  0  3.435152  0  0  -0.293654  -0.222229  0  3.4064  0
N  N73  1  0.21920508  0.30616258  0.59600493  1  0  -0.295987  0  3.165861  0  0  -0.232526  0  3.418308  0  0  -0.246871  0  3.435419  0  0  -0.293684  -0.222248  0  3.406654  0
N  N74  1  0.08986210  0.60802441  0.44114602  1  0  -0.262933  0  3.208939  0  0  -0.204562  0  3.465662  0  0  -0.214833  0  3.482734  0  0  -0.289742  -0.197605  0  3.454397  0
N  N75  1  0.91014552  0.39197884  0.55885378  1  0  -0.262743  0  3.208981  0  0  -0.204423  0  3.465742  0  0  -0.214693  0  3.482813  0  0  -0.289647  -0.197467  0  3.454477  0
O  O76  1  0.57957619  0.40702362  0.55578397  1  0  -0.814662  0  1.867169  0  0  -0.754841  0  2.061358  0  0  -0.776254  0  2.031268  0  0  -0.586668  -0.739484  0  2.081893  0
O  O77  1  0.42042783  0.59298088  0.44422301  1  0  -0.814857  0  1.866792  0  0  -0.755023  0  2.061005  0  0  -0.776458  0  2.03092  0  0  -0.586716  -0.739669  0  2.081552  0
O  O78  1  0.37866065  0.21967339  0.78103220  1  0  -0.643761  0  2.00205  0  0  -0.579187  0  2.254097  0  0  -0.610195  0  2.245575  0  0  -0.324608  -0.558081  0  2.259575  0
O  O79  1  0.62133365  0.78033225  0.21897368  1  0  -0.643678  0  2.002127  0  0  -0.579061  0  2.254087  0  0  -0.610068  0  2.245563  0  0  -0.32451  -0.557957  0  2.259567  0
O  O80  1  0.39787227  0.99513685  0.69836168  1  0  -0.592486  0  1.946178  0  0  -0.538977  0  2.177238  0  0  -0.56542  0  2.168083  0  0  -0.324942  -0.520126  0  2.182662  0
O  O81  1  0.60212459  0.00487436  0.30164167  1  0  -0.592563  0  1.946101  0  0  -0.539056  0  2.177144  0  0  -0.565497  0  2.167982  0  0  -0.325009  -0.520205  0  2.18257  0
O  O82  1  0.32933048  0.55030482  0.85661324  1  0  -0.599928  0  1.977607  0  0  -0.540207  0  2.211584  0  0  -0.568325  0  2.203558  0  0  -0.308434  -0.520804  0  2.215847  0
O  O83  1  0.67066678  0.44970175  0.14337974  1  0  -0.599956  0  1.977677  0  0  -0.540238  0  2.211734  0  0  -0.568358  0  2.203705  0  0  -0.308426  -0.520821  0  2.215976  0
O  O84  1  0.37278928  0.61212038  0.00832458  1  0  -0.660923  0  2.000209  0  0  -0.589253  0  2.255279  0  0  -0.619592  0  2.244833  0  0  -0.328679  -0.568052  0  2.260814  0
O  O85  1  0.62722367  0.38787265  0.99166914  1  0  -0.660925  0  2.000105  0  0  -0.589264  0  2.25518  0  0  -0.619597  0  2.24473  0  0  -0.328689  -0.568081  0  2.260754  0
O  O86  1  0.14387428  0.09283814  0.13253368  1  0  -0.58878  0  1.864281  0  0  -0.557192  0  2.074364  0  0  -0.578323  0  2.067651  0  0  -0.342139  -0.54137  0  2.077974  0
O  O87  1  0.85610289  0.90714614  0.86746420  1  0  -0.58864  0  1.864384  0  0  -0.557057  0  2.074468  0  0  -0.578188  0  2.067759  0  0  -0.34206  -0.541233  0  2.078077  0
O  O88  1  0.22959070  0.28772173  0.06607335  1  0  -0.663881  0  1.98412  0  0  -0.605185  0  2.235128  0  0  -0.635324  0  2.224692  0  0  -0.346561  -0.584529  0  2.241868  0
O  O89  1  0.77042247  0.71227941  0.93393775  1  0  -0.663814  0  1.984225  0  0  -0.60513  0  2.235225  0  0  -0.635255  0  2.224759  0  0  -0.346612  -0.584472  0  2.241961  0
