# generated using pymatgen
data_ZnH10C11N4O7
_symmetry_space_group_name_H-M   'P 1'
_cell_length_a   7.46629849
_cell_length_b   10.00611649
_cell_length_c   11.10818045
_cell_angle_alpha   84.37876473
_cell_angle_beta   70.32685379
_cell_angle_gamma   71.72181933
_symmetry_Int_Tables_number   1
_chemical_formula_structural   ZnH10C11N4O7
_chemical_formula_sum   'Zn2 H20 C22 N8 O14'
_cell_volume   741.98155530
_cell_formula_units_Z   2
loop_
 _symmetry_equiv_pos_site_id
 _symmetry_equiv_pos_as_xyz
  1  'x, y, z'
loop_
 _atom_site_type_symbol
 _atom_site_label
 _atom_site_symmetry_multiplicity
 _atom_site_fract_x
 _atom_site_fract_y
 _atom_site_fract_z
 _atom_site_occupancy
 _atom_site_hle17_bader_spin_density
 _atom_site_hle17_ddec_charge
 _atom_site_hle17_ddec_spin_density
 _atom_site_hle17_ddec_sum_bond_order
 _atom_site_hle17_magmom
 _atom_site_hse06_10hf_bader_spin_density
 _atom_site_hse06_10hf_ddec_charge
 _atom_site_hse06_10hf_ddec_spin_density
 _atom_site_hse06_10hf_ddec_sum_bond_order
 _atom_site_hse06_10hf_magmom
 _atom_site_hse06_bader_spin_density
 _atom_site_hse06_ddec_charge
 _atom_site_hse06_ddec_spin_density
 _atom_site_hse06_ddec_sum_bond_order
 _atom_site_hse06_magmom
 _atom_site_pbe_bader_spin_density
 _atom_site_pbe_cm5_charge
 _atom_site_pbe_ddec_charge
 _atom_site_pbe_ddec_spin_density
 _atom_site_pbe_ddec_sum_bond_order
 _atom_site_pbe_magmom
Zn  Zn0  1  0.74378274  0.99103148  0.84595589  1  0  1.114418  0  1.772013  0  0  0.939681  0  2.246785  0  0  0.986354  0  2.187104  0  0  0.695471  0.906723  0  2.288376  0
Zn  Zn1  1  0.25621647  0.00897130  0.15404381  1  0  1.114436  0  1.77198  0  0  0.939694  0  2.246745  0  0  0.986365  0  2.187065  0  0  0.69548  0.906733  0  2.28833  0
H  H2  1  0.24708936  0.50132200  0.42114685  1  0  0.409218  0  0.78184  0  0  0.395893  0  0.829349  0  0  0.405249  0  0.820116  0  0  0.353719  0.3894  0  0.835787  0
H  H3  1  0.75291364  0.49867873  0.57885128  1  0  0.409264  0  0.781788  0  0  0.395945  0  0.829281  0  0  0.405301  0  0.820047  0  0  0.353735  0.389452  0  0.835727  0
H  H4  1  0.92327683  0.14956760  0.68616768  1  0  0.428064  0  0.856192  0  0  0.399303  0  0.922285  0  0  0.408198  0  0.90932  0  0  0.301169  0.393008  0  0.931471  0
H  H5  1  0.07673085  0.85043210  0.31383130  1  0  0.428052  0  0.856168  0  0  0.399305  0  0.922255  0  0  0.408199  0  0.909292  0  0  0.301178  0.393014  0  0.931434  0
H  H6  1  0.09832205  0.00622944  0.68741163  1  0  0.397215  0  0.922941  0  0  0.353539  0  1.006954  0  0  0.364801  0  0.991058  0  0  0.285704  0.345632  0  1.018089  0
H  H7  1  0.90168091  0.99376808  0.31258946  1  0  0.397187  0  0.922989  0  0  0.353505  0  1.007005  0  0  0.364768  0  0.991108  0  0  0.28569  0.345593  0  1.018149  0
H  H8  1  0.95123998  0.78110263  0.64102527  1  0  0.361176  0  0.913854  0  0  0.342112  0  0.977286  0  0  0.351024  0  0.968978  0  0  0.299216  0.335776  0  0.983218  0
H  H9  1  0.04876680  0.21889604  0.35897129  1  0  0.361161  0  0.91387  0  0  0.342104  0  0.977289  0  0  0.351016  0  0.968982  0  0  0.299201  0.335765  0  0.983231  0
H  H10  1  0.90953019  0.74520856  0.50083257  1  0  0.341925  0  0.941212  0  0  0.320607  0  1.010041  0  0  0.329168  0  1.001859  0  0  0.29755  0.31461  0  1.015678  0
H  H11  1  0.09047610  0.25478797  0.49916516  1  0  0.341991  0  0.941127  0  0  0.320678  0  1.009925  0  0  0.32924  0  1.001752  0  0  0.297593  0.314684  0  1.015552  0
H  H12  1  0.51494333  0.83598922  0.51737857  1  0  0.325631  0  0.829874  0  0  0.317588  0  0.870027  0  0  0.323527  0  0.866721  0  0  0.360953  0.313091  0  0.872928  0
H  H13  1  0.48506110  0.16401470  0.48261810  1  0  0.325574  0  0.829879  0  0  0.317567  0  0.869983  0  0  0.323506  0  0.866676  0  0  0.36095  0.313068  0  0.872887  0
H  H14  1  0.29721861  0.49160111  0.78382711  1  0  0.111183  0  0.939433  0  0  0.114054  0  1.00937  0  0  0.119689  0  1.002962  0  0  0.105221  0.110071  0  1.013745  0
H  H15  1  0.70277685  0.50840057  0.21617260  1  0  0.11119  0  0.939431  0  0  0.114057  0  1.00937  0  0  0.119692  0  1.002961  0  0  0.105225  0.110077  0  1.013749  0
H  H16  1  0.99334316  0.74277167  0.12689784  1  0  0.10764  0  0.946707  0  0  0.114275  0  1.014112  0  0  0.118338  0  1.01006  0  0  0.110477  0.111386  0  1.016869  0
H  H17  1  0.00664849  0.25722571  0.87310574  1  0  0.107627  0  0.946704  0  0  0.114317  0  1.014052  0  0  0.118384  0  1.009992  0  0  0.11047  0.111426  0  1.01681  0
H  H18  1  0.40029541  0.32744616  0.13422942  1  0  0.115666  0  0.943044  0  0  0.122128  0  1.009199  0  0  0.125259  0  1.007302  0  0  0.110783  0.119758  0  1.010778  0
H  H19  1  0.59970429  0.67255557  0.86576935  1  0  0.115648  0  0.94315  0  0  0.122126  0  1.009275  0  0  0.125268  0  1.007367  0  0  0.1108  0.119756  0  1.010856  0
H  H20  1  0.28404205  0.03956602  0.86334933  1  0  0.10893  0  0.936789  0  0  0.119227  0  0.997626  0  0  0.121673  0  0.994111  0  0  0.140963  0.117314  0  1.000286  0
H  H21  1  0.71596891  0.96042946  0.13665106  1  0  0.108896  0  0.936817  0  0  0.11919  0  0.997657  0  0  0.121637  0  0.994142  0  0  0.140944  0.117277  0  1.000313  0
C  C22  1  0.50335834  0.26281951  0.88145981  1  0  0.632544  0  3.934774  0  0  0.585968  0  4.225557  0  0  0.618996  0  4.22165  0  0  0.195618  0.563465  0  4.227617  0
C  C23  1  0.49664186  0.73718437  0.11853689  1  0  0.632481  0  3.934911  0  0  0.585928  0  4.225686  0  0  0.618956  0  4.221783  0  0  0.19566  0.563424  0  4.227745  0
C  C24  1  0.36097165  0.39512269  0.95273532  1  0  -0.075404  0  3.742281  0  0  -0.046844  0  3.976117  0  0  -0.059098  0  4.001461  0  0  -0.015883  -0.039228  0  3.959411  0
C  C25  1  0.63902756  0.60488008  0.04726529  1  0  -0.075345  0  3.742322  0  0  -0.046836  0  3.976221  0  0  -0.059093  0  4.001573  0  0  -0.015844  -0.039216  0  3.959512  0
C  C26  1  0.26686450  0.50462655  0.88560579  1  0  -0.024249  0  3.653054  0  0  -0.064108  0  3.903186  0  0  -0.058503  0  3.919734  0  0  -0.059267  -0.06723  0  3.891592  0
C  C27  1  0.73313047  0.49537618  0.11439484  1  0  -0.024237  0  3.653054  0  0  -0.064089  0  3.903196  0  0  -0.058484  0  3.919747  0  0  -0.059282  -0.067222  0  3.891614  0
C  C28  1  0.13401499  0.62986803  0.94732599  1  0  -0.07341  0  3.739895  0  0  -0.04539  0  3.97423  0  0  -0.05752  0  3.999553  0  0  -0.014434  -0.037815  0  3.957266  0
C  C29  1  0.86598234  0.37013262  0.05267429  1  0  -0.07349  0  3.739995  0  0  -0.045439  0  3.974323  0  0  -0.057571  0  3.999646  0  0  -0.014425  -0.037865  0  3.957358  0
C  C30  1  0.02946171  0.74271397  0.87332710  1  0  0.651412  0  3.914056  0  0  0.600033  0  4.209952  0  0  0.633781  0  4.205245  0  0  0.20748  0.577185  0  4.212427  0
C  C31  1  0.97053135  0.25728660  0.12667592  1  0  0.651407  0  3.914052  0  0  0.600004  0  4.209975  0  0  0.633752  0  4.205267  0  0  0.207456  0.577163  0  4.212446  0
C  C32  1  0.09690575  0.64612243  0.07760860  1  0  -0.027409  0  3.658503  0  0  -0.067381  0  3.908362  0  0  -0.061462  0  3.925901  0  0  -0.062053  -0.070658  0  3.896129  0
C  C33  1  0.90308451  0.35387813  0.92239233  1  0  -0.027342  0  3.658587  0  0  -0.06737  0  3.90842  0  0  -0.061453  0  3.925961  0  0  -0.062034  -0.070645  0  3.89618  0
C  C34  1  0.19405535  0.53844256  0.14494662  1  0  -0.102128  0  3.782421  0  0  -0.077662  0  4.024316  0  0  -0.091709  0  4.050531  0  0  -0.019837  -0.068731  0  4.00679  0
C  C35  1  0.80593630  0.46155800  0.85505581  1  0  -0.102239  0  3.782494  0  0  -0.077776  0  4.024378  0  0  -0.091822  0  4.0506  0  0  -0.01988  -0.068844  0  4.006843  0
C  C36  1  0.15590135  0.56415792  0.28066770  1  0  0.673851  0  3.791895  0  0  0.62094  0  4.095448  0  0  0.655534  0  4.085782  0  0  0.243485  0.597538  0  4.101576  0
C  C37  1  0.84409363  0.43584164  0.71933228  1  0  0.673902  0  3.792009  0  0  0.621048  0  4.095466  0  0  0.655644  0  4.085796  0  0  0.24349  0.597659  0  4.10158  0
C  C38  1  0.32532111  0.41228976  0.08277162  1  0  -0.025949  0  3.638861  0  0  -0.067348  0  3.89255  0  0  -0.061343  0  3.911039  0  0  -0.063571  -0.070971  0  3.880171  0
C  C39  1  0.67467431  0.58771507  0.91723055  1  0  -0.02587  0  3.638961  0  0  -0.067295  0  3.892691  0  0  -0.061286  0  3.911147  0  0  -0.063597  -0.070925  0  3.880331  0
C  C40  1  0.66728628  0.86156922  0.64255163  1  0  0.628903  0  3.828584  0  0  0.567901  0  4.118129  0  0  0.594894  0  4.125234  0  0  0.349796  0.549817  0  4.112839  0
C  C41  1  0.33271810  0.13842833  0.35744824  1  0  0.628859  0  3.828519  0  0  0.567801  0  4.118112  0  0  0.594794  0  4.125215  0  0  0.349738  0.549711  0  4.112833  0
C  C42  1  0.38936549  0.97980577  0.77841751  1  0  0.24333  0  3.703382  0  0  0.183396  0  3.983816  0  0  0.199644  0  3.993586  0  0  0.157713  0.172643  0  3.9773  0
C  C43  1  0.61064265  0.02018969  0.22158260  1  0  0.243356  0  3.703313  0  0  0.183398  0  3.983739  0  0  0.199645  0  3.993512  0  0  0.157702  0.172652  0  3.97722  0
N  N44  1  0.58958561  0.92872644  0.75740962  1  0  -0.548093  0  3.184415  0  0  -0.464528  0  3.487653  0  0  -0.490791  0  3.491012  0  0  -0.366  -0.446856  0  3.485289  0
N  N45  1  0.41042065  0.07127006  0.24259082  1  0  -0.54812  0  3.184297  0  0  -0.464479  0  3.487485  0  0  -0.490737  0  3.490834  0  0  -0.36597  -0.446805  0  3.485106  0
N  N46  1  0.85965641  0.79871172  0.58516951  1  0  -0.706061  0  3.102932  0  0  -0.672462  0  3.342536  0  0  -0.693323  0  3.334784  0  0  -0.580217  -0.657968  0  3.347434  0
N  N47  1  0.14034990  0.20128482  0.41482732  1  0  -0.706077  0  3.10285  0  0  -0.672469  0  3.342468  0  0  -0.693333  0  3.334712  0  0  -0.580206  -0.657977  0  3.347367  0
N  N48  1  0.51280594  0.87355786  0.59949656  1  0  -0.301331  0  3.33323  0  0  -0.252195  0  3.58512  0  0  -0.266579  0  3.594186  0  0  -0.288012  -0.242561  0  3.579233  0
N  N49  1  0.48719893  0.12643864  0.40050238  1  0  -0.301198  0  3.333226  0  0  -0.252074  0  3.585091  0  0  -0.266457  0  3.594158  0  0  -0.287954  -0.242435  0  3.579201  0
N  N50  1  0.33556878  0.94982753  0.68538984  1  0  -0.250405  0  3.009184  0  0  -0.217399  0  3.284862  0  0  -0.228524  0  3.296433  0  0  -0.231588  -0.209974  0  3.277079  0
N  N51  1  0.66443698  0.05017000  0.31461243  1  0  -0.250415  0  3.009134  0  0  -0.217412  0  3.284824  0  0  -0.228539  0  3.296397  0  0  -0.231586  -0.209991  0  3.277044  0
O  O52  1  0.55615170  0.25997307  0.76195620  1  0  -0.62358  0  1.884759  0  0  -0.582901  0  2.09684  0  0  -0.604873  0  2.088653  0  0  -0.342939  -0.567776  0  2.102449  0
O  O53  1  0.44385131  0.74003401  0.23804054  1  0  -0.623507  0  1.884856  0  0  -0.582831  0  2.096924  0  0  -0.604804  0  2.088739  0  0  -0.342939  -0.567704  0  2.102528  0
O  O54  1  0.56528336  0.15808066  0.95168891  1  0  -0.670055  0  2.02859  0  0  -0.597871  0  2.306949  0  0  -0.6273  0  2.292152  0  0  -0.335415  -0.576938  0  2.316676  0
O  O55  1  0.43471355  0.84192108  0.04830687  1  0  -0.670096  0  2.028553  0  0  -0.597921  0  2.30692  0  0  -0.627349  0  2.292123  0  0  -0.335456  -0.576987  0  2.316648  0
O  O56  1  0.07035108  0.72454470  0.75579942  1  0  -0.61908  0  1.951064  0  0  -0.572834  0  2.170444  0  0  -0.595975  0  2.161506  0  0  -0.322368  -0.556755  0  2.17611  0
O  O57  1  0.92964768  0.27545597  0.24419965  1  0  -0.619081  0  1.951161  0  0  -0.572827  0  2.170543  0  0  -0.595966  0  2.161602  0  0  -0.322366  -0.556752  0  2.176213  0
O  O58  1  0.89992999  0.85225627  0.93892204  1  0  -0.661124  0  2.039134  0  0  -0.58702  0  2.312515  0  0  -0.61679  0  2.297211  0  0  -0.32986  -0.56616  0  2.322409  0
O  O59  1  0.10006783  0.14774334  0.06107641  1  0  -0.661107  0  2.039025  0  0  -0.58703  0  2.312454  0  0  -0.616799  0  2.297151  0  0  -0.329857  -0.56617  0  2.322345  0
O  O60  1  0.02132249  0.66465375  0.34331615  1  0  -0.593483  0  1.99036  0  0  -0.544815  0  2.207934  0  0  -0.565546  0  2.196034  0  0  -0.291334  -0.530625  0  2.215864  0
O  O61  1  0.97866777  0.33534364  0.65668503  1  0  -0.59352  0  1.990419  0  0  -0.54488  0  2.207974  0  0  -0.565615  0  2.196074  0  0  -0.291352  -0.530695  0  2.215901  0
O  O62  1  0.28061060  0.46934747  0.33349713  1  0  -0.517746  0  2.079753  0  0  -0.472518  0  2.290819  0  0  -0.492541  0  2.276271  0  0  -0.315539  -0.458597  0  2.300003  0
O  O63  1  0.71938862  0.53065214  0.66650191  1  0  -0.517803  0  2.07981  0  0  -0.4726  0  2.290847  0  0  -0.492624  0  2.276299  0  0  -0.315545  -0.458685  0  2.300036  0
O  O64  1  0.95207153  0.04770553  0.69729779  1  0  -0.831608  0  1.988644  0  0  -0.76337  0  2.219899  0  0  -0.784259  0  2.182843  0  0  -0.577004  -0.748571  0  2.245552  0
O  O65  1  0.04793189  0.95229410  0.30270393  1  0  -0.831575  0  1.988658  0  0  -0.763341  0  2.219976  0  0  -0.78423  0  2.182923  0  0  -0.577018  -0.748537  0  2.245627  0
