# generated using pymatgen
data_ZnH4C18N5O12
_symmetry_space_group_name_H-M   'P 1'
_cell_length_a   14.39560969
_cell_length_b   16.54939213
_cell_length_c   18.00008225
_cell_angle_alpha   90.01652000
_cell_angle_beta   90.67209668
_cell_angle_gamma   89.88732310
_symmetry_Int_Tables_number   1
_chemical_formula_structural   ZnH4C18N5O12
_chemical_formula_sum   'Zn2 H8 C36 N10 O24'
_cell_volume   4288.01073400
_cell_formula_units_Z   2
loop_
 _symmetry_equiv_pos_site_id
 _symmetry_equiv_pos_as_xyz
  1  'x, y, z'
loop_
 _atom_site_type_symbol
 _atom_site_label
 _atom_site_symmetry_multiplicity
 _atom_site_fract_x
 _atom_site_fract_y
 _atom_site_fract_z
 _atom_site_occupancy
 _atom_site_pbe_bader_charge
 _atom_site_pbe_bader_spin_density
 _atom_site_pbe_cm5_charge
 _atom_site_pbe_ddec_charge
 _atom_site_pbe_ddec_spin_density
 _atom_site_pbe_ddec_sum_bond_order
 _atom_site_pbe_magmom
Zn  Zn0  1  0.49983265  0.41578521  0.50000498  1  1.25933  0  0.676833  0.818348  0  2.428697  0
Zn  Zn1  1  0.50007176  0.58424994  0.50002581  1  1.276989  0  0.676287  0.819022  0  2.428083  0
H  H2  1  0.61165442  0.41251414  0.12395731  1  0.145354  0  0.129574  0.146689  0  0.962141  0
H  H3  1  0.61127063  0.58932318  0.87691320  1  0.124133  0  0.130152  0.147238  0  0.960497  0
H  H4  1  0.38998664  0.41207395  0.87657328  1  0.123657  0  0.129656  0.146458  0  0.96198  0
H  H5  1  0.38834847  0.58861723  0.12258507  1  0.137834  0  0.130159  0.147339  0  0.961335  0
H  H6  1  0.59318687  0.28625060  0.58907902  1  0.197732  0  0.150221  0.139375  0  0.950315  0
H  H7  1  0.40362436  0.71413710  0.41326024  1  0.183285  0  0.148366  0.138792  0  0.955277  0
H  H8  1  0.40859335  0.28611735  0.40927591  1  0.176071  0  0.150546  0.13987  0  0.950012  0
H  H9  1  0.59514490  0.71384453  0.58899113  1  0.195385  0  0.147155  0.13769  0  0.960166  0
C  C10  1  0.50072274  0.49807123  0.64543043  1  1.621243  0  0.214592  0.597371  0  4.237731  0
C  C11  1  0.49895273  0.49838329  0.35459141  1  1.620728  0  0.214772  0.597378  0  4.24048  0
C  C12  1  0.67913688  0.50104480  0.50173349  1  1.739388  0  0.226173  0.661106  0  4.232989  0
C  C13  1  0.32078567  0.50176629  0.49843055  1  1.739106  0  0.226377  0.662927  0  4.229792  0
C  C14  1  0.77888375  0.50055126  0.50130512  1  0.068339  0  -0.003038  -0.117861  0  3.829526  0
C  C15  1  0.22103853  0.50139998  0.49886603  1  0.071958  0  -0.002725  -0.117249  0  3.828544  0
C  C16  1  0.86404368  0.50018713  0.50063806  1  -0.186372  0  -0.009201  0.025578  0  4.248546  0
C  C17  1  0.13588276  0.50073565  0.49943075  1  -0.188857  0  -0.009023  0.025368  0  4.248971  0
C  C18  1  0.95710971  0.50007327  0.50014545  1  0.079528  0  0.000257  -0.002135  0  4.192714  0
C  C19  1  0.04281991  0.50024827  0.49986386  1  -0.150888  0  0.000258  -0.002593  0  4.19299  0
C  C20  1  0.56240694  0.45110285  0.15270705  1  0.070452  0  -0.057143  -0.154193  0  3.870324  0
C  C21  1  0.56271891  0.54977560  0.84778966  1  0.138389  0  -0.057348  -0.155566  0  3.870524  0
C  C22  1  0.43873167  0.45073680  0.84759293  1  0.150648  0  -0.056633  -0.152943  0  3.867192  0
C  C23  1  0.43726669  0.54941722  0.15188882  1  0.09048  0  -0.057432  -0.154722  0  3.869703  0
C  C24  1  0.56165145  0.45253418  0.22978580  1  0.130296  0  0.091452  0.073835  0  3.924796  0
C  C25  1  0.56213172  0.54671501  0.77073658  1  0.140753  0  0.091052  0.07448  0  3.925582  0
C  C26  1  0.43882166  0.45207466  0.77051640  1  0.134646  0  0.091797  0.074588  0  3.921899  0
C  C27  1  0.43712731  0.54636513  0.22894097  1  0.147641  0  0.092141  0.075538  0  3.92215  0
C  C28  1  0.49913139  0.49902877  0.27072191  1  0.145805  0  0.014043  -0.087089  0  3.890586  0
C  C29  1  0.50059790  0.49877138  0.72929152  1  0.15076  0  0.014182  -0.087443  0  3.891028  0
C  C30  1  0.50006692  0.50065371  0.11259843  1  0.173632  0  0.015233  0.166272  0  4.100729  0
C  C31  1  0.50092283  0.50054500  0.88737354  1  0.083779  0  0.014987  0.166016  0  4.100459  0
C  C32  1  0.50053190  0.50118737  0.03382276  1  -0.31475  0  -0.029465  -0.088282  0  4.078942  0
C  C33  1  0.50095032  0.50115664  0.96614931  1  -0.080894  0  -0.029796  -0.088909  0  4.079893  0
C  C34  1  0.55928618  0.16723503  0.54711587  1  0.20962  0  0.108916  0.012217  0  3.837644  0
C  C35  1  0.44027205  0.83298184  0.45407416  1  0.325655  0  0.108603  0.012968  0  3.843516  0
C  C36  1  0.45357252  0.16714362  0.44446368  1  0.246034  0  0.108951  0.011604  0  3.838463  0
C  C37  1  0.54826766  0.83271720  0.55525228  1  0.193016  0  0.108794  0.014784  0  3.839605  0
C  C38  1  0.55422551  0.25097628  0.54817360  1  0.618205  0  0.091863  0.079799  0  3.842554  0
C  C39  1  0.44456718  0.74919767  0.45312106  1  0.534018  0  0.090416  0.077241  0  3.840697  0
C  C40  1  0.45106728  0.25089844  0.44802838  1  0.642333  0  0.091917  0.080298  0  3.842557  0
C  C41  1  0.55087741  0.74897857  0.55139482  1  0.610023  0  0.090301  0.076574  0  3.838784  0
C  C42  1  0.50769029  0.12122491  0.49505667  1  0.139384  0  0.051665  0.101208  0  4.034991  0
C  C43  1  0.49306635  0.87869849  0.50550829  1  0.160513  0  0.048669  0.094775  0  4.038109  0
C  C44  1  0.50476769  0.03634211  0.49722175  1  -0.418802  0  -0.001634  -0.026643  0  4.027604  0
C  C45  1  0.49601343  0.96360245  0.50349224  1  0.258343  0  -0.000309  -0.021707  0  4.023088  0
N  N46  1  0.50135878  0.29152547  0.49887298  1  -1.203175  0  -0.299318  -0.152856  0  3.488383  0
N  N47  1  0.49878853  0.70854701  0.50147418  1  -1.197176  0  -0.299081  -0.151813  0  3.486402  0
N  N48  1  0.63333161  0.40415326  0.26925860  1  0.392068  0  0.060807  0.514679  0  4.219647  0
N  N49  1  0.63186306  0.59581217  0.73147338  1  0.416829  0  0.060886  0.51221  0  4.222534  0
N  N50  1  0.36682234  0.40389215  0.73141383  1  0.415422  0  0.062356  0.514993  0  4.219083  0
N  N51  1  0.36560088  0.59437134  0.26754062  1  0.400182  0  0.061137  0.51158  0  4.219535  0
N  N52  1  0.62271514  0.12791914  0.60126528  1  0.428844  0  0.068061  0.518086  0  4.221772  0
N  N53  1  0.37682362  0.87301748  0.40041918  1  0.411093  0  0.067167  0.517719  0  4.22222  0
N  N54  1  0.39944250  0.12766796  0.38439788  1  0.408835  0  0.067729  0.517295  0  4.222683  0
N  N55  1  0.60354234  0.87241666  0.61452612  1  0.427742  0  0.067075  0.516094  0  4.223988  0
O  O56  1  0.51081600  0.42961768  0.61520294  1  -1.15212  0  -0.30726  -0.532063  0  2.305979  0
O  O57  1  0.50894746  0.56644052  0.38568474  1  -1.150475  0  -0.308  -0.53145  0  2.307844  0
O  O58  1  0.48914959  0.42986653  0.38468951  1  -1.151041  0  -0.308395  -0.535711  0  2.311284  0
O  O59  1  0.49094807  0.56626910  0.61448201  1  -1.150576  0  -0.308804  -0.535134  0  2.311126  0
O  O60  1  0.63913420  0.43264125  0.49534437  1  -1.13359  0  -0.307659  -0.532026  0  2.284794  0
O  O61  1  0.36007369  0.57037565  0.49202453  1  -1.131638  0  -0.307697  -0.532992  0  2.282171  0
O  O62  1  0.36086367  0.43326616  0.50467910  1  -1.128207  0  -0.306138  -0.527823  0  2.280954  0
O  O63  1  0.63977180  0.56972101  0.50830345  1  -1.129623  0  -0.306756  -0.528228  0  2.279313  0
O  O64  1  0.64488203  0.33388538  0.24764347  1  -0.436848  0  -0.134486  -0.32846  0  1.846466  0
O  O65  1  0.67717285  0.43837334  0.31952992  1  -0.411711  0  -0.110238  -0.294734  0  1.905777  0
O  O66  1  0.67889055  0.56099641  0.68419278  1  -0.427407  0  -0.111075  -0.297014  0  1.903737  0
O  O67  1  0.63823569  0.66777179  0.74969869  1  -0.444725  0  -0.129937  -0.32514  0  1.858064  0
O  O68  1  0.35428019  0.33415991  0.75385263  1  -0.434046  0  -0.131538  -0.324526  0  1.849192  0
O  O69  1  0.32355952  0.43796232  0.68064230  1  -0.43308  0  -0.112302  -0.297111  0  1.905565  0
O  O70  1  0.32212233  0.55988008  0.31713031  1  -0.42279  0  -0.115147  -0.302947  0  1.910345  0
O  O71  1  0.35400308  0.66488702  0.24653189  1  -0.423249  0  -0.125176  -0.318572  0  1.867658  0
O  O72  1  0.62639789  0.15812724  0.66399893  1  -0.407797  0  -0.10824  -0.29694  0  1.840889  0
O  O73  1  0.66814062  0.06979575  0.57850241  1  -0.413893  0  -0.105817  -0.295599  0  1.898104  0
O  O74  1  0.37571769  0.84551373  0.33667850  1  -0.392263  0  -0.101295  -0.28704  0  1.858561  0
O  O75  1  0.32929324  0.92918853  0.42461957  1  -0.40966  0  -0.109255  -0.30069  0  1.889553  0
O  O76  1  0.32337718  0.15826852  0.36870251  1  -0.405743  0  -0.1073  -0.295281  0  1.839853  0
O  O77  1  0.43602339  0.06897179  0.35397748  1  -0.413393  0  -0.107045  -0.297489  0  1.898763  0
O  O78  1  0.68199752  0.84489903  0.62649568  1  -0.39732  0  -0.099807  -0.284997  0  1.848864  0
O  O79  1  0.56515110  0.92834898  0.64783669  1  -0.413392  0  -0.110059  -0.301431  0  1.893027  0
