# generated using pymatgen
data_Cd3H38C42(NO4)4
_symmetry_space_group_name_H-M   'P 1'
_cell_length_a   12.70887768
_cell_length_b   13.66357017
_cell_length_c   16.92967739
_cell_angle_alpha   78.57494941
_cell_angle_beta   76.94915929
_cell_angle_gamma   80.47095163
_symmetry_Int_Tables_number   1
_chemical_formula_structural   Cd3H38C42(NO4)4
_chemical_formula_sum   'Cd6 H76 C84 N8 O32'
_cell_volume   2784.57093149
_cell_formula_units_Z   2
loop_
 _symmetry_equiv_pos_site_id
 _symmetry_equiv_pos_as_xyz
  1  'x, y, z'
loop_
 _atom_site_type_symbol
 _atom_site_label
 _atom_site_symmetry_multiplicity
 _atom_site_fract_x
 _atom_site_fract_y
 _atom_site_fract_z
 _atom_site_occupancy
 _atom_site_pbe_bader_charge
 _atom_site_pbe_bader_spin_density
 _atom_site_pbe_cm5_charge
 _atom_site_pbe_ddec_charge
 _atom_site_pbe_ddec_spin_density
 _atom_site_pbe_ddec_sum_bond_order
 _atom_site_pbe_magmom
Cd  Cd0  1  0.52197117  0.47418335  0.26218669  1  1.300055  0  0.759034  0.978444  0  2.047211  0
Cd  Cd1  1  0.47802674  0.52581728  0.73781595  1  1.300059  0  0.759052  0.978478  0  2.047166  0
Cd  Cd2  1  0.28070808  0.75400791  0.75960442  1  1.303446  0  0.772412  1.005666  0  2.07837  0
Cd  Cd3  1  0.71928790  0.24599498  0.24039640  1  1.303459  0  0.772393  1.005637  0  2.078388  0
Cd  Cd4  1  0.27807688  0.70241062  0.25114529  1  1.390415  0  0.801041  1.088765  0  2.102287  0
Cd  Cd5  1  0.72192345  0.29759000  0.74885516  1  1.390404  0  0.801026  1.088695  0  2.102331  0
H  H6  1  0.21022206  0.31834991  0.35004737  1  0.108303  0  0.104612  0.109754  0  1.002717  0
H  H7  1  0.78977514  0.68164997  0.64995551  1  0.108413  0  0.104617  0.109766  0  1.002696  0
H  H8  1  0.04140533  0.24375403  0.34857694  1  0.082427  0  0.102827  0.102001  0  1.014192  0
H  H9  1  0.95859467  0.75624281  0.65142123  1  0.08239  0  0.10283  0.101987  0  1.014207  0
H  H10  1  0.01061916  0.44025011  0.12228142  1  0.127705  0  0.105451  0.113203  0  1.015288  0
H  H11  1  0.98938791  0.55974821  0.87771470  1  0.127983  0  0.105465  0.113221  0  1.01527  0
H  H12  1  0.28131993  0.44149062  0.02908763  1  0.07136  0  0.102422  0.104906  0  1.029805  0
H  H13  1  0.71868050  0.55850924  0.97091351  1  0.071364  0  0.102434  0.10487  0  1.029822  0
H  H14  1  0.27869254  0.75610092  0.92645883  1  0.112828  0  0.102054  0.107393  0  1.060086  0
H  H15  1  0.72130780  0.24389971  0.07354575  1  0.112672  0  0.102038  0.107355  0  1.060168  0
H  H16  1  0.14779353  0.79940506  0.05024955  1  0.066165  0  0.110929  0.116804  0  0.971265  0
H  H17  1  0.85220904  0.20059709  0.94975618  1  0.066185  0  0.1109  0.116793  0  0.971345  0
H  H18  1  0.44548077  0.64485760  0.08551302  1  0.125069  0  0.126786  0.07287  0  1.017847  0
H  H19  1  0.55451641  0.35514226  0.91448455  1  0.125088  0  0.126803  0.072908  0  1.017818  0
H  H20  1  0.40795787  0.90509891  0.93802175  1  0.066839  0  0.104317  0.123204  0  1.009689  0
H  H21  1  0.59204740  0.09490093  0.06197620  1  0.066793  0  0.10425  0.123202  0  1.009687  0
H  H22  1  0.54674400  0.90507146  0.94357032  1  0.045359  0  0.104503  0.113454  0  0.990054  0
H  H23  1  0.45326258  0.09492462  0.05642861  1  0.04546  0  0.104532  0.113486  0  0.990063  0
H  H24  1  0.44119950  0.91476779  0.03334645  1  0.091493  0  0.109536  0.127076  0  1.006703  0
H  H25  1  0.55880758  0.08523053  0.96665144  1  0.09151  0  0.109562  0.127089  0  1.006698  0
H  H26  1  0.54781032  0.63260327  0.96641024  1  0.098823  0  0.112234  0.131865  0  1.007454  0
H  H27  1  0.45218878  0.36739434  0.03358914  1  0.098872  0  0.112235  0.131856  0  1.00743  0
H  H28  1  0.62941765  0.73191634  0.92195056  1  0.019042  0  0.099379  0.106061  0  0.991884  0
H  H29  1  0.37058255  0.26807900  0.07804723  1  0.018997  0  0.099369  0.1061  0  0.991809  0
H  H30  1  0.50914845  0.72695961  0.88508462  1  0.068809  0  0.105837  0.134138  0  0.992512  0
H  H31  1  0.49085055  0.27303875  0.11491466  1  0.068815  0  0.105782  0.134079  0  0.992467  0
H  H32  1  0.34667572  0.54977339  0.41326375  1  0.173001  0  0.127106  0.070204  0  1.020302  0
H  H33  1  0.65332188  0.45022948  0.58673503  1  0.173319  0  0.127087  0.070144  0  1.020322  0
H  H34  1  0.06009476  0.60343880  0.49556912  1  0.084848  0  0.110765  0.12906  0  1.00357  0
H  H35  1  0.93990273  0.39656482  0.50442896  1  0.084929  0  0.110712  0.128916  0  1.003654  0
H  H36  1  0.09052734  0.59498861  0.59524767  1  0.069155  0  0.102617  0.117538  0  1.008116  0
H  H37  1  0.90947026  0.40501426  0.40475111  1  0.069193  0  0.102613  0.117501  0  1.008131  0
H  H38  1  0.06183474  0.48594292  0.56536254  1  0.060286  0  0.104586  0.116051  0  0.99058  0
H  H39  1  0.93816194  0.51406071  0.43463568  1  0.060035  0  0.10457  0.116046  0  0.990446  0
H  H40  1  0.25600131  0.39126307  0.57819655  1  0.028711  0  0.099459  0.110036  0  0.99412  0
H  H41  1  0.74399700  0.60874056  0.42180317  1  0.028657  0  0.099459  0.110029  0  0.994185  0
H  H42  1  0.27441536  0.49718885  0.61821403  1  0.110426  0  0.104468  0.130096  0  0.998142  0
H  H43  1  0.72558285  0.50281553  0.38178499  1  0.110391  0  0.104454  0.130106  0  0.99815  0
H  H44  1  0.36742602  0.46056460  0.52914834  1  0.107026  0  0.110843  0.139614  0  1.028587  0
H  H45  1  0.63257229  0.53943902  0.47085078  1  0.106999  0  0.110827  0.139623  0  1.028589  0
H  H46  1  0.46387762  0.29329055  0.55230144  1  0.099112  0  0.108651  0.115526  0  1.005626  0
H  H47  1  0.53612189  0.70671006  0.44769797  1  0.099069  0  0.108638  0.115453  0  1.005697  0
H  H48  1  0.84986049  0.14043341  0.52873435  1  0.069546  0  0.106761  0.108123  0  0.980456  0
H  H49  1  0.15013904  0.85956722  0.47126978  1  0.069502  0  0.106774  0.108104  0  0.980412  0
H  H50  1  0.78888984  0.25357662  0.40883423  1  0.124761  0  0.10272  0.114335  0  1.04897  0
H  H51  1  0.21111281  0.74642475  0.59116747  1  0.124751  0  0.102721  0.114405  0  1.04897  0
H  H52  1  0.69589020  0.98223158  0.57850229  1  0.092416  0  0.113156  0.13014  0  1.00562  0
H  H53  1  0.30410900  0.01777128  0.42149504  1  0.092495  0  0.113171  0.130174  0  1.005602  0
H  H54  1  0.66771392  0.87680053  0.65810559  1  0.083676  0  0.113092  0.131853  0  0.974314  0
H  H55  1  0.33228397  0.12320008  0.34189114  1  0.083645  0  0.113093  0.131886  0  0.974319  0
H  H56  1  0.80384630  0.88739253  0.60253849  1  0.071617  0  0.106064  0.11929  0  0.980455  0
H  H57  1  0.19615311  0.11260882  0.39745727  1  0.071615  0  0.10608  0.119336  0  0.980403  0
H  H58  1  0.87059809  0.90111521  0.74602864  1  0.089832  0  0.108795  0.129425  0  0.979147  0
H  H59  1  0.12940252  0.09888313  0.25396918  1  0.089798  0  0.108822  0.129446  0  0.979142  0
H  H60  1  0.73979842  0.85886899  0.78096762  1  0.062548  0  0.106365  0.117115  0  0.995105  0
H  H61  1  0.26020139  0.14112936  0.21903034  1  0.06264  0  0.106358  0.117129  0  0.995153  0
H  H62  1  0.76570503  0.97187038  0.80919118  1  0.10327  0  0.114412  0.136802  0  0.989931  0
H  H63  1  0.23429306  0.02812872  0.19080636  1  0.103181  0  0.114386  0.13677  0  0.989881  0
H  H64  1  0.32024053  0.23627629  0.85336917  1  0.085796  0  0.104727  0.104023  0  1.010592  0
H  H65  1  0.67975959  0.76372583  0.14663048  1  0.085925  0  0.104711  0.103979  0  1.010622  0
H  H66  1  0.27362771  0.05931833  0.87340745  1  0.084664  0  0.106074  0.110796  0  0.998049  0
H  H67  1  0.72637273  0.94068154  0.12659547  1  0.084649  0  0.106088  0.110816  0  0.99804  0
H  H68  1  0.50492729  0.01183390  0.65337260  1  0.093239  0  0.105268  0.113129  0  1.021245  0
H  H69  1  0.49507162  0.98816521  0.34662834  1  0.093228  0  0.105262  0.113122  0  1.021197  0
H  H70  1  0.92258076  0.67892981  0.31942677  1  0.07632  0  0.108397  0.124647  0  0.998634  0
H  H71  1  0.07741442  0.32107308  0.68057479  1  0.076569  0  0.10838  0.124661  0  0.998599  0
H  H72  1  0.80921848  0.66361026  0.27693282  1  0.083687  0  0.107856  0.124297  0  1.022225  0
H  H73  1  0.19077921  0.33639186  0.72306665  1  0.083704  0  0.107865  0.124328  0  1.022143  0
H  H74  1  0.85917174  0.78268893  0.25751299  1  0.050103  0  0.106018  0.12304  0  0.975529  0
H  H75  1  0.14082848  0.21731243  0.74248500  1  0.049994  0  0.106011  0.123029  0  0.975588  0
H  H76  1  0.85662573  0.71160174  0.10669959  1  0.046927  0  0.104488  0.116528  0  0.987823  0
H  H77  1  0.14337812  0.28839661  0.89330004  1  0.046865  0  0.104452  0.116505  0  0.987741  0
H  H78  1  0.85771713  0.58444664  0.15866283  1  0.073508  0  0.113499  0.139926  0  0.974435  0
H  H79  1  0.14228702  0.41554944  0.84133711  1  0.073479  0  0.113515  0.139955  0  0.974483  0
H  H80  1  0.97203748  0.62199666  0.08099597  1  0.083457  0  0.110751  0.125719  0  1.01465  0
H  H81  1  0.02796800  0.37800169  0.91900633  1  0.083546  0  0.110773  0.125771  0  1.014586  0
C  C82  1  0.30407985  0.46173992  0.24231849  1  1.572903  0  0.201673  0.579346  0  4.212544  0
C  C83  1  0.69591916  0.53825845  0.75768314  1  1.573302  0  0.201701  0.57938  0  4.212539  0
C  C84  1  0.20123968  0.42371457  0.23910242  1  -0.040759  0  -0.009757  -0.060326  0  3.914671  0
C  C85  1  0.79876094  0.57628378  0.76089776  1  -0.040715  0  -0.009857  -0.060546  0  3.914617  0
C  C86  1  0.16405040  0.34539692  0.30129586  1  0.022447  0  -0.087159  -0.100629  0  3.999431  0
C  C87  1  0.83595052  0.65459917  0.69870345  1  0.022255  0  -0.08712  -0.100554  0  3.999488  0
C  C88  1  0.07214011  0.30355939  0.30010670  1  -0.133954  0  -0.089231  -0.117984  0  4.031808  0
C  C89  1  0.92786010  0.69643594  0.69989109  1  -0.134029  0  -0.089255  -0.117992  0  4.03197  0
C  C90  1  0.01740926  0.33795329  0.23477618  1  0.018164  0  -0.016168  -0.011649  0  3.98584  0
C  C91  1  0.98258974  0.66204506  0.76522250  1  0.018453  0  -0.016159  -0.011659  0  3.985863  0
C  C92  1  0.05452778  0.41544554  0.17250633  1  -0.086017  0  -0.082968  -0.148709  0  3.948287  0
C  C93  1  0.94547647  0.58454978  0.82749195  1  -0.086013  0  -0.082983  -0.14877  0  3.948158  0
C  C94  1  0.14468949  0.46077317  0.17425255  1  -0.035138  0  -0.002013  0.049426  0  3.971691  0
C  C95  1  0.85530892  0.53922369  0.82575002  1  -0.03537  0  -0.001922  0.049664  0  3.971269  0
C  C96  1  0.91713293  0.29565000  0.23262570  1  1.550407  0  0.184613  0.548449  0  4.246313  0
C  C97  1  0.08286930  0.70434834  0.76737243  1  1.550356  0  0.184696  0.5485  0  4.246149  0
C  C98  1  0.17969187  0.54328538  0.10575169  1  -0.001752  0  -0.000569  0.056178  0  3.986514  0
C  C99  1  0.82030564  0.45671225  0.89425386  1  -0.001806  0  -0.000643  0.056076  0  3.986539  0
C  C100  1  0.25181444  0.51976583  0.03475293  1  0.001569  0  -0.080825  -0.134094  0  3.924773  0
C  C101  1  0.74818852  0.48023328  0.96524908  1  0.001588  0  -0.080826  -0.133945  0  3.924849  0
C  C102  1  0.28801811  0.59513416  0.96992339  1  -0.062436  0  -0.016064  -0.020437  0  3.974128  0
C  C103  1  0.71198465  0.40486646  0.03007901  1  -0.062461  0  -0.016084  -0.020684  0  3.974128  0
C  C104  1  0.25079681  0.69621829  0.97585993  1  0.050956  0  -0.083646  -0.089183  0  3.964281  0
C  C105  1  0.74920535  0.30378084  0.02414517  1  0.051044  0  -0.083623  -0.089004  0  3.964155  0
C  C106  1  0.17690122  0.72071051  0.04543219  1  -0.054974  0  -0.083738  -0.100952  0  3.98253  0
C  C107  1  0.82310204  0.27928635  0.95457250  1  -0.054821  0  -0.083752  -0.101023  0  3.982658  0
C  C108  1  0.14025913  0.64511882  0.10983049  1  -0.023536  0  -0.009912  -0.068978  0  4.004253  0
C  C109  1  0.85974474  0.35487955  0.89017444  1  -0.0237  0  -0.009828  -0.068907  0  4.004117  0
C  C110  1  0.36516292  0.56601331  0.89508838  1  1.540038  0  0.202554  0.575912  0  4.193196  0
C  C111  1  0.63483509  0.43399258  0.10491161  1  1.540014  0  0.202604  0.575939  0  4.19324  0
C  C112  1  0.06423162  0.67632911  0.18440077  1  1.353865  0  0.246645  0.417585  0  4.099157  0
C  C113  1  0.93576780  0.32367226  0.81560090  1  1.354017  0  0.246617  0.417467  0  4.099244  0
C  C114  1  0.43007926  0.72761371  0.07403908  1  1.379322  0  0.17362  0.302232  0  4.062102  0
C  C115  1  0.56992055  0.27238464  0.92595887  1  1.379337  0  0.173655  0.30219  0  4.062136  0
C  C116  1  0.46846721  0.88074509  0.97764727  1  0.275979  0  -0.13139  -0.271185  0  3.901213  0
C  C117  1  0.53153806  0.11925474  0.02235069  1  0.275898  0  -0.131386  -0.271298  0  3.901329  0
C  C118  1  0.54553441  0.71269492  0.93999427  1  0.297799  0  -0.129686  -0.277286  0  3.90303  0
C  C119  1  0.45446640  0.28730192  0.06000435  1  0.297885  0  -0.129625  -0.27729  0  3.902905  0
C  C120  1  0.25844329  0.57167026  0.43123622  1  1.328472  0  0.173438  0.303598  0  4.070308  0
C  C121  1  0.74155471  0.42832960  0.56876298  1  1.328152  0  0.173538  0.303625  0  4.070151  0
C  C122  1  0.10011166  0.55546100  0.54297195  1  0.248678  0  -0.130538  -0.269199  0  3.903869  0
C  C123  1  0.89988593  0.44454187  0.45702624  1  0.248877  0  -0.130476  -0.269073  0  3.903685  0
C  C124  1  0.28218822  0.46677075  0.56146840  1  0.22822  0  -0.136198  -0.290821  0  3.896364  0
C  C125  1  0.71780928  0.53323288  0.43853086  1  0.228509  0  -0.136188  -0.290922  0  3.896486  0
C  C126  1  0.58468409  0.35538232  0.40514346  1  1.543882  0  0.205084  0.576302  0  4.204327  0
C  C127  1  0.41531706  0.64461830  0.59485921  1  1.543686  0  0.205009  0.576223  0  4.204356  0
C  C128  1  0.62266481  0.28237516  0.47438259  1  -0.020875  0  -0.014287  -0.022712  0  3.978461  0
C  C129  1  0.37733633  0.71762546  0.52561891  1  -0.020763  0  -0.014187  -0.022565  0  3.978362  0
C  C130  1  0.54828624  0.25889927  0.54780961  1  -0.072674  0  -0.075998  -0.125442  0  3.916209  0
C  C131  1  0.45171539  0.74109758  0.45219123  1  -0.072855  0  -0.076001  -0.125348  0  3.916185  0
C  C132  1  0.57985115  0.19047868  0.61388745  1  0.023303  0  -0.003733  0.044823  0  3.993213  0
C  C133  1  0.42014887  0.80951818  0.38611366  1  0.023364  0  -0.003732  0.044843  0  3.993211  0
C  C134  1  0.68990857  0.14850043  0.60659394  1  -0.03874  0  -0.01115  -0.075605  0  4.003988  0
C  C135  1  0.31008973  0.85149718  0.39340735  1  -0.038742  0  -0.011195  -0.075667  0  4.004029  0
C  C136  1  0.76470743  0.17280102  0.53330332  1  -0.06057  0  -0.084493  -0.100453  0  3.995439  0
C  C137  1  0.23529371  0.82719959  0.46669758  1  -0.061054  0  -0.084467  -0.100345  0  3.995447  0
C  C138  1  0.73116912  0.23769405  0.46669353  1  0.007789  0  -0.083091  -0.091766  0  3.956286  0
C  C139  1  0.26883140  0.76230507  0.53330772  1  0.008366  0  -0.083125  -0.091937  0  3.956271  0
C  C140  1  0.73040801  0.08668473  0.67981337  1  1.33248  0  0.247981  0.41727  0  4.104347  0
C  C141  1  0.26958686  0.91331440  0.32018885  1  1.332505  0  0.247996  0.417235  0  4.104165  0
C  C142  1  0.72675005  0.93010570  0.62852867  1  0.22158  0  -0.12557  -0.275086  0  3.91364  0
C  C143  1  0.27324997  0.06989716  0.37146911  1  0.221569  0  -0.125593  -0.27517  0  3.913479  0
C  C144  1  0.78251137  0.92584861  0.76061761  1  0.218429  0  -0.13001  -0.268171  0  3.887045  0
C  C145  1  0.21748762  0.07414973  0.23937931  1  0.218389  0  -0.129998  -0.268146  0  3.886891  0
C  C146  1  0.45580808  0.32961828  0.73162939  1  1.565769  0  0.204174  0.583976  0  4.195682  0
C  C147  1  0.54419375  0.67038307  0.26836832  1  1.565811  0  0.204145  0.583972  0  4.195801  0
C  C148  1  0.43979486  0.22154221  0.74329698  1  -0.027092  0  -0.008069  -0.058491  0  3.932407  0
C  C149  1  0.56020718  0.77845764  0.25670212  1  -0.027152  0  -0.008087  -0.058467  0  3.932412  0
C  C150  1  0.36147013  0.18521757  0.81084343  1  -0.011627  0  -0.08429  -0.098472  0  3.998037  0
C  C151  1  0.63853010  0.81478380  0.18915692  1  -0.011728  0  -0.084237  -0.098378  0  3.997959  0
C  C152  1  0.33585342  0.08776824  0.82209282  1  -0.082823  0  -0.085893  -0.106904  0  3.998053  0
C  C153  1  0.66414670  0.91223387  0.17790683  1  -0.082863  0  -0.085971  -0.106986  0  3.998077  0
C  C154  1  0.38708142  0.02585280  0.76399583  1  -0.055412  0  -0.016525  -0.013989  0  3.991675  0
C  C155  1  0.61292133  0.97414781  0.23600480  1  -0.055634  0  -0.016569  -0.014092  0  3.991822  0
C  C156  1  0.46793029  0.06069314  0.69846316  1  0.014567  0  -0.083221  -0.145348  0  3.942853  0
C  C157  1  0.53207154  0.93930821  0.30153573  1  0.014612  0  -0.083182  -0.145237  0  3.942704  0
C  C158  1  0.49680102  0.15763266  0.68770330  1  -0.015967  0  -0.002321  0.047925  0  3.982824  0
C  C159  1  0.50319859  0.84236721  0.31229681  1  -0.015897  0  -0.002329  0.047827  0  3.982751  0
C  C160  1  0.35065382  0.92603854  0.76823413  1  1.563232  0  0.185816  0.550204  0  4.249225  0
C  C161  1  0.64934317  0.07396284  0.23176559  1  1.563332  0  0.185828  0.550262  0  4.249179  0
C  C162  1  0.88258211  0.70061062  0.26646951  1  0.264832  0  -0.134047  -0.271597  0  3.896919  0
C  C163  1  0.11741579  0.29939001  0.73353136  1  0.264728  0  -0.134028  -0.271674  0  3.896877  0
C  C164  1  0.90848168  0.64515891  0.13155696  1  0.264029  0  -0.128353  -0.273618  0  3.902293  0
C  C165  1  0.09152066  0.35483868  0.86844305  1  0.264054  0  -0.128349  -0.273703  0  3.90225  0
N  N166  1  0.48201743  0.77180123  0.00116723  1  -1.234973  0  -0.28178  0.031852  0  3.715354  0
N  N167  1  0.51798481  0.22819711  0.99883149  1  -1.235  0  -0.281811  0.031943  0  3.715404  0
N  N168  1  0.21485013  0.53196564  0.50812713  1  -1.204193  0  -0.282098  0.031856  0  3.719924  0
N  N169  1  0.78514747  0.46803724  0.49187165  1  -1.204439  0  -0.282105  0.032021  0  3.719774  0
N  N170  1  0.95740598  0.67020419  0.19389153  1  -1.165675  0  -0.271244  -0.003708  0  3.657849  0
N  N171  1  0.04259384  0.32979417  0.80611056  1  -1.165873  0  -0.271262  -0.003627  0  3.657766  0
N  N172  1  0.74443441  0.98553897  0.68853401  1  -1.13942  0  -0.271755  -0.005321  0  3.667905  0
N  N173  1  0.25556449  0.01446014  0.31146457  1  -1.139353  0  -0.271748  -0.00534  0  3.66769  0
O  O174  1  0.09938784  0.70980528  0.23654931  1  -1.128953  0  -0.299506  -0.500216  0  2.254757  0
O  O175  1  0.90060987  0.29019687  0.76345370  1  -1.128833  0  -0.29946  -0.500112  0  2.254825  0
O  O176  1  0.32429644  0.54872026  0.20372430  1  -1.186888  0  -0.33229  -0.603368  0  2.341338  0
O  O177  1  0.67569996  0.45127964  0.79628108  1  -1.186941  0  -0.332273  -0.603358  0  2.341193  0
O  O178  1  0.36831109  0.40153130  0.28295623  1  -1.140126  0  -0.325043  -0.533921  0  2.207915  0
O  O179  1  0.63168812  0.59846556  0.71704561  1  -1.140525  0  -0.325075  -0.533935  0  2.208046  0
O  O180  1  0.38896309  0.87908512  0.70731665  1  -1.145493  0  -0.342378  -0.556485  0  2.140922  0
O  O181  1  0.61103663  0.12091400  0.29268474  1  -1.145464  0  -0.34235  -0.556488  0  2.140908  0
O  O182  1  0.28099212  0.89278179  0.83049190  1  -1.168601  0  -0.334942  -0.570214  0  2.15775  0
O  O183  1  0.71900568  0.10721959  0.16950886  1  -1.168557  0  -0.334933  -0.570198  0  2.157652  0
O  O184  1  0.49824554  0.41464714  0.41882788  1  -1.163293  0  -0.31072  -0.535727  0  2.169384  0
O  O185  1  0.50175570  0.58535273  0.58117549  1  -1.163028  0  -0.310663  -0.535698  0  2.169444  0
O  O186  1  0.64456422  0.35697389  0.33204967  1  -1.169974  0  -0.342093  -0.593945  0  2.355263  0
O  O187  1  0.35543429  0.64302825  0.66795203  1  -1.170031  0  -0.342099  -0.593965  0  2.355178  0
O  O188  1  0.40406450  0.47537684  0.89297401  1  -1.159085  0  -0.316739  -0.541927  0  2.155283  0
O  O189  1  0.59592783  0.52462904  0.10702105  1  -1.159213  0  -0.316861  -0.541957  0  2.155264  0
O  O190  1  0.39099826  0.63648331  0.83311379  1  -1.172702  0  -0.342597  -0.598299  0  2.36431  0
O  O191  1  0.60899885  0.36352335  0.16688800  1  -1.17261  0  -0.342546  -0.598243  0  2.364381  0
O  O192  1  0.88690803  0.22189304  0.28803687  1  -1.161483  0  -0.339878  -0.57458  0  2.162841  0
O  O193  1  0.11309258  0.77810530  0.71196036  1  -1.161632  0  -0.339935  -0.574627  0  2.162818  0
O  O194  1  0.86353560  0.33728905  0.17684927  1  -1.149642  0  -0.335121  -0.550654  0  2.165535  0
O  O195  1  0.13646129  0.66271308  0.82315211  1  -1.149544  0  -0.335132  -0.55063  0  2.165485  0
O  O196  1  0.55236331  0.35555869  0.71107712  1  -1.167909  0  -0.32792  -0.603639  0  2.383755  0
O  O197  1  0.44763974  0.64443966  0.28892382  1  -1.167848  0  -0.327915  -0.603631  0  2.383783  0
O  O198  1  0.37203440  0.39358608  0.74321023  1  -1.148232  0  -0.310949  -0.52768  0  2.158274  0
O  O199  1  0.62796742  0.60641526  0.25678571  1  -1.148266  0  -0.310906  -0.52771  0  2.158371  0
O  O200  1  0.20412808  0.62938594  0.38291762  1  -1.159281  0  -0.317732  -0.486608  0  2.334042  0
O  O201  1  0.79586758  0.37061316  0.61707915  1  -1.159246  0  -0.317786  -0.486594  0  2.333964  0
O  O202  1  0.36906861  0.77675011  0.12618149  1  -1.153361  0  -0.315471  -0.481875  0  2.342664  0
O  O203  1  0.63093181  0.22324975  0.87381671  1  -1.153441  0  -0.315481  -0.481855  0  2.342692  0
O  O204  1  0.75216687  0.13034746  0.73200782  1  -1.131214  0  -0.294732  -0.492561  0  2.273293  0
O  O205  1  0.24782416  0.86965018  0.26799472  1  -1.131233  0  -0.294791  -0.492608  0  2.273219  0
