# generated using pymatgen
data_Zn4H21C36N3O13
_symmetry_space_group_name_H-M   'P 1'
_cell_length_a   18.13012612
_cell_length_b   18.14362726
_cell_length_c   18.46954578
_cell_angle_alpha   119.26995331
_cell_angle_beta   90.03216208
_cell_angle_gamma   120.00576841
_symmetry_Int_Tables_number   1
_chemical_formula_structural   Zn4H21C36N3O13
_chemical_formula_sum   'Zn8 H42 C72 N6 O26'
_cell_volume   4341.27628798
_cell_formula_units_Z   2
loop_
 _symmetry_equiv_pos_site_id
 _symmetry_equiv_pos_as_xyz
  1  'x, y, z'
loop_
 _atom_site_type_symbol
 _atom_site_label
 _atom_site_symmetry_multiplicity
 _atom_site_fract_x
 _atom_site_fract_y
 _atom_site_fract_z
 _atom_site_occupancy
 _atom_site_pbe_bader_charge
 _atom_site_pbe_bader_spin_density
 _atom_site_pbe_cm5_charge
 _atom_site_pbe_ddec_charge
 _atom_site_pbe_ddec_spin_density
 _atom_site_pbe_ddec_sum_bond_order
 _atom_site_pbe_magmom
Zn  Zn0  1  0.02663580  0.07615036  0.92995941  1  1.321158  0  0.675197  0.9743  0  2.348153  0
Zn  Zn1  1  0.85132882  0.89895258  0.93240701  1  1.309743  0  0.675647  0.971742  0  2.355612  0
Zn  Zn2  1  0.02751121  0.07197869  0.10001022  1  1.306457  0  0.676248  0.968034  0  2.372685  0
Zn  Zn3  1  0.02791653  0.89976796  0.92930720  1  1.317048  0  0.675113  0.970088  0  2.357829  0
Zn  Zn4  1  0.43694039  0.89666995  0.51227977  1  1.304658  0  0.679521  0.956506  0  2.384731  0
Zn  Zn5  1  0.61463578  0.07444324  0.51785490  1  1.310773  0  0.678967  0.962782  0  2.365726  0
Zn  Zn6  1  0.43841292  0.07505832  0.51482720  1  1.319492  0  0.678382  0.970465  0  2.345156  0
Zn  Zn7  1  0.44251687  0.90078057  0.34242419  1  1.307674  0  0.67683  0.969945  0  2.357236  0
H  H8  1  0.84942592  0.14757039  0.85633825  1  0.103622  0  0.111393  0.117362  0  0.985955  0
H  H9  1  0.74885721  0.13879704  0.75519987  1  0.104004  0  0.113041  0.117449  0  0.978035  0
H  H10  1  0.71063494  0.81831352  0.68443877  1  0.085125  0  0.11651  0.131149  0  0.988572  0
H  H11  1  0.47940270  0.75400409  0.54492132  1  0.105962  0  0.112191  0.114293  0  1.030731  0
H  H12  1  0.43218090  0.57919650  0.38957028  1  0.075992  0  0.097133  0.114976  0  1.018043  0
H  H13  1  0.58753430  0.59069574  0.37803265  1  0.062681  0  0.099581  0.116062  0  1.013148  0
H  H14  1  0.72030965  0.77270477  0.52752649  1  0.070246  0  0.112887  0.104074  0  1.015673  0
H  H15  1  0.27461272  0.39584083  0.10120248  1  0.082296  0  0.111918  0.117183  0  0.984524  0
H  H16  1  0.36929455  0.58811927  0.20329220  1  0.091301  0  0.11432  0.118744  0  0.977173  0
H  H17  1  0.08192702  0.38108227  0.23944072  1  0.121863  0  0.117069  0.132005  0  0.983685  0
H  H18  1  0.24864859  0.67220637  0.47005207  1  0.087338  0  0.114391  0.115871  0  1.019447  0
H  H19  1  0.12517360  0.71249938  0.52265392  1  0.066547  0  0.098257  0.11718  0  1.015345  0
H  H20  1  0.98791597  0.60344452  0.37296542  1  0.065752  0  0.0989  0.116307  0  1.012595  0
H  H21  1  0.03629158  0.50288712  0.23791026  1  0.097894  0  0.111349  0.102778  0  1.020091  0
H  H22  1  0.09747587  0.97836383  0.68577885  1  0.097991  0  0.112641  0.119448  0  0.984283  0
H  H23  1  0.19390415  0.97335622  0.58918234  1  0.095953  0  0.11406  0.117815  0  0.976157  0
H  H24  1  0.27976401  0.00985901  0.86572949  1  0.108652  0  0.116458  0.131197  0  0.986277  0
H  H25  1  0.40405604  0.90259794  0.69159886  1  0.131869  0  0.113902  0.115863  0  1.02453  0
H  H26  1  0.56906071  0.00641834  0.80585523  1  0.064495  0  0.096076  0.115321  0  1.023082  0
H  H27  1  0.59638048  0.18187729  0.94668249  1  0.08628  0  0.098126  0.11611  0  1.014035  0
H  H28  1  0.44582969  0.17415884  0.90927957  1  0.081364  0  0.111703  0.103087  0  1.019592  0
H  H29  1  0.70723690  0.99866008  0.10621816  1  0.076853  0  0.11223  0.118538  0  0.984358  0
H  H30  1  0.61874518  0.00532149  0.21021228  1  0.089643  0  0.11424  0.118249  0  0.976285  0
H  H31  1  0.86280335  0.96214758  0.24547502  1  0.104091  0  0.116153  0.130781  0  0.987626  0
H  H32  1  0.78921924  0.06406511  0.47606190  1  0.098383  0  0.113457  0.116635  0  1.029644  0
H  H33  1  0.80770319  0.96003067  0.53350146  1  0.051345  0  0.096426  0.113532  0  1.022089  0
H  H34  1  0.78666636  0.79168996  0.38841786  1  0.066822  0  0.097943  0.114658  0  1.015202  0
H  H35  1  0.75695191  0.80407356  0.25114866  1  0.087999  0  0.111332  0.101949  0  1.021412  0
H  H36  1  0.69910586  0.57629069  0.85297027  1  0.113795  0  0.111591  0.117569  0  0.985995  0
H  H37  1  0.60595432  0.38402264  0.75170493  1  0.071964  0  0.112051  0.11646  0  0.979375  0
H  H38  1  0.86219558  0.59440043  0.68493233  1  0.099669  0  0.116362  0.130671  0  0.989517  0
H  H39  1  0.78448331  0.28745529  0.54796471  1  0.110974  0  0.11183  0.114128  0  1.033022  0
H  H40  1  0.80943542  0.25956308  0.39356620  1  0.0798  0  0.097408  0.114756  0  1.01908  0
H  H41  1  0.79219495  0.39380505  0.37964251  1  0.055067  0  0.09938  0.114663  0  1.013762  0
H  H42  1  0.75677863  0.49491206  0.52661291  1  0.079164  0  0.114157  0.105347  0  1.013254  0
H  H43  1  0.09987391  0.82328365  0.10069312  1  0.109928  0  0.111519  0.116634  0  0.986034  0
H  H44  1  0.19716911  0.83009632  0.20314529  1  0.085877  0  0.112082  0.115247  0  0.980465  0
H  H45  1  0.28126285  0.15269625  0.23549290  1  0.097243  0  0.1167  0.130734  0  0.986839  0
H  H46  1  0.40535030  0.21418845  0.46682689  1  0.101632  0  0.113933  0.114885  0  1.022527  0
H  H47  1  0.57178339  0.38619858  0.51915285  1  0.06712  0  0.095979  0.112815  0  1.022972  0
H  H48  1  0.60067085  0.37427685  0.36973769  1  0.075194  0  0.097756  0.114688  0  1.017593  0
H  H49  1  0.44890188  0.19532584  0.23489405  1  0.088472  0  0.111445  0.102786  0  1.019443  0
C  C50  1  0.84260557  0.98576176  0.83758432  1  1.558433  0  0.231481  0.612734  0  4.151306  0
C  C51  1  0.78506569  0.98301774  0.77713038  1  0.006315  0  -0.012494  -0.013411  0  3.993204  0
C  C52  1  0.79714977  0.07407501  0.79686025  1  -0.021829  0  -0.082091  -0.101476  0  3.982384  0
C  C53  1  0.74142199  0.06898869  0.74036730  1  -0.019315  0  -0.078026  -0.08744  0  3.98866  0
C  C54  1  0.67550699  0.97504270  0.66236141  1  -0.011788  0  -0.001657  -0.089325  0  3.910612  0
C  C55  1  0.61954068  0.97918437  0.60684224  1  1.582193  0  0.238789  0.628254  0  4.145056  0
C  C56  1  0.66624524  0.88388703  0.64043658  1  0.338504  0  0.110401  0.160919  0  3.969249  0
C  C57  1  0.71963556  0.88895560  0.69979455  1  0.013804  0  -0.078269  -0.179218  0  3.938668  0
C  C58  1  0.52066853  0.72900049  0.51497109  1  0.27948  0  -0.022622  -0.080984  0  3.964505  0
C  C59  1  0.49920664  0.64104532  0.43704993  1  0.000448  0  -0.133194  -0.176837  0  4.101015  0
C  C60  1  0.58004228  0.64643677  0.43147464  1  -0.078907  0  -0.131767  -0.176639  0  4.112421  0
C  C61  1  0.64854224  0.73716089  0.50653105  1  0.325012  0  -0.022581  -0.091924  0  3.985664  0
C  C62  1  0.11736679  0.26157478  0.10741176  1  1.533677  0  0.230777  0.61052  0  4.149015  0
C  C63  1  0.17325655  0.37658855  0.16517757  1  -0.001856  0  -0.012104  -0.015639  0  3.991295  0
C  C64  1  0.25360197  0.43477707  0.15378992  1  -0.029784  0  -0.079219  -0.096269  0  3.976317  0
C  C65  1  0.30597058  0.54168420  0.21048487  1  0.046731  0  -0.077494  -0.087261  0  3.98701  0
C  C66  1  0.27817595  0.59241229  0.27691394  1  0.01736  0  -0.002081  -0.087732  0  3.918794  0
C  C67  1  0.33864872  0.70767633  0.33402420  1  1.584035  0  0.237395  0.627826  0  4.15459  0
C  C68  1  0.19508873  0.53390088  0.28565692  1  0.358984  0  0.108141  0.159614  0  3.97285  0
C  C69  1  0.14482308  0.42628957  0.23105882  1  -0.050774  0  -0.075958  -0.172196  0  3.932398  0
C  C70  1  0.18502042  0.64518869  0.43163257  1  0.329668  0  -0.020549  -0.076122  0  3.960142  0
C  C71  1  0.12084931  0.66344554  0.45581754  1  -0.049357  0  -0.134819  -0.179843  0  4.100404  0
C  C72  1  0.04886382  0.60589916  0.37778937  1  0.006103  0  -0.135804  -0.181718  0  4.122957  0
C  C73  1  0.07082512  0.55355546  0.30809766  1  0.225785  0  -0.027482  -0.103397  0  4.002236  0
C  C74  1  0.12354419  0.99178044  0.83781409  1  1.557604  0  0.230565  0.610846  0  4.149782  0
C  C75  1  0.18201880  0.99264916  0.78093791  1  0.009421  0  -0.012769  -0.01524  0  3.991693  0
C  C76  1  0.15818475  0.98388061  0.70360201  1  -0.024169  0  -0.079719  -0.099517  0  3.977237  0
C  C77  1  0.21207857  0.98142493  0.65014551  1  -0.006294  0  -0.077745  -0.08634  0  3.984563  0
C  C78  1  0.29158879  0.99130685  0.67394903  1  -0.019575  0  -0.002333  -0.087156  0  3.915423  0
C  C79  1  0.34559998  0.98864832  0.61259206  1  1.577801  0  0.237574  0.628484  0  4.153149  0
C  C80  1  0.31773027  0.00487484  0.75391313  1  0.410313  0  0.106683  0.157407  0  3.969027  0
C  C81  1  0.26104781  0.00240869  0.80527419  1  -0.061251  0  -0.076149  -0.172928  0  3.934903  0
C  C82  1  0.44055031  0.97569151  0.75478272  1  0.225129  0  -0.021445  -0.077332  0  3.959642  0
C  C83  1  0.52360744  0.03014585  0.81445610  1  0.01316  0  -0.137025  -0.181205  0  4.103685  0
C  C84  1  0.53758350  0.12129921  0.88820152  1  -0.062234  0  -0.136843  -0.18418  0  4.127695  0
C  C85  1  0.46238812  0.11966191  0.87174814  1  0.28847  0  -0.027521  -0.10216  0  4.000622  0
C  C86  1  0.84697136  0.98127502  0.11113025  1  1.566858  0  0.2302  0.60976  0  4.147982  0
C  C87  1  0.79110996  0.98118217  0.17033876  1  -0.008601  0  -0.013032  -0.016516  0  3.995211  0
C  C88  1  0.72164066  0.99226367  0.15935960  1  0.015374  0  -0.080568  -0.099026  0  3.977974  0
C  C89  1  0.67250466  0.99572914  0.21715933  1  -0.001479  0  -0.077255  -0.085801  0  3.98588  0
C  C90  1  0.68894386  0.98451536  0.28419373  1  -0.025984  0  -0.002512  -0.089344  0  3.911312  0
C  C91  1  0.62946673  0.98610972  0.34030256  1  1.598557  0  0.238199  0.628997  0  4.151999  0
C  C92  1  0.75651437  0.96900001  0.29294338  1  0.371725  0  0.108815  0.160076  0  3.970458  0
C  C93  1  0.80864747  0.97064835  0.23714756  1  -0.029286  0  -0.077896  -0.175818  0  3.932965  0
C  C94  1  0.78507689  0.99326929  0.43974007  1  0.291955  0  -0.022101  -0.081206  0  3.958784  0
C  C95  1  0.79481454  0.93890321  0.46654673  1  0.001711  0  -0.134863  -0.17861  0  4.10518  0
C  C96  1  0.78487179  0.85182214  0.39110683  1  0.005852  0  -0.133679  -0.178974  0  4.125829  0
C  C97  1  0.77011831  0.85589759  0.32035685  1  0.225268  0  -0.025602  -0.099071  0  3.99263  0
C  C98  1  0.84597637  0.71186923  0.83660208  1  1.564704  0  0.23082  0.611555  0  4.146612  0
C  C99  1  0.78740183  0.59706323  0.77580766  1  0.012411  0  -0.013622  -0.016621  0  3.992851  0
C  C100  1  0.71419572  0.53808245  0.79427753  1  -0.079909  0  -0.081517  -0.09872  0  3.98135  0
C  C101  1  0.66246193  0.43118852  0.73771227  1  0.038999  0  -0.080147  -0.091665  0  3.990004  0
C  C102  1  0.68028231  0.38127793  0.66102611  1  -0.007032  0  -0.002381  -0.085639  0  3.911513  0
C  C103  1  0.62154472  0.26580722  0.60631746  1  1.578468  0  0.238679  0.629883  0  4.147551  0
C  C104  1  0.75122433  0.44103791  0.64006094  1  0.3575  0  0.109775  0.158209  0  3.972374  0
C  C105  1  0.80550761  0.54837057  0.69942276  1  0.027864  0  -0.077149  -0.175153  0  3.935389  0
C  C106  1  0.78183823  0.32403360  0.51719423  1  0.280077  0  -0.022814  -0.083776  0  3.963861  0
C  C107  1  0.79504612  0.31281916  0.43988625  1  -0.03765  0  -0.133243  -0.176471  0  4.101542  0
C  C108  1  0.78716465  0.38376396  0.43313228  1  0.004828  0  -0.13047  -0.173579  0  4.110932  0
C  C109  1  0.77012204  0.43700595  0.50689105  1  0.254991  0  -0.021469  -0.09262  0  3.984835  0
C  C110  1  0.12494028  0.98658026  0.10544562  1  1.558433  0  0.231177  0.612019  0  4.148712  0
C  C111  1  0.18386842  0.98790696  0.16300980  1  0.034043  0  -0.012802  -0.017888  0  3.996635  0
C  C112  1  0.16056728  0.89641165  0.15266504  1  -0.036811  0  -0.080165  -0.095789  0  3.980048  0
C  C113  1  0.21484441  0.90047557  0.20966570  1  -0.046041  0  -0.079834  -0.091721  0  3.992623  0
C  C114  1  0.29405450  0.99424338  0.27530820  1  0.004553  0  -0.002923  -0.084518  0  3.918357  0
C  C115  1  0.34892264  0.99126313  0.33309165  1  1.556628  0  0.238384  0.631776  0  4.150471  0
C  C116  1  0.31975128  0.08561504  0.28282553  1  0.388579  0  0.107634  0.157978  0  3.980766  0
C  C117  1  0.26286616  0.08171248  0.22797202  1  -0.007652  0  -0.075501  -0.169447  0  3.935258  0
C  C118  1  0.44243167  0.23883117  0.42832303  1  0.332585  0  -0.021541  -0.07903  0  3.960894  0
C  C119  1  0.52619720  0.32545959  0.45242614  1  -0.033601  0  -0.133899  -0.175944  0  4.099487  0
C  C120  1  0.54076209  0.31995430  0.37462299  1  0.00989  0  -0.133376  -0.178239  0  4.120161  0
C  C121  1  0.46513056  0.23044093  0.30502983  1  0.208432  0  -0.026784  -0.101012  0  3.992797  0
N  N122  1  0.61249446  0.78852034  0.55744467  1  -1.251416  0  -0.243714  0.014129  0  3.801994  0
N  N123  1  0.15470087  0.57843819  0.34102475  1  -1.253565  0  -0.244992  0.012115  0  3.81156  0
N  N124  1  0.40323380  0.03088249  0.78952184  1  -1.268502  0  -0.24402  0.01411  0  3.805223  0
N  N125  1  0.76927000  0.94209948  0.34991114  1  -1.252779  0  -0.243577  0.016552  0  3.805878  0
N  N126  1  0.76587479  0.39974152  0.55813937  1  -1.259834  0  -0.243227  0.016939  0  3.803014  0
N  N127  1  0.40520092  0.18019984  0.33787450  1  -1.282627  0  -0.245795  0.011166  0  3.818125  0
O  O128  1  0.98290285  0.98634151  0.97171502  1  -1.210348  0  -0.57968  -1.043785  0  2.569464  0
O  O129  1  0.80642783  0.90680096  0.84090104  1  -1.167363  0  -0.313627  -0.543486  0  2.304228  0
O  O130  1  0.92320369  0.06671986  0.88052223  1  -1.173005  0  -0.316636  -0.551569  0  2.300898  0
O  O131  1  0.66240336  0.04565888  0.58883273  1  -1.157457  0  -0.306854  -0.538749  0  2.320538  0
O  O132  1  0.53446898  0.91953935  0.58574027  1  -1.175659  0  -0.30069  -0.542011  0  2.390211  0
O  O133  1  0.07255326  0.21435427  0.14178050  1  -1.169754  0  -0.314788  -0.543801  0  2.302748  0
O  O134  1  0.11882975  0.21987608  0.02860807  1  -1.169903  0  -0.314371  -0.548555  0  2.29767  0
O  O135  1  0.36115831  0.75297939  0.29460460  1  -1.174311  0  -0.309205  -0.540492  0  2.310668  0
O  O136  1  0.36450239  0.74991330  0.41635485  1  -1.159069  0  -0.300502  -0.538447  0  2.375628  0
O  O137  1  0.12310714  0.95435586  0.88126548  1  -1.168164  0  -0.314958  -0.545386  0  2.301441  0
O  O138  1  0.07883894  0.02846747  0.83820475  1  -1.167832  0  -0.315009  -0.548994  0  2.297407  0
O  O139  1  0.36935920  0.05411448  0.59336120  1  -1.150191  0  -0.309769  -0.539692  0  2.302239  0
O  O140  1  0.36017744  0.91913246  0.58285983  1  -1.170641  0  -0.301806  -0.54191  0  2.381614  0
O  O141  1  0.92846668  0.01622999  0.14353677  1  -1.174895  0  -0.315417  -0.545254  0  2.30218  0
O  O142  1  0.80886008  0.94671918  0.03296249  1  -1.165239  0  -0.314311  -0.5469  0  2.300764  0
O  O143  1  0.54520556  0.92046820  0.29921282  1  -1.16654  0  -0.308804  -0.538812  0  2.313724  0
O  O144  1  0.66716411  0.05445707  0.42246843  1  -1.170789  0  -0.299944  -0.539551  0  2.374124  0
O  O145  1  0.92756266  0.75725493  0.83748792  1  -1.175447  0  -0.3144  -0.544434  0  2.303154  0
O  O146  1  0.80970146  0.75521771  0.88239635  1  -1.171196  0  -0.315987  -0.550049  0  2.301671  0
O  O147  1  0.53696061  0.22282794  0.58215823  1  -1.169907  0  -0.30448  -0.537435  0  2.321967  0
O  O148  1  0.66121291  0.22108570  0.59261457  1  -1.172887  0  -0.305648  -0.544493  0  2.360576  0
O  O149  1  0.12511052  0.06726452  0.13906245  1  -1.17014  0  -0.315752  -0.546833  0  2.305546  0
O  O150  1  0.07924411  0.90533532  0.02748210  1  -1.173362  0  -0.315374  -0.547976  0  2.298386  0
O  O151  1  0.37721638  0.93516854  0.29435053  1  -1.15117  0  -0.308681  -0.537088  0  2.303322  0
O  O152  1  0.35938811  0.04160474  0.41467350  1  -1.161352  0  -0.306143  -0.545846  0  2.346825  0
O  O153  1  0.48287956  0.98738004  0.47140343  1  -1.217454  0  -0.572208  -1.028488  0  2.539674  0
