# generated using pymatgen
data_Cu2H27C36N2O11
_symmetry_space_group_name_H-M   'P 1'
_cell_length_a   15.88514244
_cell_length_b   18.11950007
_cell_length_c   19.82007072
_cell_angle_alpha   93.91631024
_cell_angle_beta   113.62004033
_cell_angle_gamma   115.99026098
_symmetry_Int_Tables_number   1
_chemical_formula_structural   Cu2H27C36N2O11
_chemical_formula_sum   'Cu8 H108 C144 N8 O44'
_cell_volume   4487.56301775
_cell_formula_units_Z   4
loop_
 _symmetry_equiv_pos_site_id
 _symmetry_equiv_pos_as_xyz
  1  'x, y, z'
loop_
 _atom_site_type_symbol
 _atom_site_label
 _atom_site_symmetry_multiplicity
 _atom_site_fract_x
 _atom_site_fract_y
 _atom_site_fract_z
 _atom_site_occupancy
 _atom_site_pbe_bader_charge
 _atom_site_pbe_bader_spin_density
 _atom_site_pbe_cm5_charge
 _atom_site_pbe_ddec_charge
 _atom_site_pbe_ddec_spin_density
 _atom_site_pbe_ddec_sum_bond_order
 _atom_site_pbe_magmom
Cu  Cu0  1  0.48697594  0.94885074  0.54115048  1  1.082997  0.586294  0.690728  0.767032  0.741202  2.395285  0.587
Cu  Cu1  1  0.49702018  0.55117991  0.95893012  1  1.081295  0.586154  0.690416  0.766403  0.740899  2.396165  0.587
Cu  Cu2  1  0.51303309  0.05115671  0.45885019  1  1.084016  0.586334  0.690708  0.766958  0.741209  2.395349  0.587
Cu  Cu3  1  0.50297712  0.44881983  0.04106937  1  1.079742  0.586096  0.690409  0.766373  0.7409  2.396203  0.587
Cu  Cu4  1  0.93571520  0.42877259  0.44678513  1  1.101342  0.584066  0.682296  0.833731  0.73967  2.288159  0.585
Cu  Cu5  1  0.56002319  0.07122875  0.05323885  1  1.101383  0.5842  0.682722  0.834286  0.739829  2.289159  0.585
Cu  Cu6  1  0.06429018  0.57122907  0.55321604  1  1.101835  0.584081  0.682271  0.833716  0.739672  2.288206  0.585
Cu  Cu7  1  0.43997015  0.92876905  0.94676027  1  1.101947  0.584214  0.682674  0.834218  0.739815  2.289156  0.585
H  H8  1  0.62749498  0.83656022  0.24047972  1  0.076742  0.00023  0.10238  0.117346  8.9e-05  1.040976  0.0
H  H9  1  0.05050356  0.66352606  0.25952997  1  0.083667  0.000231  0.1021  0.116937  8.9e-05  1.041277  0.0
H  H10  1  0.37250619  0.16343694  0.75951982  1  0.07667  0.00023  0.102385  0.117359  8.9e-05  1.040942  0.0
H  H11  1  0.94949813  0.33647303  0.74046784  1  0.08391  0.000231  0.102104  0.116979  8.9e-05  1.041264  0.0
H  H12  1  0.93911932  0.74470081  0.36654593  1  0.106051  0.00022  0.102811  0.120091  9.2e-05  1.034869  0.0
H  H13  1  0.32775903  0.75536379  0.13335019  1  0.103746  0.00022  0.102498  0.119575  9.2e-05  1.034639  0.0
H  H14  1  0.06088700  0.25530342  0.63345570  1  0.106057  0.000221  0.102831  0.120168  9.2e-05  1.034753  0.0
H  H15  1  0.67223098  0.24463207  0.86664169  1  0.103547  0.00022  0.102509  0.11956  9.2e-05  1.034596  0.0
H  H16  1  0.57186078  0.92372530  0.29656521  1  0.094019  0.000383  0.106184  0.107766  0.000296  1.008482  0.0
H  H17  1  0.85167410  0.57639670  0.20348807  1  0.091858  0.000379  0.106213  0.107821  0.000295  1.008671  0.0
H  H18  1  0.42814666  0.07627636  0.70343560  1  0.093908  0.000383  0.106187  0.107779  0.000296  1.008399  0.0
H  H19  1  0.14832706  0.42360368  0.79651420  1  0.091815  0.000379  0.106234  0.107873  0.000295  1.008649  0.0
H  H20  1  0.00118874  0.93198878  0.24360013  1  0.076354  0.000215  0.104427  0.11964  0.000109  1.009849  0.0
H  H21  1  0.32605959  0.56848577  0.25674635  1  0.086123  0.000213  0.104337  0.119522  0.000109  1.009894  0.0
H  H22  1  0.99881117  0.06800645  0.75639384  1  0.070341  0.000215  0.104472  0.11968  0.000109  1.009978  0.0
H  H23  1  0.67394031  0.43151590  0.74325409  1  0.086105  0.000213  0.104337  0.119493  0.000109  1.009883  0.0
H  H24  1  0.80306862  0.03055437  0.21604401  1  0.066128  0.000377  0.106847  0.111903  0.000292  1.00069  0.0
H  H25  1  0.05672031  0.46979306  0.28393478  1  0.085671  0.000375  0.106968  0.112538  0.000292  0.999916  0.0
H  H26  1  0.19693456  0.96944600  0.78395436  1  0.066124  0.000377  0.106826  0.111843  0.000292  1.000697  0.0
H  H27  1  0.94327838  0.53020346  0.71606343  1  0.085663  0.000375  0.106978  0.112577  0.000292  1.000005  0.0
H  H28  1  0.19382917  0.97947553  0.31251095  1  0.087096  0.000263  0.103762  0.103754  0.000209  1.011556  0.0
H  H29  1  0.40194625  0.52067147  0.18764234  1  0.084092  0.000262  0.103853  0.103698  0.00021  1.013249  0.0
H  H30  1  0.80617412  0.02052291  0.68748179  1  0.086902  0.000264  0.103756  0.103713  0.000209  1.01164  0.0
H  H31  1  0.59805831  0.47933212  0.81236020  1  0.083874  0.000263  0.10387  0.103741  0.000209  1.013194  0.0
H  H32  1  0.88383487  0.69349712  0.49340300  1  0.09446  0.000292  0.10507  0.110262  0.000232  0.998004  0.0
H  H33  1  0.19698006  0.80659913  0.00654816  1  0.096939  0.000284  0.10535  0.110733  0.00023  0.997529  0.0
H  H34  1  0.11616123  0.30650069  0.50659800  1  0.094489  0.000292  0.105061  0.110248  0.000232  0.998016  0.0
H  H35  1  0.80301540  0.19340639  0.99345111  1  0.096952  0.000284  0.105373  0.110805  0.00023  0.997502  0.0
H  H36  1  0.78356912  0.76505365  0.43013417  1  0.081094  0.000198  0.106386  0.122019  9.7e-05  0.996474  0.0
H  H37  1  0.08833677  0.73511466  0.06981154  1  0.076418  0.0002  0.106468  0.122724  9.7e-05  0.996776  0.0
H  H38  1  0.21642642  0.23494222  0.56986401  1  0.081064  0.000198  0.10633  0.121943  9.7e-05  0.996539  0.0
H  H39  1  0.91166023  0.26488893  0.93018961  1  0.075991  0.0002  0.106444  0.122681  9.7e-05  0.996711  0.0
H  H40  1  0.57840023  0.77910283  0.05215126  1  0.096865  0.00038  0.105586  0.110492  0.000333  1.025244  0.0
H  H41  1  0.24698036  0.72123859  0.44784333  1  0.108915  0.00038  0.10589  0.111292  0.000334  1.024649  0.0
H  H42  1  0.42159641  0.22089369  0.94784731  1  0.096909  0.00038  0.105617  0.110509  0.000333  1.025248  0.0
H  H43  1  0.75301835  0.27875793  0.55215640  1  0.108743  0.00038  0.105877  0.111273  0.000334  1.024709  0.0
H  H44  1  0.52879290  0.76633025  0.44594472  1  0.114673  0.000298  0.107574  0.11645  0.000259  0.991041  0.0
H  H45  1  0.81663721  0.73389059  0.05420972  1  0.096457  0.000307  0.107959  0.117216  0.000259  0.990983  0.0
H  H46  1  0.47120657  0.23367077  0.55405402  1  0.114705  0.000298  0.107572  0.116427  0.000259  0.991014  0.0
H  H47  1  0.18336066  0.26610786  0.94579088  1  0.096579  0.000306  0.107981  0.11723  0.000259  0.990932  0.0
H  H48  1  0.68280095  0.72087076  0.13450095  1  0.111912  0.000169  0.109949  0.135431  5.1e-05  1.014444  0.0
H  H49  1  0.32743128  0.77953188  0.36556726  1  0.114484  0.000169  0.110135  0.135524  5e-05  1.014786  0.0
H  H50  1  0.31719691  0.27912446  0.86549338  1  0.111989  0.000169  0.109988  0.135511  5.1e-05  1.014424  0.0
H  H51  1  0.67256728  0.22046657  0.63443355  1  0.114449  0.000169  0.110128  0.135567  5e-05  1.014783  0.0
H  H52  1  0.61370806  0.56595591  0.21551824  1  0.156587  0.000163  0.106694  0.135442  7.6e-05  1.038422  0.0
H  H53  1  0.33222100  0.93410775  0.28446321  1  0.155375  0.000166  0.106457  0.13517  7.7e-05  1.038757  0.0
H  H54  1  0.38628151  0.43403483  0.78448024  1  0.156574  0.000163  0.10667  0.135413  7.6e-05  1.038486  0.0
H  H55  1  0.66778152  0.06589263  0.71553898  1  0.155187  0.000166  0.106504  0.135224  7.7e-05  1.038762  0.0
H  H56  1  0.90846872  0.97219672  0.29968523  1  0.050074  0.00023  0.105707  0.119852  0.000116  0.99741  0.0
H  H57  1  0.13700584  0.52821896  0.20039614  1  0.087444  0.000224  0.106045  0.120771  0.000116  0.995886  0.0
H  H58  1  0.09152966  0.02779721  0.70030464  1  0.05076  0.00023  0.105709  0.119894  0.000116  0.997274  0.0
H  H59  1  0.86298938  0.47178077  0.79960067  1  0.087501  0.000224  0.105998  0.120653  0.000116  0.995869  0.0
H  H60  1  0.71293854  0.49358198  0.28008650  1  0.082023  0.000333  0.103765  0.105507  0.000264  1.016349  0.0
H  H61  1  0.43945094  0.00631358  0.21996253  1  0.068551  0.000347  0.104175  0.106071  0.000266  1.015164  0.0
H  H62  1  0.28705472  0.50641133  0.71991433  1  0.081916  0.000333  0.103717  0.105411  0.000265  1.016416  0.0
H  H63  1  0.56054715  0.99369066  0.78003850  1  0.068526  0.000347  0.104221  0.106123  0.000266  1.01514  0.0
H  H64  1  0.66958617  0.82857511  0.74638365  1  0.088191  -3.5e-05  0.108749  0.114523  -2.8e-05  0.994162  0.0
H  H65  1  0.59487527  0.67141982  0.75378210  1  0.085308  -3.5e-05  0.1084  0.113677  -2.8e-05  0.994879  0.0
H  H66  1  0.33042047  0.17142527  0.25361885  1  0.088335  -3.5e-05  0.108753  0.114512  -2.8e-05  0.994133  0.0
H  H67  1  0.40513588  0.32859086  0.24623207  1  0.084911  -3.5e-05  0.108423  0.113735  -2.8e-05  0.994797  0.0
H  H68  1  0.13347782  0.79267883  0.43509219  1  0.086208  0.000394  0.105316  0.105499  0.000308  1.011584  0.0
H  H69  1  0.40541663  0.70717116  0.06473861  1  0.074965  0.000398  0.105336  0.106345  0.00031  1.010883  0.0
H  H70  1  0.86652713  0.20732541  0.56490951  1  0.086221  0.000394  0.1053  0.105469  0.000308  1.011582  0.0
H  H71  1  0.59457751  0.29282471  0.93525610  1  0.074958  0.000398  0.105351  0.106387  0.00031  1.010884  0.0
H  H72  1  0.58184084  0.67786255  0.38928159  1  0.070448  0.00022  0.106559  0.121078  0.000114  0.996467  0.0
H  H73  1  0.01473970  0.82234923  0.11084339  1  0.062895  0.000222  0.1069  0.122032  0.000113  0.995351  0.0
H  H74  1  0.41815277  0.32213461  0.61071605  1  0.070676  0.00022  0.106615  0.121142  0.000114  0.996528  0.0
H  H75  1  0.98525771  0.17765178  0.88915369  1  0.06298  0.000222  0.106881  0.121976  0.000113  0.995434  0.0
H  H76  1  0.64814245  0.90686748  0.64652309  1  0.12455  -7.1e-05  0.1148  0.085935  -5.2e-05  1.021244  0.0
H  H77  1  0.59503920  0.59318076  0.85367508  1  0.07825  -7.4e-05  0.114581  0.085854  -5.1e-05  1.021643  0.0
H  H78  1  0.35186295  0.09313418  0.35347960  1  0.124448  -7.1e-05  0.114812  0.085965  -5.2e-05  1.021241  0.0
H  H79  1  0.40495786  0.40681963  0.14632891  1  0.07814  -7.4e-05  0.114562  0.08584  -5.1e-05  1.021565  0.0
H  H80  1  0.32850998  0.80777891  0.57912725  1  0.117753  -3.6e-05  0.118823  0.089013  -3.4e-05  1.004358  0.0
H  H81  1  0.44159384  0.69209993  0.92091630  1  0.092756  -3.8e-05  0.11864  0.08797  -3.5e-05  1.00433  0.0
H  H82  1  0.67149666  0.19222469  0.42087898  1  0.117953  -3.6e-05  0.118816  0.088971  -3.4e-05  1.004348  0.0
H  H83  1  0.55839421  0.30789274  0.07908384  1  0.092868  -3.8e-05  0.118597  0.088043  -3.5e-05  1.00435  0.0
H  H84  1  0.90932518  0.25473299  0.45346979  1  0.083608  -5.1e-05  0.117476  0.046277  -3.4e-05  1.020722  0.0
H  H85  1  0.70104280  0.24538219  0.04677566  1  0.096086  -5e-05  0.11774  0.047021  -3.3e-05  1.020144  0.0
H  H86  1  0.09067833  0.74526353  0.54653096  1  0.083666  -5.1e-05  0.1175  0.046331  -3.4e-05  1.02075  0.0
H  H87  1  0.29895645  0.75461626  0.95322537  1  0.096059  -5e-05  0.117745  0.047032  -3.3e-05  1.020075  0.0
H  H88  1  0.33401373  0.72479108  0.67452307  1  0.157336  -3.9e-05  0.114504  0.132708  -3e-05  1.021961  0.0
H  H89  1  0.43456933  0.77496691  0.82542139  1  0.119007  -3.9e-05  0.114529  0.132455  -3e-05  1.022751  0.0
H  H90  1  0.66599698  0.27522217  0.32548961  1  0.157239  -3.9e-05  0.11452  0.132795  -3e-05  1.021846  0.0
H  H91  1  0.56542661  0.22503605  0.17458393  1  0.119104  -3.9e-05  0.114567  0.132538  -3e-05  1.022769  0.0
H  H92  1  0.87117149  0.12591339  0.45552421  1  0.05629  4e-06  0.104402  0.113765  -6e-06  1.017179  0.0
H  H93  1  0.78945904  0.37430428  0.04481964  1  0.060356  4e-06  0.104969  0.114683  -6e-06  1.017131  0.0
H  H94  1  0.12882774  0.87408506  0.54447429  1  0.056336  4e-06  0.104413  0.113776  -6e-06  1.017189  0.0
H  H95  1  0.21053939  0.62569288  0.95518054  1  0.060365  4e-06  0.104985  0.114672  -6e-06  1.017105  0.0
H  H96  1  0.73015251  0.05389682  0.40798879  1  0.093563  -2.4e-05  0.104154  0.127976  -2e-05  1.002305  0.0
H  H97  1  0.76792050  0.44620020  0.09246127  1  0.072805  -2.2e-05  0.10367  0.12759  -1.8e-05  1.00302  0.0
H  H98  1  0.26984780  0.94610227  0.59200960  1  0.093521  -2.4e-05  0.104152  0.127985  -2e-05  1.002284  0.0
H  H99  1  0.23207736  0.55379824  0.90753781  1  0.072744  -2.2e-05  0.103662  0.127553  -1.8e-05  1.003085  0.0
H  H100  1  0.80731462  0.04642864  0.36535618  1  0.047345  -9e-06  0.100696  0.114064  -1.5e-05  0.995423  0.0
H  H101  1  0.89518522  0.45369036  0.13501847  1  0.054722  -9e-06  0.100674  0.114436  -1.5e-05  0.995427  0.0
H  H102  1  0.19268501  0.95357044  0.63464250  1  0.047391  -9e-06  0.100682  0.114083  -1.5e-05  0.995361  0.0
H  H103  1  0.10481349  0.54630616  0.86498126  1  0.054714  -9e-06  0.100672  0.114427  -1.5e-05  0.995346  0.0
H  H104  1  0.69778938  0.16896104  0.25514397  1  0.1298  -2.5e-05  0.111754  0.137603  -1.4e-05  1.024897  0.0
H  H105  1  0.77348672  0.33085461  0.24512375  1  0.120075  -2.5e-05  0.111316  0.137147  -1.4e-05  1.024868  0.0
H  H106  1  0.30220934  0.83103549  0.74485778  1  0.129912  -2.5e-05  0.111794  0.137704  -1.4e-05  1.024928  0.0
H  H107  1  0.22651412  0.66914962  0.75487815  1  0.120042  -2.5e-05  0.111316  0.137183  -1.4e-05  1.024812  0.0
H  H108  1  0.70209121  0.07275014  0.24421233  1  0.089061  4e-06  0.102267  0.125054  3.8e-05  1.019796  0.0
H  H109  1  0.88494610  0.42706843  0.25611454  1  0.105907  0.0  0.101997  0.124265  3.6e-05  1.018704  0.0
H  H110  1  0.29790612  0.92724637  0.75578595  1  0.088999  4e-06  0.10226  0.125056  3.8e-05  1.019786  0.0
H  H111  1  0.11505487  0.57293386  0.74388375  1  0.105913  0.0  0.102007  0.124311  3.6e-05  1.018694  0.0
H  H112  1  0.61961921  0.08103177  0.28068011  1  0.039477  6.5e-05  0.099358  0.109041  4.1e-05  1.014981  0.0
H  H113  1  0.75784349  0.41891458  0.21985377  1  0.045236  6.7e-05  0.099401  0.109009  4.2e-05  1.015255  0.0
H  H114  1  0.38038073  0.91896669  0.71932266  1  0.039527  6.5e-05  0.099353  0.10906  4.1e-05  1.014983  0.0
H  H115  1  0.24215514  0.58108836  0.78014382  1  0.045356  6.7e-05  0.099385  0.108999  4.2e-05  1.01529  0.0
C  C116  1  0.29324070  0.92183897  0.42134515  1  1.521718  -0.000773  0.213334  0.575741  -0.001212  4.161211  -0.004
C  C117  1  0.45001746  0.57820956  0.07868296  1  1.520574  -0.000892  0.21364  0.575093  -0.001202  4.159694  -0.004
C  C118  1  0.70676643  0.07816655  0.57865631  1  1.521244  -0.000775  0.213234  0.575744  -0.001212  4.161083  -0.004
C  C119  1  0.54998104  0.42179209  0.92131501  1  1.520807  -0.000892  0.213668  0.575136  -0.001202  4.159662  -0.004
C  C120  1  0.52388687  0.90589531  0.41455593  1  1.528046  -0.000984  0.209343  0.565855  -0.001267  4.176889  -0.004
C  C121  1  0.70350058  0.59412155  0.08546809  1  1.501264  -0.000738  0.209869  0.566574  -0.001289  4.172541  -0.004
C  C122  1  0.47611973  0.09410828  0.58544625  1  1.528337  -0.000982  0.209387  0.566013  -0.001268  4.176768  -0.004
C  C123  1  0.29650141  0.40587690  0.91453331  1  1.501256  -0.000738  0.209886  0.566653  -0.00129  4.172344  -0.004
C  C124  1  0.54987893  0.85180039  0.37625410  1  -0.041916  0.015536  -0.029147  -0.059536  0.010936  3.994456  0.012
C  C125  1  0.82188789  0.64829137  0.12378329  1  0.014028  0.015312  -0.028238  -0.058846  0.010949  3.990457  0.012
C  C126  1  0.45013027  0.14820513  0.62374954  1  -0.042296  0.015536  -0.029222  -0.059612  0.010937  3.994326  0.012
C  C127  1  0.17811395  0.35170901  0.87621869  1  0.01406  0.015312  -0.028256  -0.058937  0.010949  3.990499  0.012
C  C128  1  0.87076349  0.55102248  0.42923115  1  1.541458  -0.001432  0.210665  0.574904  -0.001801  4.172277  -0.004
C  C129  1  0.39062986  0.94892852  0.07082463  1  1.53956  -0.001376  0.210646  0.574795  -0.001798  4.170972  -0.004
C  C130  1  0.12923643  0.44897596  0.57076808  1  1.541672  -0.001433  0.210641  0.574833  -0.001801  4.172231  -0.004
C  C131  1  0.60936778  0.05107828  0.92917542  1  1.539426  -0.001376  0.210714  0.575127  -0.001799  4.170641  -0.004
C  C132  1  0.60706643  0.82263784  0.28619944  1  0.059213  0.00096  -0.100483  -0.198077  0.000535  3.978768  0.001
C  C133  1  0.99828680  0.67749155  0.21386595  1  0.014013  0.000962  -0.100381  -0.197237  0.000537  3.97813  0.001
C  C134  1  0.39293608  0.17736253  0.71380124  1  0.059229  0.00096  -0.100488  -0.198096  0.000535  3.978918  0.001
C  C135  1  0.00171255  0.32250817  0.78613217  1  0.013768  0.000962  -0.100405  -0.197291  0.000537  3.978194  0.001
C  C136  1  0.99636108  0.79745298  0.35665057  1  0.039375  0.000932  -0.103441  -0.203023  0.000534  3.981876  0.001
C  C137  1  0.34223336  0.70265567  0.14332501  1  -0.03703  0.000939  -0.102464  -0.200862  0.000532  3.981096  0.001
C  C138  1  0.00364306  0.20254675  0.64334705  1  0.039662  0.000932  -0.103377  -0.203083  0.000534  3.981894  0.001
C  C139  1  0.65775379  0.29733891  0.85666739  1  -0.037274  0.000939  -0.10251  -0.200863  0.000532  3.981045  0.001
C  C140  1  0.68376091  0.90879051  0.12874957  1  -0.032283  0.016363  -0.025829  -0.052699  0.011459  3.981791  0.013
C  C141  1  0.14617537  0.59153886  0.37120104  1  -0.065615  0.016394  -0.025443  -0.051214  0.011461  3.980096  0.013
C  C142  1  0.31623666  0.09120857  0.87124845  1  -0.032087  0.016365  -0.02588  -0.052849  0.011461  3.981675  0.013
C  C143  1  0.85382441  0.40845830  0.62879706  1  -0.06556  0.016395  -0.025472  -0.051334  0.011462  3.980178  0.013
C  C144  1  0.57591265  0.87068222  0.31742557  1  -0.036544  0.000645  -0.079969  -0.065697  0.000237  3.976798  0.001
C  C145  1  0.88788989  0.62943178  0.18262134  1  -0.021306  0.00064  -0.080373  -0.065724  0.000243  3.97937  0.001
C  C146  1  0.42409148  0.12932072  0.68257477  1  -0.035818  0.000645  -0.079996  -0.065724  0.000237  3.976738  0.001
C  C147  1  0.11211138  0.37056989  0.81738054  1  -0.021224  0.00064  -0.080406  -0.06577  0.000243  3.979439  0.001
C  C148  1  0.50375539  0.77173380  0.71985497  1  -0.049879  -0.000596  0.013956  0.1089  -0.000656  3.992173  0.0
C  C149  1  0.51212273  0.72805298  0.78014528  1  -0.037928  -0.000596  0.013192  0.108346  -0.000659  3.990979  0.0
C  C150  1  0.49625151  0.22827237  0.28015251  1  -0.049728  -0.000596  0.013881  0.108865  -0.000657  3.992232  0.0
C  C151  1  0.48788046  0.27195384  0.21986259  1  -0.037574  -0.000596  0.013128  0.108172  -0.000659  3.991305  0.0
C  C152  1  0.61803686  0.94294185  0.08036425  1  1.546384  -0.001771  0.210374  0.574308  -0.00214  4.171477  -0.004
C  C153  1  0.09470749  0.55734627  0.41958003  1  1.554916  -0.001764  0.210287  0.574728  -0.002141  4.170827  -0.004
C  C154  1  0.38196182  0.05705789  0.91963567  1  1.546226  -0.001771  0.210451  0.574464  -0.00214  4.171101  -0.004
C  C155  1  0.90529917  0.44265089  0.58042025  1  1.555148  -0.001763  0.210276  0.574576  -0.00214  4.170998  -0.004
C  C156  1  0.03034249  0.90308480  0.28700645  1  -0.016722  0.000816  -0.110625  -0.226582  0.000453  4.028639  0.001
C  C157  1  0.34055140  0.59725083  0.21323202  1  -0.011337  0.000811  -0.109523  -0.2253  0.000452  4.027503  0.001
C  C158  1  0.96966073  0.09690914  0.71298799  1  -0.01874  0.000815  -0.110771  -0.226829  0.000453  4.028958  0.001
C  C159  1  0.65944821  0.40275147  0.78676836  1  -0.011328  0.000811  -0.109537  -0.225277  0.000452  4.027573  0.001
C  C160  1  0.77739877  0.96269737  0.19851594  1  0.001191  0.000536  -0.085919  -0.082218  0.000184  4.000419  0.0
C  C161  1  0.11634453  0.53766959  0.30146581  1  -0.036603  0.00054  -0.086081  -0.083481  0.000176  4.001677  0.0
C  C162  1  0.22259959  0.03730300  0.80147938  1  0.001103  0.000536  -0.085848  -0.081981  0.000183  4.000366  0.0
C  C163  1  0.88365522  0.46233079  0.69853247  1  -0.036585  0.00054  -0.08611  -0.083527  0.000177  4.001726  0.0
C  C164  1  0.13819394  0.92932296  0.32555497  1  0.002469  0.000581  -0.083123  -0.060812  0.000186  3.993042  0.001
C  C165  1  0.38338195  0.57080985  0.17456461  1  -0.079417  0.000628  -0.083385  -0.061079  0.00018  3.993785  0.001
C  C166  1  0.86181050  0.07067291  0.67443998  1  0.003076  0.00058  -0.083089  -0.060693  0.000186  3.993037  0.001
C  C167  1  0.61662083  0.42919310  0.82543783  1  -0.079574  0.000629  -0.083354  -0.061132  0.00018  3.993776  0.001
C  C168  1  0.82358813  0.66542073  0.43277595  1  -0.056438  0.00103  -0.086413  -0.078322  0.000553  4.006863  0.001
C  C169  1  0.22544393  0.83465518  0.06720012  1  -0.085547  0.001069  -0.086807  -0.079094  0.000558  4.008699  0.001
C  C170  1  0.17641055  0.33457900  0.56722448  1  -0.056339  0.001029  -0.086435  -0.078331  0.000553  4.006922  0.001
C  C171  1  0.77455334  0.16534777  0.93280006  1  -0.085817  0.001069  -0.086914  -0.079217  0.000558  4.009038  0.001
C  C172  1  0.69214976  0.66850770  0.31922940  1  0.419772  -0.000414  0.089836  0.267631  -0.000525  4.031921  0.0
C  C173  1  0.20435976  0.83161096  0.18073105  1  0.408595  -0.000399  0.090388  0.270282  -0.000511  4.032814  0.0
C  C174  1  0.30784703  0.33148689  0.68076758  1  0.420517  -0.000415  0.089773  0.26766  -0.000526  4.032031  0.0
C  C175  1  0.79564257  0.16839456  0.81926990  1  0.408978  -0.0004  0.090354  0.270244  -0.000512  4.0326  0.0
C  C176  1  0.61140014  0.75461336  0.31367202  1  0.368867  -0.001097  0.091573  0.269888  -0.001288  4.024962  -0.001
C  C177  1  0.04317187  0.74553031  0.18639399  1  0.434768  -0.001088  0.092332  0.270937  -0.00128  4.027839  -0.001
C  C178  1  0.38859704  0.24538509  0.68632785  1  0.369156  -0.001097  0.091499  0.269805  -0.001288  4.025203  -0.001
C  C179  1  0.95682748  0.25446942  0.81360413  1  0.434842  -0.001088  0.092373  0.270903  -0.00128  4.027702  -0.001
C  C180  1  0.80226808  0.84294051  0.22113922  1  0.363323  -0.000987  0.088304  0.260296  -0.001159  4.036697  -0.001
C  C181  1  0.23837236  0.65748203  0.27895290  1  0.343274  -0.000997  0.088926  0.2611  -0.00117  4.032338  -0.001
C  C182  1  0.19773425  0.15705857  0.77885477  1  0.363041  -0.000988  0.088297  0.260305  -0.001159  4.036521  -0.001
C  C183  1  0.76162481  0.34251641  0.72104546  1  0.343622  -0.000997  0.088832  0.261001  -0.00117  4.032476  -0.001
C  C184  1  0.76773173  0.70532709  0.39762970  1  -0.032927  0.000849  -0.105379  -0.217625  0.000488  4.026299  0.001
C  C185  1  0.16475396  0.79481928  0.10232561  1  -0.052228  0.000851  -0.105777  -0.220013  0.00049  4.030434  0.001
C  C186  1  0.23225933  0.29466493  0.60236833  1  -0.033434  0.00085  -0.105313  -0.217574  0.000488  4.026296  0.001
C  C187  1  0.83524100  0.20518432  0.89767842  1  -0.051441  0.000851  -0.105719  -0.219906  0.00049  4.03037  0.001
C  C188  1  0.65087604  0.82157446  0.10596756  1  -0.015376  0.000744  -0.078716  -0.06362  0.000322  3.955971  0.001
C  C189  1  0.22322339  0.67878073  0.39402818  1  -0.00221  0.000725  -0.078975  -0.065441  0.000322  3.955325  0.001
C  C190  1  0.34912372  0.17842591  0.89403174  1  -0.015244  0.000744  -0.078697  -0.063502  0.000322  3.955814  0.001
C  C191  1  0.77678040  0.32121515  0.60597212  1  -0.002147  0.000725  -0.078847  -0.065144  0.000322  3.955157  0.001
C  C192  1  0.80481823  0.58913557  0.39085491  1  -0.04996  0.015789  -0.029576  -0.060438  0.011121  3.995762  0.012
C  C193  1  0.32491912  0.91084539  0.10915637  1  0.013739  0.01571  -0.029076  -0.058754  0.011118  3.997067  0.012
C  C194  1  0.19518238  0.41086288  0.60914555  1  -0.05032  0.015791  -0.029571  -0.060426  0.011122  3.995794  0.012
C  C195  1  0.67507390  0.08915627  0.89084189  1  0.013576  0.015707  -0.029054  -0.058924  0.011116  3.997372  0.012
C  C196  1  0.55166423  0.78173009  0.40153056  1  0.002103  0.000594  -0.083111  -0.065722  0.00021  3.984489  0.001
C  C197  1  0.86849942  0.71845532  0.09860150  1  -0.097668  0.000627  -0.083673  -0.067096  0.000209  3.987468  0.001
C  C198  1  0.44834100  0.21827350  0.59847118  1  0.002009  0.000594  -0.083125  -0.065681  0.00021  3.984394  0.001
C  C199  1  0.13149736  0.28154249  0.90139871  1  -0.097724  0.000628  -0.083683  -0.067048  0.000209  3.987371  0.001
C  C200  1  0.70934496  0.78866066  0.15192981  1  -0.003872  0.001037  -0.093618  -0.180333  0.00062  3.961761  0.001
C  C201  1  0.26875458  0.71173381  0.34812213  1  0.032133  0.001031  -0.094244  -0.180478  0.000618  3.958139  0.001
C  C202  1  0.29065233  0.21133585  0.84806493  1  -0.003841  0.001037  -0.093696  -0.180551  0.00062  3.961781  0.001
C  C203  1  0.73124809  0.28826464  0.65187899  1  0.032131  0.001031  -0.094291  -0.180716  0.000619  3.958156  0.001
C  C204  1  0.17699300  0.89109662  0.37996616  1  -0.035009  0.01577  -0.029602  -0.061303  0.011176  3.9928  0.013
C  C205  1  0.40582922  0.60890473  0.12004078  1  0.024144  0.015762  -0.029929  -0.060864  0.011155  3.99299  0.013
C  C206  1  0.82301360  0.10890375  0.62003178  1  -0.035392  0.01577  -0.029669  -0.061465  0.011176  3.99309  0.013
C  C207  1  0.59417055  0.39109565  0.87995903  1  0.024541  0.015762  -0.029934  -0.060757  0.011155  3.992915  0.013
C  C208  1  0.67202571  0.59246738  0.27656846  1  -0.009644  0.001014  -0.10033  -0.195779  0.000631  3.954745  0.001
C  C209  1  0.30296745  0.90759760  0.22340443  1  0.019127  0.00101  -0.100657  -0.196678  0.00063  3.95538  0.001
C  C210  1  0.32796809  0.40752464  0.72342993  1  -0.009747  0.001014  -0.100377  -0.195886  0.000631  3.954748  0.001
C  C211  1  0.69703461  0.09240856  0.77659849  1  0.019045  0.001009  -0.100643  -0.196676  0.00063  3.955261  0.001
C  C212  1  0.83681469  0.93036984  0.24502153  1  0.02649  0.000901  -0.105072  -0.219103  0.000505  4.028867  0.001
C  C213  1  0.16170001  0.57002415  0.25503404  1  -0.002689  0.000902  -0.105496  -0.220044  0.000504  4.028173  0.001
C  C214  1  0.16318955  0.06962794  0.75496894  1  0.02561  0.000901  -0.105072  -0.219264  0.000505  4.028907  0.001
C  C215  1  0.83829661  0.42997236  0.74496200  1  -0.002973  0.000902  -0.105417  -0.219845  0.000504  4.028085  0.001
C  C216  1  0.95933280  0.83730789  0.30322963  1  0.387107  -0.000853  0.09378  0.276819  -0.001018  4.028841  -0.001
C  C217  1  0.31899576  0.66296882  0.19689377  1  0.425252  -0.000865  0.092461  0.274878  -0.001032  4.028488  -0.001
C  C218  1  0.04066736  0.16268990  0.69676510  1  0.394883  -0.000853  0.093773  0.276858  -0.001018  4.028997  -0.001
C  C219  1  0.68100124  0.33703155  0.80310314  1  0.425693  -0.000864  0.092538  0.27498  -0.001032  4.028477  -0.001
C  C220  1  0.72794110  0.55288151  0.31269126  1  -0.020414  0.001048  -0.080082  -0.064771  0.000567  3.973819  0.001
C  C221  1  0.36246900  0.94710480  0.18732868  1  -0.027721  0.001058  -0.080239  -0.064904  0.000575  3.973924  0.001
C  C222  1  0.27205436  0.44711308  0.68731135  1  -0.019907  0.001047  -0.079967  -0.064585  0.000566  3.973681  0.001
C  C223  1  0.63752894  0.05290136  0.81267242  1  -0.027635  0.001057  -0.080286  -0.064942  0.000574  3.973982  0.001
C  C224  1  0.59217769  0.82156602  0.70988704  1  -0.088014  0.000148  -0.086209  -0.186988  7.3e-05  3.970364  0.0
C  C225  1  0.56086310  0.67835619  0.79020601  1  -0.03698  0.000152  -0.08481  -0.185081  7.5e-05  3.971059  0.0
C  C226  1  0.40782825  0.17843758  0.29011695  1  -0.0882  0.000148  -0.086173  -0.18696  7.3e-05  3.970318  0.0
C  C227  1  0.43913778  0.32164805  0.20980045  1  -0.036589  0.000152  -0.084842  -0.185075  7.5e-05  3.9709  0.0
C  C228  1  0.10433987  0.82424539  0.39441967  1  -0.056711  0.000739  -0.081867  -0.068676  0.00033  3.989345  0.001
C  C229  1  0.38552108  0.67573561  0.10551048  1  -0.005904  0.000736  -0.081747  -0.070701  0.000331  3.991424  0.001
C  C230  1  0.89566550  0.17575627  0.60557947  1  -0.056771  0.000739  -0.081786  -0.068479  0.00033  3.989346  0.001
C  C231  1  0.61447459  0.32426155  0.89448681  1  -0.006008  0.000737  -0.081832  -0.070899  0.000331  3.991521  0.001
C  C232  1  0.58162670  0.73281584  0.37031937  1  -0.039669  0.000972  -0.105654  -0.21723  0.000543  4.029978  0.001
C  C233  1  0.97857643  0.76739472  0.12982465  1  0.013731  0.000944  -0.106699  -0.218934  0.000543  4.033231  0.001
C  C234  1  0.41836962  0.26718453  0.62967884  1  -0.039952  0.000972  -0.105717  -0.217312  0.000543  4.029962  0.001
C  C235  1  0.02142172  0.23260309  0.87017498  1  0.013481  0.000944  -0.106673  -0.218842  0.000543  4.033169  0.001
C  C236  1  0.58108690  0.86534840  0.65505322  1  0.486306  -0.000658  0.04428  0.099624  -0.000754  3.968993  0.0
C  C237  1  0.56085978  0.63461723  0.84506902  1  0.519413  -0.000659  0.043741  0.098694  -0.000757  3.967503  0.0
C  C238  1  0.41891781  0.13465327  0.34494975  1  0.4862  -0.000659  0.044257  0.099623  -0.000755  3.968807  0.0
C  C239  1  0.43914274  0.36538637  0.15493640  1  0.519694  -0.000659  0.043749  0.098711  -0.000756  3.967385  0.0
C  C240  1  0.40258654  0.81077956  0.61774041  1  0.447296  -0.000679  0.05226  0.10762  -0.000805  3.939917  0.0
C  C241  1  0.47409424  0.68909585  0.88231618  1  0.471196  -0.00068  0.052436  0.108948  -0.000809  3.939433  0.0
C  C242  1  0.59741966  0.18922661  0.38226433  1  0.446502  -0.000679  0.052307  0.10773  -0.000805  3.939848  0.0
C  C243  1  0.52590079  0.31090132  0.11768747  1  0.471269  -0.00068  0.052459  0.108856  -0.000809  3.939568  0.0
C  C244  1  0.84551718  0.23703884  0.39413100  1  1.366212  -0.000257  0.168481  0.292537  -0.000371  4.108837  0.0
C  C245  1  0.71412686  0.26299715  0.10608291  1  1.38403  -0.000255  0.168934  0.292799  -0.000371  4.107989  0.0
C  C246  1  0.15448192  0.76295832  0.60586688  1  1.365967  -0.000257  0.168397  0.292426  -0.000371  4.10859  0.0
C  C247  1  0.28587049  0.73699937  0.89391790  1  1.384587  -0.000255  0.168908  0.292807  -0.000371  4.107852  0.0
C  C248  1  0.40632495  0.76498687  0.67128875  1  -0.000951  0.000117  -0.07474  -0.164282  5.8e-05  3.906155  0.0
C  C249  1  0.47002250  0.73482359  0.82872194  1  0.032175  0.00012  -0.074842  -0.164816  5.9e-05  3.904881  0.0
C  C250  1  0.59368316  0.23502123  0.32871874  1  -0.000916  0.000117  -0.07469  -0.164303  5.8e-05  3.905961  0.0
C  C251  1  0.52997266  0.26517487  0.17128234  1  0.032069  0.000119  -0.074783  -0.16482  5.9e-05  3.905069  0.0
C  C252  1  0.79917561  0.09122254  0.39911312  1  0.260156  -5.7e-05  -0.131424  -0.275668  -7.6e-05  3.915612  0.0
C  C253  1  0.80851502  0.40888925  0.10125719  1  0.277416  -5.5e-05  -0.131664  -0.276501  -7.5e-05  3.917751  0.0
C  C254  1  0.20082624  0.90877462  0.60088664  1  0.260189  -5.7e-05  -0.131401  -0.275692  -7.6e-05  3.915704  0.0
C  C255  1  0.19148519  0.59110855  0.89874361  1  0.277505  -5.5e-05  -0.131642  -0.276401  -7.5e-05  3.917635  0.0
C  C256  1  0.69593922  0.11677904  0.28029284  1  0.224142  0.000191  -0.138249  -0.276629  8.9e-05  3.881525  0.0
C  C257  1  0.79868543  0.38310415  0.22006623  1  0.222379  0.000192  -0.137974  -0.274997  8.9e-05  3.880013  0.0
C  C258  1  0.30406058  0.88321812  0.71970779  1  0.224006  0.000191  -0.138287  -0.276764  8.8e-05  3.881615  0.0
C  C259  1  0.20131349  0.61689816  0.77993293  1  0.22226  0.000192  -0.137987  -0.275106  8.9e-05  3.880038  0.0
N  N260  1  0.48856482  0.86160805  0.61063085  1  -1.214485  -0.001742  -0.338189  -0.242754  -0.001016  3.507837  0.0
N  N261  1  0.51643322  0.63831413  0.88946030  1  -1.219579  -0.001746  -0.338148  -0.242208  -0.00102  3.507673  0.0
N  N262  1  0.51144017  0.13839297  0.38937217  1  -1.214082  -0.001743  -0.33825  -0.242837  -0.001016  3.507662  0.0
N  N263  1  0.48355974  0.36168304  0.11054118  1  -1.219929  -0.001746  -0.338134  -0.242193  -0.00102  3.507716  0.0
N  N264  1  0.78438487  0.15210634  0.35853038  1  -1.190567  -2.6e-05  -0.28562  0.021297  -2.6e-05  3.728653  0.0
N  N265  1  0.77346741  0.34790556  0.14177396  1  -1.233494  -2.3e-05  -0.285449  0.019873  -2.3e-05  3.730315  0.0
N  N266  1  0.21561724  0.84789340  0.64147013  1  -1.190555  -2.6e-05  -0.285592  0.021344  -2.6e-05  3.728759  0.0
N  N267  1  0.22652964  0.65209160  0.85822579  1  -1.233433  -2.3e-05  -0.285437  0.019897  -2.3e-05  3.730411  0.0
O  O268  1  0.32718541  0.89072937  0.47517567  1  -1.117088  0.100217  -0.308762  -0.515771  0.063159  2.344613  0.091
O  O269  1  0.46149817  0.60947032  0.02497993  1  -1.112667  0.100472  -0.309126  -0.515107  0.063336  2.343924  0.091
O  O270  1  0.67282184  0.10927744  0.52482490  1  -1.116842  0.100223  -0.308696  -0.515746  0.063161  2.344561  0.091
O  O271  1  0.53851295  0.39053713  0.97502544  1  -1.1126  0.100482  -0.309128  -0.515148  0.063343  2.343768  0.091
O  O272  1  0.35226137  0.97900315  0.40059065  1  -1.131917  0.088068  -0.31243  -0.540762  0.055403  2.428477  0.08
O  O273  1  0.47243801  0.52089929  0.09930250  1  -1.12467  0.088003  -0.312542  -0.54083  0.055379  2.425452  0.08
O  O274  1  0.64774413  0.02099980  0.59940912  1  -1.131721  0.088071  -0.312369  -0.540739  0.055404  2.428351  0.08
O  O275  1  0.52754930  0.47909336  0.90069034  1  -1.124953  0.087992  -0.312541  -0.540815  0.055371  2.425482  0.08
O  O276  1  0.50021966  0.88162493  0.46676266  1  -1.115081  0.093582  -0.315639  -0.531834  0.058831  2.419079  0.085
O  O277  1  0.65189002  0.61849113  0.03334605  1  -1.119461  0.09396  -0.316477  -0.53271  0.058955  2.417104  0.085
O  O278  1  0.49978474  0.11838059  0.53323995  1  -1.115039  0.093582  -0.315652  -0.531869  0.05883  2.419039  0.085
O  O279  1  0.34811128  0.38150410  0.96665090  1  -1.119396  0.093955  -0.316488  -0.532692  0.058951  2.417016  0.085
O  O280  1  0.52816392  0.97248485  0.39435831  1  -1.110948  0.09958  -0.313594  -0.51741  0.062725  2.342941  0.09
O  O281  1  0.66138673  0.52740198  0.10549882  1  -1.108935  0.099263  -0.313279  -0.517389  0.062557  2.343064  0.089
O  O282  1  0.47184843  0.02752132  0.60564485  1  -1.111352  0.099573  -0.313552  -0.517459  0.06272  2.342891  0.09
O  O283  1  0.33861331  0.47260419  0.89450851  1  -1.108811  0.099268  -0.31325  -0.517422  0.062559  2.342978  0.089
O  O284  1  0.84024220  0.47413165  0.39628467  1  -1.103611  0.097207  -0.31177  -0.508281  0.061293  2.307919  0.088
O  O285  1  0.46984785  0.02584608  0.10381569  1  -1.108527  0.097564  -0.311828  -0.50786  0.061521  2.306398  0.088
O  O286  1  0.15975922  0.52586808  0.60371663  1  -1.103768  0.097219  -0.311752  -0.508245  0.0613  2.307867  0.088
O  O287  1  0.53014607  0.97416136  0.89618220  1  -1.108395  0.097565  -0.311902  -0.508037  0.061525  2.305993  0.088
O  O288  1  0.64565989  0.02029898  0.10923955  1  -1.102175  0.098589  -0.31175  -0.520992  0.062119  2.36135  0.09
O  O289  1  0.01639322  0.47988583  0.39082907  1  -1.115773  0.098613  -0.311606  -0.521135  0.062211  2.359891  0.09
O  O290  1  0.35432718  0.97969754  0.89076254  1  -1.102023  0.098593  -0.311824  -0.521087  0.062122  2.361125  0.09
O  O291  1  0.98360875  0.52011261  0.60916980  1  -1.115867  0.098603  -0.31158  -0.521032  0.062205  2.35988  0.09
O  O292  1  0.53878817  0.89226813  0.01469670  1  -1.116731  0.091894  -0.316035  -0.532328  0.057872  2.335747  0.083
O  O293  1  0.13152709  0.60806207  0.48517318  1  -1.109355  0.092054  -0.316152  -0.532939  0.057988  2.33384  0.084
O  O294  1  0.46121364  0.10773224  0.98530174  1  -1.116749  0.091892  -0.316042  -0.532372  0.057872  2.335689  0.083
O  O295  1  0.86847957  0.39193509  0.51482761  1  -1.1096  0.092053  -0.31617  -0.532875  0.057988  2.333947  0.084
O  O296  1  0.63908925  0.70736295  0.27869073  1  -1.100942  -0.00037  -0.140025  -0.20212  -0.000363  2.597153  0.0
O  O297  1  0.15305464  0.79274810  0.22129522  1  -1.099765  -0.000364  -0.140401  -0.203981  -0.000357  2.601539  0.0
O  O298  1  0.36090412  0.29263165  0.72130819  1  -1.101511  -0.00037  -0.13982  -0.201972  -0.000363  2.597448  0.0
O  O299  1  0.84694400  0.20725485  0.77870389  1  -1.099834  -0.000365  -0.140404  -0.203944  -0.000358  2.601429  0.0
O  O300  1  0.95557241  0.60045456  0.49293259  1  -1.120245  0.093188  -0.316738  -0.540086  0.058745  2.411401  0.085
O  O301  1  0.36246524  0.89952437  0.00715564  1  -1.116384  0.092854  -0.317085  -0.541248  0.058522  2.410035  0.085
O  O302  1  0.04443306  0.39954838  0.50706414  1  -1.120282  0.093189  -0.316742  -0.540036  0.058746  2.411451  0.085
O  O303  1  0.63753251  0.10047602  0.99284959  1  -1.116535  0.092854  -0.317086  -0.541325  0.058524  2.410145  0.085
O  O304  1  0.85070823  0.80350720  0.26610635  1  -1.104978  -0.000464  -0.14157  -0.203031  -0.000453  2.5995  0.0
O  O305  1  0.28144943  0.69692557  0.23407861  1  -1.104959  -0.000473  -0.141137  -0.202113  -0.000462  2.598613  0.0
O  O306  1  0.14929396  0.19649059  0.73388447  1  -1.104934  -0.000465  -0.141577  -0.20293  -0.000453  2.599356  0.0
O  O307  1  0.71854661  0.30307544  0.76591905  1  -1.104939  -0.000473  -0.141114  -0.20209  -0.000462  2.5986  0.0
O  O308  1  0.83443277  0.29350441  0.36512871  1  -1.157719  -0.00121  -0.304383  -0.453977  -0.000751  2.324276  0.0
O  O309  1  0.67550675  0.20645731  0.13498265  1  -1.163837  -0.001219  -0.304991  -0.454328  -0.000762  2.324705  0.0
O  O310  1  0.16556748  0.70649018  0.63487240  1  -1.157592  -0.00121  -0.304336  -0.453938  -0.000751  2.324012  0.0
O  O311  1  0.32449303  0.79354307  0.86501918  1  -1.164415  -0.001219  -0.304963  -0.45434  -0.000763  2.324573  0.0
