# generated using pymatgen
data_AgH2C12(N2Cl)2
_symmetry_space_group_name_H-M   'P 1'
_cell_length_a   3.53103501
_cell_length_b   6.78099177
_cell_length_c   22.64460646
_cell_angle_alpha   90.64020088
_cell_angle_beta   89.99957868
_cell_angle_gamma   89.99883647
_symmetry_Int_Tables_number   1
_chemical_formula_structural   AgH2C12(N2Cl)2
_chemical_formula_sum   'Ag2 H4 C24 N8 Cl4'
_cell_volume   542.16678319
_cell_formula_units_Z   2
loop_
 _symmetry_equiv_pos_site_id
 _symmetry_equiv_pos_as_xyz
  1  'x, y, z'
loop_
 _atom_site_type_symbol
 _atom_site_label
 _atom_site_symmetry_multiplicity
 _atom_site_fract_x
 _atom_site_fract_y
 _atom_site_fract_z
 _atom_site_occupancy
 _atom_site_pbe_bader_spin_density
 _atom_site_pbe_cm5_charge
 _atom_site_pbe_ddec_charge
 _atom_site_pbe_ddec_spin_density
 _atom_site_pbe_ddec_sum_bond_order
 _atom_site_pbe_magmom
Ag  Ag0  1  0.59303206  0.99999411  0.75000463  1  0  0.560313  0.576667  0  2.148722  0
Ag  Ag1  1  0.40696790  0.00000787  0.24999401  1  0  0.560305  0.576636  0  2.148756  0
H  H2  1  0.76863590  0.20002096  0.04936582  1  0  0.094301  0.111797  0  1.056955  0
H  H3  1  0.76864681  0.79996042  0.45063081  1  0  0.094247  0.111761  0  1.057208  0
H  H4  1  0.23134706  0.79996627  0.95063675  1  0  0.094386  0.111965  0  1.056874  0
H  H5  1  0.23137298  0.20004451  0.54936829  1  0  0.094266  0.111819  0  1.057167  0
C  C6  1  0.01326199  0.50452950  0.93610145  1  0  -0.001631  0.056844  0  4.031534  0
C  C7  1  0.01326300  0.49547891  0.56389454  1  0  -0.0018  0.056693  0  4.03241  0
C  C8  1  0.98672948  0.49546362  0.06390025  1  0  -0.001561  0.056973  0  4.031764  0
C  C9  1  0.98676528  0.50452897  0.43610236  1  0  -0.001804  0.05679  0  4.032374  0
C  C10  1  0.03599025  0.52095863  0.87323111  1  0  -0.016264  -0.113097  0  4.093052  0
C  C11  1  0.03595768  0.47905989  0.62676931  1  0  -0.016202  -0.113027  0  4.093352  0
C  C12  1  0.96400688  0.47903302  0.12676971  1  0  -0.016224  -0.113178  0  4.09317  0
C  C13  1  0.96404228  0.52094504  0.37322935  1  0  -0.016233  -0.113301  0  4.093531  0
C  C14  1  0.87950664  0.33597799  0.96730996  1  0  0.008304  0.087633  0  4.041378  0
C  C15  1  0.87949622  0.66401341  0.53269741  1  0  0.00836  0.087752  0  4.040558  0
C  C16  1  0.12048200  0.66401071  0.03269350  1  0  0.008439  0.087745  0  4.041174  0
C  C17  1  0.12051790  0.33599595  0.46729949  1  0  0.00843  0.087649  0  4.040639  0
C  C18  1  0.92694282  0.37771874  0.83108489  1  0  0.183032  0.273342  0  4.074086  0
C  C19  1  0.92706334  0.62232827  0.66891026  1  0  0.183032  0.273258  0  4.073904  0
C  C20  1  0.07305147  0.62227586  0.16891727  1  0  0.183026  0.273381  0  4.074227  0
C  C21  1  0.07296211  0.37767813  0.33108929  1  0  0.183052  0.273461  0  4.074037  0
C  C22  1  0.86881380  0.33325318  0.02802471  1  0  -0.101461  -0.192897  0  3.971915  0
C  C23  1  0.86880677  0.66675381  0.47196351  1  0  -0.101251  -0.192757  0  3.970892  0
C  C24  1  0.13116350  0.66673405  0.97197742  1  0  -0.101619  -0.193149  0  3.971815  0
C  C25  1  0.13119319  0.33325407  0.52803428  1  0  -0.101338  -0.192842  0  3.971067  0
C  C26  1  0.17454701  0.69618156  0.84821614  1  0  0.188645  0.286887  0  4.036047  0
C  C27  1  0.17446983  0.30382237  0.65178982  1  0  0.188686  0.286809  0  4.036688  0
C  C28  1  0.82543879  0.30381452  0.15178470  1  0  0.188529  0.286811  0  4.036062  0
C  C29  1  0.82552730  0.69618550  0.34820840  1  0  0.188721  0.287001  0  4.036371  0
N  N30  1  0.84571783  0.26960023  0.79239606  1  0  -0.341911  -0.381963  0  3.18793  0
N  N31  1  0.84590818  0.73047851  0.70760193  1  0  -0.341985  -0.38194  0  3.187556  0
N  N32  1  0.15427930  0.73039437  0.20760389  1  0  -0.341901  -0.381942  0  3.188037  0
N  N33  1  0.15409461  0.26953084  0.29239763  1  0  -0.341964  -0.382017  0  3.187664  0
N  N34  1  0.28377013  0.84240676  0.82690979  1  0  -0.335866  -0.396631  0  3.143393  0
N  N35  1  0.28372939  0.15761090  0.67309169  1  0  -0.335925  -0.396636  0  3.143866  0
N  N36  1  0.71622700  0.15758784  0.17308972  1  0  -0.335868  -0.39663  0  3.143364  0
N  N37  1  0.71627057  0.84239845  0.32690743  1  0  -0.33597  -0.39674  0  3.143675  0
Cl  Cl38  1  0.73186984  0.12802001  0.92953016  1  0  0.0427  -0.020219  0  1.797461  0
Cl  Cl39  1  0.73186832  0.87198902  0.57046418  1  0  0.042655  -0.020274  0  1.797571  0
Cl  Cl40  1  0.26813296  0.87197459  0.07046978  1  0  0.042675  -0.020256  0  1.797386  0
Cl  Cl41  1  0.26814580  0.12801443  0.42953624  1  0  0.042674  -0.020176  0  1.797532  0
