# generated using pymatgen
data_CaH20C18(NO4)2
_symmetry_space_group_name_H-M   'P 1'
_cell_length_a   7.54704757
_cell_length_b   9.25266474
_cell_length_c   31.57103511
_cell_angle_alpha   89.99989566
_cell_angle_beta   89.99978471
_cell_angle_gamma   110.90887951
_symmetry_Int_Tables_number   1
_chemical_formula_structural   CaH20C18(NO4)2
_chemical_formula_sum   'Ca4 H80 C72 N8 O32'
_cell_volume   2059.43917783
_cell_formula_units_Z   4
loop_
 _symmetry_equiv_pos_site_id
 _symmetry_equiv_pos_as_xyz
  1  'x, y, z'
loop_
 _atom_site_type_symbol
 _atom_site_label
 _atom_site_symmetry_multiplicity
 _atom_site_fract_x
 _atom_site_fract_y
 _atom_site_fract_z
 _atom_site_occupancy
 _atom_site_pbe_bader_charge
 _atom_site_pbe_bader_spin_density
 _atom_site_pbe_cm5_charge
 _atom_site_pbe_ddec_charge
 _atom_site_pbe_ddec_spin_density
 _atom_site_pbe_ddec_sum_bond_order
 _atom_site_pbe_magmom
Ca  Ca0  1  0.35251233  0.73743838  0.23126922  1  1.639026  0  0.882255  1.384124  0  1.489771  0
Ca  Ca1  1  0.14748569  0.26255920  0.73126952  1  1.63903  0  0.882251  1.384085  0  1.489816  0
Ca  Ca2  1  0.64748730  0.26256064  0.76873053  1  1.639014  0  0.882227  1.384066  0  1.489837  0
Ca  Ca3  1  0.85251030  0.73743749  0.26873055  1  1.639012  0  0.882246  1.384095  0  1.489789  0
H  H4  1  0.13113398  0.02654634  0.42646805  1  0.089674  0  0.099302  0.095552  0  1.046113  0
H  H5  1  0.36886806  0.97345235  0.92646809  1  0.089654  0  0.099283  0.095549  0  1.046097  0
H  H6  1  0.86886650  0.97345153  0.57353297  1  0.089673  0  0.099309  0.095586  0  1.046065  0
H  H7  1  0.63113173  0.02655013  0.07353325  1  0.089663  0  0.099303  0.095599  0  1.046075  0
H  H8  1  0.37534634  0.96399066  0.46720282  1  0.092348  0  0.099377  0.09361  0  1.027059  0
H  H9  1  0.12465616  0.03600754  0.96720167  1  0.092384  0  0.099411  0.093663  0  1.02707  0
H  H10  1  0.62465546  0.03600722  0.53279820  1  0.092436  0  0.099413  0.093657  0  1.027055  0
H  H11  1  0.87533800  0.96398798  0.03279808  1  0.09236  0  0.099388  0.093603  0  1.027115  0
H  H12  1  0.71322430  0.14194759  0.46470851  1  0.05235  0  0.098768  0.091792  0  1.018626  0
H  H13  1  0.78677612  0.85805509  0.96470805  1  0.052368  0  0.098766  0.091796  0  1.018594  0
H  H14  1  0.28677765  0.85805376  0.53529156  1  0.052387  0  0.098787  0.091814  0  1.018556  0
H  H15  1  0.21321721  0.14194157  0.03529013  1  0.052393  0  0.098769  0.091781  0  1.018656  0
H  H16  1  0.80307899  0.38379574  0.42182479  1  0.042788  0  0.098546  0.095945  0  1.022383  0
H  H17  1  0.69692450  0.61620633  0.92182486  1  0.042838  0  0.098546  0.095934  0  1.022325  0
H  H18  1  0.19691981  0.61620442  0.57817528  1  0.042771  0  0.098564  0.096003  0  1.022398  0
H  H19  1  0.30307779  0.38379271  0.07817268  1  0.042825  0  0.098566  0.095927  0  1.022316  0
H  H20  1  0.56077163  0.44334307  0.38022663  1  0.122117  0  0.102633  0.102911  0  1.055498  0
H  H21  1  0.93923176  0.55665720  0.88022682  1  0.122161  0  0.102606  0.102883  0  1.055477  0
H  H22  1  0.43922535  0.55665593  0.61977376  1  0.122146  0  0.10262  0.102881  0  1.055511  0
H  H23  1  0.06077419  0.44334417  0.11977198  1  0.122244  0  0.102629  0.102901  0  1.055513  0
H  H24  1  0.01497766  0.54333353  0.36114290  1  0.089435  0  0.118946  0.112157  0  0.994528  0
H  H25  1  0.48502806  0.45666829  0.86114247  1  0.089409  0  0.118927  0.112133  0  0.994548  0
H  H26  1  0.98502414  0.45666436  0.63885717  1  0.089386  0  0.118923  0.112144  0  0.994533  0
H  H27  1  0.51497157  0.54333073  0.13885728  1  0.089417  0  0.118923  0.112139  0  0.99452  0
H  H28  1  0.94452828  0.35859285  0.33655512  1  0.107495  0  0.122461  0.118521  0  0.979877  0
H  H29  1  0.55547203  0.64140793  0.83655435  1  0.107408  0  0.122477  0.118526  0  0.97989  0
H  H30  1  0.05547086  0.64140502  0.66344463  1  0.107455  0  0.122472  0.118542  0  0.979803  0
H  H31  1  0.44452711  0.35858993  0.16344509  1  0.107461  0  0.122474  0.118523  0  0.979893  0
H  H32  1  0.02694333  0.67784210  0.02441998  1  0.080501  0  0.100564  0.098929  0  1.02039  0
H  H33  1  0.47305821  0.32215919  0.52442058  1  0.080496  0  0.10053  0.098852  0  1.020393  0
H  H34  1  0.97305365  0.32215690  0.97558010  1  0.080521  0  0.100549  0.098886  0  1.020396  0
H  H35  1  0.52694655  0.67784564  0.47557981  1  0.080513  0  0.100552  0.098905  0  1.020366  0
H  H36  1  0.23794342  0.60977289  0.97395798  1  0.086926  0  0.097799  0.096471  0  1.021566  0
H  H37  1  0.26206358  0.39022988  0.47395731  1  0.086896  0  0.097786  0.096477  0  1.021588  0
H  H38  1  0.76205174  0.39022494  0.02604241  1  0.086912  0  0.097771  0.096445  0  1.021545  0
H  H39  1  0.73794252  0.60977496  0.52604244  1  0.086908  0  0.097792  0.096466  0  1.021579  0
H  H40  1  0.56290681  0.63116195  0.99657032  1  0.063914  0  0.096557  0.08958  0  1.042912  0
H  H41  1  0.93709960  0.36884039  0.49656951  1  0.065362  0  0.096509  0.089581  0  1.043096  0
H  H42  1  0.43708652  0.36883471  0.00342911  1  0.063979  0  0.096555  0.089589  0  1.042973  0
H  H43  1  0.06290749  0.63116676  0.50343024  1  0.064188  0  0.096502  0.08955  0  1.043052  0
H  H44  1  0.67257239  0.71345553  0.07020373  1  0.091905  0  0.099738  0.107863  0  1.043298  0
H  H45  1  0.82742956  0.28654851  0.57020163  1  0.091829  0  0.099739  0.107917  0  1.04326  0
H  H46  1  0.32742725  0.28654349  0.92979602  1  0.091904  0  0.099741  0.107828  0  1.043326  0
H  H47  1  0.17257585  0.71346093  0.42979749  1  0.091839  0  0.099746  0.107853  0  1.043305  0
H  H48  1  0.46492419  0.78792267  0.11976537  1  0.127508  0  0.108846  0.108451  0  1.041383  0
H  H49  1  0.03506835  0.21207968  0.61976548  1  0.127514  0  0.108814  0.108396  0  1.041415  0
H  H50  1  0.53507461  0.21207749  0.88023438  1  0.127491  0  0.108831  0.108418  0  1.041358  0
H  H51  1  0.96493208  0.78792742  0.38023523  1  0.127474  0  0.108829  0.108401  0  1.041404  0
H  H52  1  0.15477637  0.10947606  0.15421689  1  0.102459  0  0.118496  0.113933  0  0.976702  0
H  H53  1  0.34521944  0.89052589  0.65421699  1  0.102467  0  0.118471  0.113895  0  0.976766  0
H  H54  1  0.84522110  0.89052409  0.84578318  1  0.102452  0  0.118502  0.113916  0  0.976761  0
H  H55  1  0.65477587  0.10947539  0.34578245  1  0.102454  0  0.118502  0.1139  0  0.976778  0
H  H56  1  0.94043012  0.97111640  0.13515422  1  0.105653  0  0.114501  0.106493  0  1.007311  0
H  H57  1  0.55956365  0.02888332  0.63515281  1  0.105624  0  0.11451  0.106499  0  1.00733  0
H  H58  1  0.05956819  0.02888261  0.86484649  1  0.10582  0  0.114531  0.106544  0  1.007342  0
H  H59  1  0.44043165  0.97111797  0.36484662  1  0.105815  0  0.114543  0.106554  0  1.007381  0
H  H60  1  0.32690998  0.98513182  0.12134341  1  0.490929  0  0.30972  0.270133  0  1.003896  0
H  H61  1  0.17308504  0.01486707  0.62134318  1  0.490965  0  0.309722  0.270202  0  1.003836  0
H  H62  1  0.67308966  0.01486720  0.87865729  1  0.490989  0  0.309733  0.270232  0  1.003822  0
H  H63  1  0.82691125  0.98513653  0.37865657  1  0.490973  0  0.309729  0.270235  0  1.003836  0
H  H64  1  0.30506855  0.50800967  0.38395071  1  0.525619  0  0.303814  0.271466  0  1.013231  0
H  H65  1  0.19493354  0.49199069  0.88395053  1  0.52563  0  0.303811  0.271477  0  1.013217  0
H  H66  1  0.69493192  0.49198820  0.61604968  1  0.525607  0  0.303793  0.271472  0  1.013188  0
H  H67  1  0.80506575  0.50801063  0.11604955  1  0.52562  0  0.303812  0.271485  0  1.013209  0
H  H68  1  0.69962883  0.93965639  0.19383945  1  0.651372  0  0.295781  0.387491  0  0.95505  0
H  H69  1  0.80037168  0.06034267  0.69383877  1  0.651382  0  0.295778  0.387514  0  0.955013  0
H  H70  1  0.30037213  0.06034264  0.80616125  1  0.651386  0  0.295779  0.387486  0  0.955044  0
H  H71  1  0.19962879  0.93965520  0.30616035  1  0.651368  0  0.29577  0.38746  0  0.955096  0
H  H72  1  0.56269683  0.01221305  0.17046105  1  0.624657  0  0.293952  0.385138  0  0.95205  0
H  H73  1  0.93730236  0.98778513  0.67046102  1  0.624667  0  0.293967  0.385185  0  0.951992  0
H  H74  1  0.43730596  0.98778715  0.82953934  1  0.624651  0  0.293965  0.385162  0  0.952029  0
H  H75  1  0.06269679  0.01221273  0.32953905  1  0.624667  0  0.293915  0.385027  0  0.952148  0
H  H76  1  0.00469569  0.50955513  0.19729273  1  0.652816  0  0.300275  0.397466  0  0.941072  0
H  H77  1  0.49530354  0.49044403  0.69729354  1  0.652811  0  0.300288  0.397507  0  0.94102  0
H  H78  1  0.99530311  0.49044504  0.80270639  1  0.65281  0  0.300295  0.397503  0  0.94102  0
H  H79  1  0.50469561  0.50955383  0.30270653  1  0.652804  0  0.300287  0.397492  0  0.94103  0
H  H80  1  0.14578527  0.42271962  0.20542768  1  0.607506  0  0.329901  0.402585  0  0.876564  0
H  H81  1  0.35421512  0.57727945  0.70542920  1  0.607494  0  0.329888  0.402589  0  0.876561  0
H  H82  1  0.85421535  0.57728171  0.79457081  1  0.607476  0  0.329901  0.402643  0  0.876428  0
H  H83  1  0.64578270  0.42271840  0.29457087  1  0.607482  0  0.329911  0.402646  0  0.876411  0
C  C84  1  0.27835828  0.10468642  0.42574199  1  -0.029613  0  -0.083163  -0.096751  0  3.973505  0
C  C85  1  0.22164426  0.89531343  0.92574124  1  -0.029975  0  -0.083197  -0.096783  0  3.97345  0
C  C86  1  0.72164318  0.89531376  0.57425904  1  -0.030008  0  -0.083248  -0.096932  0  3.973438  0
C  C87  1  0.77835404  0.10468558  0.07425914  1  -0.030155  0  -0.08318  -0.096841  0  3.973521  0
C  C88  1  0.41582610  0.07024466  0.44869493  1  -0.057827  0  -0.090489  -0.08087  0  4.003466  0
C  C89  1  0.08417645  0.92975607  0.94869461  1  -0.057963  0  -0.090521  -0.080935  0  4.003483  0
C  C90  1  0.58417403  0.92975552  0.55130641  1  -0.057971  0  -0.090475  -0.080845  0  4.003547  0
C  C91  1  0.91582004  0.07024177  0.05130451  1  -0.057925  0  -0.090432  -0.080708  0  4.003599  0
C  C92  1  0.60495165  0.17034336  0.44737843  1  -0.030197  0  -0.087816  -0.079146  0  3.998411  0
C  C93  1  0.89504899  0.82965607  0.94737820  1  -0.030179  0  -0.087792  -0.079135  0  3.998419  0
C  C94  1  0.39505030  0.82965799  0.55262291  1  -0.030175  0  -0.087853  -0.079147  0  3.998516  0
C  C95  1  0.10494617  0.17034175  0.05262124  1  -0.030223  0  -0.08791  -0.079326  0  3.998836  0
C  C96  1  0.65568140  0.30552279  0.42321730  1  -0.10226  0  -0.090297  -0.076606  0  3.99489  0
C  C97  1  0.84432339  0.69447927  0.92321687  1  -0.102154  0  -0.090299  -0.076573  0  3.994862  0
C  C98  1  0.34431691  0.69447622  0.57678341  1  -0.102279  0  -0.0903  -0.076686  0  3.99497  0
C  C99  1  0.15567890  0.30551977  0.07678130  1  -0.102197  0  -0.090239  -0.076445  0  3.994814  0
C  C100  1  0.51818754  0.34087274  0.40030426  1  -0.047944  0  -0.086424  -0.112417  0  3.969954  0
C  C101  1  0.98181907  0.65912962  0.90030436  1  -0.048071  0  -0.086367  -0.112339  0  3.96999  0
C  C102  1  0.48181077  0.65912627  0.59969645  1  -0.048002  0  -0.086444  -0.112444  0  3.969933  0
C  C103  1  0.01818554  0.34087175  0.09969445  1  -0.048105  0  -0.086489  -0.112507  0  3.969916  0
C  C104  1  0.32836481  0.24022065  0.40143294  1  -0.045141  0  -0.017073  -0.040115  0  4.008068  0
C  C105  1  0.17163809  0.75977605  0.90143295  1  -0.044669  0  -0.017102  -0.040223  0  4.008104  0
C  C106  1  0.67163517  0.75977607  0.59856809  1  -0.044573  0  -0.016983  -0.039918  0  4.007864  0
C  C107  1  0.82836686  0.24022301  0.09856681  1  -0.044533  0  -0.017031  -0.040057  0  4.008045  0
C  C108  1  0.17717595  0.27013046  0.37641164  1  1.383279  0  0.245067  0.473092  0  4.123279  0
C  C109  1  0.32282980  0.72986887  0.87641185  1  1.383281  0  0.245117  0.473221  0  4.123135  0
C  C110  1  0.82282403  0.72986626  0.62358843  1  1.383207  0  0.245034  0.473004  0  4.123427  0
C  C111  1  0.67717713  0.27013482  0.12358822  1  1.383218  0  0.245032  0.47301  0  4.123332  0
C  C112  1  0.06707360  0.46293162  0.34419794  1  0.296312  0  -0.053897  -0.157751  0  3.910881  0
C  C113  1  0.43292835  0.53706692  0.84419751  1  0.296555  0  -0.053898  -0.157712  0  3.910877  0
C  C114  1  0.93292722  0.53706395  0.65580213  1  0.296506  0  -0.053874  -0.157726  0  3.910697  0
C  C115  1  0.56707080  0.46293094  0.15580224  1  0.296342  0  -0.053878  -0.157655  0  3.910774  0
C  C116  1  0.15546842  0.53922305  0.30252107  1  1.6036  0  0.224626  0.630365  0  4.165768  0
C  C117  1  0.34452958  0.46077712  0.80252076  1  1.603613  0  0.22462  0.630378  0  4.165689  0
C  C118  1  0.84453073  0.46077481  0.69747900  1  1.603609  0  0.224613  0.630295  0  4.165777  0
C  C119  1  0.65546789  0.53922304  0.19747931  1  1.603613  0  0.22461  0.630305  0  4.165767  0
C  C120  1  0.16908641  0.68650978  0.03400084  1  -0.008432  0  -0.085843  -0.101291  0  3.974484  0
C  C121  1  0.33091227  0.31349136  0.53400000  1  -0.008767  0  -0.085716  -0.101079  0  3.974326  0
C  C122  1  0.83091057  0.31348922  0.96599954  1  -0.008377  0  -0.085741  -0.101113  0  3.974245  0
C  C123  1  0.66908934  0.68651228  0.46599944  1  -0.008431  0  -0.085829  -0.101264  0  3.974337  0
C  C124  1  0.28770576  0.64827284  0.00586235  1  -0.010916  0  -0.093398  -0.079877  0  4.008175  0
C  C125  1  0.21230199  0.35172987  0.50586222  1  -0.010721  0  -0.093435  -0.079979  0  4.008224  0
C  C126  1  0.71228940  0.35172499  0.99413772  1  -0.010901  0  -0.093368  -0.079836  0  4.008122  0
C  C127  1  0.78770725  0.64827615  0.49413785  1  -0.01092  0  -0.093415  -0.079891  0  4.008266  0
C  C128  1  0.46992130  0.66051769  0.01860496  1  -0.111785  0  -0.094341  -0.09234  0  4.016684  0
C  C129  1  0.03008333  0.33949061  0.51860342  1  -0.1132  0  -0.094239  -0.09227  0  4.016555  0
C  C130  1  0.53007750  0.33948248  0.98139511  1  -0.111918  0  -0.094379  -0.092489  0  4.016843  0
C  C131  1  0.96992125  0.66051998  0.48139634  1  -0.112112  0  -0.094354  -0.092447  0  4.016912  0
C  C132  1  0.53225456  0.70758821  0.05973946  1  -0.087334  0  -0.094509  -0.089753  0  3.997873  0
C  C133  1  0.96774628  0.29241595  0.55974008  1  -0.087216  0  -0.094543  -0.089861  0  3.997683  0
C  C134  1  0.46774158  0.29241193  0.94025966  1  -0.087205  0  -0.094494  -0.089612  0  3.997776  0
C  C135  1  0.03226263  0.70759237  0.44026031  1  -0.087124  0  -0.094428  -0.089612  0  3.997764  0
C  C136  1  0.41508667  0.74908811  0.08777374  1  -0.076076  0  -0.086034  -0.115655  0  3.961428  0
C  C137  1  0.08491271  0.25091353  0.58777315  1  -0.075916  0  -0.085996  -0.115559  0  3.961518  0
C  C138  1  0.58491578  0.25091439  0.91222570  1  -0.076058  0  -0.086066  -0.115669  0  3.961483  0
C  C139  1  0.91508940  0.74909127  0.41222661  1  -0.075944  0  -0.086085  -0.115631  0  3.961423  0
C  C140  1  0.23395392  0.74046283  0.07472389  1  -0.087317  0  -0.015657  -0.036199  0  4.006195  0
C  C141  1  0.26604257  0.25953780  0.57472439  1  -0.087263  0  -0.015704  -0.036241  0  4.006158  0
C  C142  1  0.76604404  0.25953848  0.92527555  1  -0.087371  0  -0.015689  -0.036265  0  4.006185  0
C  C143  1  0.73395855  0.74046469  0.42527599  1  -0.087432  0  -0.015568  -0.036099  0  4.006036  0
C  C144  1  0.10561392  0.78831472  0.10289057  1  1.394824  0  0.246452  0.475011  0  4.129319  0
C  C145  1  0.39438430  0.21168788  0.60289036  1  1.394651  0  0.246419  0.474943  0  4.129397  0
C  C146  1  0.89438853  0.21168778  0.89710918  1  1.394839  0  0.246451  0.474997  0  4.129335  0
C  C147  1  0.60561500  0.78831344  0.39710908  1  1.394846  0  0.246402  0.474921  0  4.129442  0
C  C148  1  0.07560928  0.98493321  0.15072267  1  0.293702  0  -0.055219  -0.15751  0  3.929722  0
C  C149  1  0.42438611  0.01506763  0.65072221  1  0.293623  0  -0.055235  -0.157552  0  3.929866  0
C  C150  1  0.92439036  0.01506581  0.84927804  1  0.293481  0  -0.055289  -0.157594  0  3.929938  0
C  C151  1  0.57560920  0.98493366  0.34927786  1  0.2935  0  -0.055292  -0.157571  0  3.929915  0
C  C152  1  0.03091671  0.91481995  0.19493729  1  1.597419  0  0.225998  0.631831  0  4.156294  0
C  C153  1  0.46908223  0.08518154  0.69493612  1  1.5974  0  0.226122  0.632029  0  4.156144  0
C  C154  1  0.96908559  0.08517909  0.80506342  1  1.5974  0  0.226006  0.631793  0  4.156304  0
C  C155  1  0.53091391  0.91481861  0.30506300  1  1.597439  0  0.225997  0.63186  0  4.15635  0
N  N156  1  0.19488672  0.41828781  0.37064809  1  -1.253814  0  -0.411161  -0.32097  0  3.60333  0
N  N157  1  0.30511782  0.58171158  0.87064807  1  -1.253976  0  -0.411116  -0.320968  0  3.603317  0
N  N158  1  0.80511326  0.58170890  0.62935167  1  -1.253911  0  -0.411119  -0.320953  0  3.603247  0
N  N159  1  0.69488497  0.41828862  0.12935169  1  -1.25385  0  -0.411107  -0.320939  0  3.603325  0
N  N160  1  0.18569173  0.92123378  0.12437633  1  -1.223504  0  -0.412447  -0.325149  0  3.611031  0
N  N161  1  0.31430239  0.07876622  0.62437594  1  -1.223469  0  -0.41244  -0.325158  0  3.610936  0
N  N162  1  0.81430608  0.07876407  0.87562405  1  -1.223552  0  -0.41248  -0.325251  0  3.611045  0
N  N163  1  0.68569656  0.92123741  0.37562318  1  -1.223581  0  -0.412466  -0.325263  0  3.611047  0
O  O164  1  0.03786290  0.15996641  0.36171757  1  -1.19617  0  -0.303006  -0.527343  0  2.221699  0
O  O165  1  0.46214483  0.84003081  0.86171664  1  -1.196223  0  -0.303029  -0.527398  0  2.221592  0
O  O166  1  0.96213841  0.84003032  0.63828282  1  -1.19615  0  -0.303037  -0.527368  0  2.221705  0
O  O167  1  0.53786047  0.15996595  0.13828280  1  -1.196072  0  -0.303033  -0.527348  0  2.221595  0
O  O168  1  0.29852783  0.51724943  0.28695009  1  -1.211715  0  -0.327017  -0.605264  0  2.220322  0
O  O169  1  0.20147498  0.48275212  0.78694959  1  -1.211724  0  -0.327003  -0.605273  0  2.220348  0
O  O170  1  0.70147363  0.48275075  0.71304998  1  -1.211697  0  -0.32699  -0.605227  0  2.220359  0
O  O171  1  0.79852333  0.51724689  0.21304985  1  -1.211692  0  -0.326991  -0.605219  0  2.22039  0
O  O172  1  0.93102567  0.71131564  0.10488065  1  -1.187878  0  -0.303839  -0.513157  0  2.177586  0
O  O173  1  0.56896923  0.28868561  0.60488101  1  -1.18783  0  -0.30381  -0.513122  0  2.177623  0
O  O174  1  0.06897096  0.28868566  0.89511847  1  -1.187883  0  -0.303824  -0.513133  0  2.177675  0
O  O175  1  0.43103439  0.71131344  0.39511780  1  -1.187812  0  -0.303785  -0.513077  0  2.177701  0
O  O176  1  0.90271778  0.94388829  0.21565714  1  -1.213467  0  -0.344033  -0.610477  0  2.196322  0
O  O177  1  0.59728193  0.05611281  0.71565538  1  -1.213399  0  -0.344113  -0.610641  0  2.19628  0
O  O178  1  0.09728368  0.05611190  0.78434420  1  -1.213464  0  -0.344014  -0.610404  0  2.196353  0
O  O179  1  0.40271770  0.94388621  0.28434406  1  -1.213461  0  -0.344004  -0.610455  0  2.196426  0
O  O180  1  0.11782319  0.83136642  0.20961971  1  -1.235156  0  -0.37672  -0.636815  0  2.260134  0
O  O181  1  0.38217810  0.16863491  0.70961890  1  -1.235174  0  -0.376753  -0.636829  0  2.26013  0
O  O182  1  0.88217778  0.16863261  0.79038099  1  -1.2351  0  -0.376716  -0.636758  0  2.260079  0
O  O183  1  0.61782154  0.83136411  0.29038149  1  -1.23516  0  -0.37673  -0.636825  0  2.26011  0
O  O184  1  0.56593443  0.91775492  0.18445782  1  -1.298781  0  -0.632681  -0.82878  0  2.004885  0
O  O185  1  0.93406628  0.08224426  0.68445732  1  -1.298807  0  -0.632683  -0.82883  0  2.004835  0
O  O186  1  0.43406752  0.08224642  0.81554289  1  -1.298791  0  -0.63269  -0.828788  0  2.004864  0
O  O187  1  0.06593370  0.91775246  0.31554212  1  -1.298787  0  -0.632639  -0.828626  0  2.004997  0
O  O188  1  0.13835061  0.51530007  0.19217088  1  -1.259988  0  -0.602491  -0.793234  0  1.975254  0
O  O189  1  0.36165055  0.48470031  0.69217118  1  -1.259972  0  -0.602489  -0.793279  0  1.975235  0
O  O190  1  0.86165183  0.48470243  0.80782856  1  -1.259938  0  -0.6025  -0.793322  0  1.97506  0
O  O191  1  0.63834727  0.51529754  0.30782889  1  -1.25995  0  -0.602511  -0.793318  0  1.975053  0
O  O192  1  0.07692209  0.62317405  0.28433511  1  -1.24089  0  -0.386805  -0.663465  0  2.305979  0
O  O193  1  0.42307747  0.37682289  0.78433509  1  -1.240897  0  -0.386833  -0.66347  0  2.305891  0
O  O194  1  0.92307606  0.37682150  0.71566465  1  -1.240926  0  -0.386844  -0.663451  0  2.305962  0
O  O195  1  0.57692217  0.62317613  0.21566466  1  -1.240916  0  -0.386844  -0.663489  0  2.305954  0
