# generated using pymatgen
data_ZnH7C12NO4F
_symmetry_space_group_name_H-M   'P 1'
_cell_length_a   9.80150925
_cell_length_b   11.07154949
_cell_length_c   11.29622535
_cell_angle_alpha   92.77478858
_cell_angle_beta   94.17055143
_cell_angle_gamma   108.05126456
_symmetry_Int_Tables_number   1
_chemical_formula_structural   ZnH7C12NO4F
_chemical_formula_sum   'Zn2 H14 C24 N2 O8 F2'
_cell_volume   1159.16202547
_cell_formula_units_Z   2
loop_
 _symmetry_equiv_pos_site_id
 _symmetry_equiv_pos_as_xyz
  1  'x, y, z'
loop_
 _atom_site_type_symbol
 _atom_site_label
 _atom_site_symmetry_multiplicity
 _atom_site_fract_x
 _atom_site_fract_y
 _atom_site_fract_z
 _atom_site_occupancy
 _atom_site_pbe_bader_charge
 _atom_site_pbe_bader_spin_density
 _atom_site_pbe_cm5_charge
 _atom_site_pbe_ddec_charge
 _atom_site_pbe_ddec_spin_density
 _atom_site_pbe_ddec_sum_bond_order
 _atom_site_pbe_magmom
Zn  Zn0  1  0.35279466  0.45296131  0.51301312  1  1.290819  0  0.663851  0.847511  0  2.425681  0
Zn  Zn1  1  0.64846235  0.53806161  0.48725087  1  1.298978  0  0.663817  0.848286  0  2.423416  0
H  H2  1  0.58262274  0.10647395  0.10034427  1  0.110468  0  0.108566  0.131789  0  0.996311  0
H  H3  1  0.41614610  0.88674709  0.89994251  1  0.106462  0  0.108521  0.131895  0  0.996494  0
H  H4  1  0.43737496  0.21797871  0.70936913  1  0.092304  0  0.107859  0.141367  0  1.011632  0
H  H5  1  0.55985254  0.77341097  0.28841168  1  0.108593  0  0.108414  0.142039  0  1.008263  0
H  H6  1  0.45956860  0.77316332  0.71902640  1  0.091528  0  0.10598  0.117936  0  0.998366  0
H  H7  1  0.54032465  0.21923204  0.28260468  1  0.098918  0  0.105407  0.115697  0  1.001261  0
H  H8  1  0.62587264  0.51923136  0.10220368  1  0.075474  0  0.107769  0.106834  0  0.981342  0
H  H9  1  0.37486971  0.45524195  0.89760753  1  0.080735  0  0.107941  0.10722  0  0.981734  0
H  H10  1  0.29531714  0.44067757  0.10507248  1  0.086721  0  0.107892  0.126629  0  0.984185  0
H  H11  1  0.70571928  0.54593144  0.89478928  1  0.07642  0  0.107446  0.126069  0  0.984957  0
H  H12  1  0.14283156  0.58423951  0.45096449  1  0.164326  0  0.141248  0.111367  0  0.96082  0
H  H13  1  0.85924061  0.40668167  0.54937126  1  0.178843  0  0.140442  0.111555  0  0.964675  0
H  H14  1  0.07304998  0.34870932  0.57372075  1  0.43593  0  0.32831  0.297435  0  0.891084  0
H  H15  1  0.92804932  0.64224260  0.42660164  1  0.439821  0  0.328114  0.297722  0  0.890131  0
C  C16  1  0.56043923  0.50928705  0.73088650  1  1.516701  0  0.204097  0.626036  0  4.194584  0
C  C17  1  0.44006042  0.47732359  0.26927403  1  1.513064  0  0.20381  0.62587  0  4.197972  0
C  C18  1  0.59200646  0.51470555  0.86151239  1  -0.013289  0  -0.090515  -0.228072  0  3.881575  0
C  C19  1  0.40882258  0.46763002  0.13839778  1  -0.000628  0  -0.090914  -0.228245  0  3.880257  0
C  C20  1  0.48686877  0.48513363  0.93626233  1  -0.060005  0  -0.072134  -0.024522  0  4.013566  0
C  C21  1  0.51398730  0.49193195  0.06355850  1  -0.009529  0  -0.071635  -0.023466  0  4.01059  0
C  C22  1  0.92495086  0.48886771  0.50612828  1  0.643001  0  0.120638  0.170413  0  3.867882  0
C  C23  1  0.07688490  0.50219286  0.49418101  1  0.70655  0  0.121338  0.170571  0  3.869209  0
C  C24  1  0.49180945  0.25581394  0.49513888  1  1.59847  0  0.218456  0.610152  0  4.192191  0
C  C25  1  0.50891639  0.73525677  0.50499593  1  1.566676  0  0.219051  0.612091  0  4.175475  0
C  C26  1  0.44384932  0.12144799  0.70894552  1  0.048483  0  -0.108448  -0.270774  0  3.965845  0
C  C27  1  0.55378612  0.87000020  0.28986560  1  0.094932  0  -0.108856  -0.269976  0  3.968813  0
C  C28  1  0.42516615  0.05764222  0.81006851  1  0.389437  0  0.088987  0.290121  0  4.097569  0
C  C29  1  0.57205283  0.93448386  0.18910370  1  0.323029  0  0.089842  0.289867  0  4.096707  0
C  C30  1  0.43055694  0.93188733  0.81615758  1  -0.018364  0  -0.101254  -0.20534  0  4.026068  0
C  C31  1  0.56799468  0.06073413  0.18384020  1  -0.016956  0  -0.101127  -0.205365  0  4.026064  0
C  C32  1  0.45548985  0.87018688  0.71563225  1  -0.052756  0  -0.085771  -0.094821  0  3.9682  0
C  C33  1  0.54386336  0.12187785  0.28501954  1  -0.030987  0  -0.08555  -0.093704  0  3.970189  0
C  C34  1  0.47632394  0.93058511  0.60625305  1  0.027496  0  -0.008168  0.04393  0  3.986865  0
C  C35  1  0.52265339  0.06027019  0.39369022  1  0.03703  0  -0.007544  0.042655  0  3.994085  0
C  C36  1  0.47065530  0.05934685  0.60332310  1  -0.017351  0  -0.004677  0.078097  0  3.997439  0
C  C37  1  0.52828398  0.93144136  0.39638197  1  -0.022633  0  -0.004173  0.079243  0  3.996067  0
C  C38  1  0.50525994  0.86963671  0.50289178  1  -0.004178  0  -0.012105  -0.120771  0  3.904578  0
C  C39  1  0.49424966  0.12107179  0.49702606  1  -0.002604  0  -0.01033  -0.11419  0  3.91237  0
N  N40  1  0.86318316  0.56746650  0.46738331  1  -1.161528  0  -0.422299  -0.364322  0  3.212436  0
N  N41  1  0.13823976  0.42335683  0.53304129  1  -1.176534  0  -0.423637  -0.363712  0  3.212614  0
O  O42  1  0.42846652  0.46692661  0.68822195  1  -1.173386  0  -0.326961  -0.567298  0  2.30941  0
O  O43  1  0.57155347  0.50412521  0.31149802  1  -1.172986  0  -0.327523  -0.569068  0  2.310533  0
O  O44  1  0.66885695  0.54763461  0.67033154  1  -1.163599  0  -0.327693  -0.556397  0  2.268284  0
O  O45  1  0.33185073  0.45828362  0.33065316  1  -1.155167  0  -0.328013  -0.558438  0  2.269883  0
O  O46  1  0.36967294  0.27337814  0.49450340  1  -1.158829  0  -0.315568  -0.535068  0  2.27909  0
O  O47  1  0.62810717  0.71645073  0.48921062  1  -1.158093  0  -0.315617  -0.536995  0  2.285869  0
O  O48  1  0.61323257  0.34162365  0.49535856  1  -1.180945  0  -0.313202  -0.566704  0  2.335583  0
O  O49  1  0.39144302  0.65033800  0.52136969  1  -1.173232  0  -0.313972  -0.568751  0  2.337721  0
F  F50  1  0.40039551  0.11691144  0.91186673  1  -0.640842  0  -0.11484  -0.167089  0  1.306109  0
F  F51  1  0.59528371  0.87530220  0.08663983  1  -0.636791  0  -0.115271  -0.167313  0  1.306028  0
