# generated using pymatgen
data_KH6C8O3
_symmetry_space_group_name_H-M   'P 1'
_cell_length_a   3.99677429
_cell_length_b   11.28126958
_cell_length_c   18.16928612
_cell_angle_alpha   106.66494537
_cell_angle_beta   90.00021327
_cell_angle_gamma   90.00020503
_symmetry_Int_Tables_number   1
_chemical_formula_structural   KH6C8O3
_chemical_formula_sum   'K4 H24 C32 O12'
_cell_volume   784.82011311
_cell_formula_units_Z   4
loop_
 _symmetry_equiv_pos_site_id
 _symmetry_equiv_pos_as_xyz
  1  'x, y, z'
loop_
 _atom_site_type_symbol
 _atom_site_label
 _atom_site_symmetry_multiplicity
 _atom_site_fract_x
 _atom_site_fract_y
 _atom_site_fract_z
 _atom_site_occupancy
 _atom_site_hle17_bader_spin_density
 _atom_site_hle17_ddec_charge
 _atom_site_hle17_ddec_spin_density
 _atom_site_hle17_ddec_sum_bond_order
 _atom_site_hle17_magmom
 _atom_site_hse06_10hf_bader_spin_density
 _atom_site_hse06_10hf_ddec_charge
 _atom_site_hse06_10hf_ddec_spin_density
 _atom_site_hse06_10hf_ddec_sum_bond_order
 _atom_site_hse06_10hf_magmom
 _atom_site_hse06_bader_spin_density
 _atom_site_hse06_ddec_charge
 _atom_site_hse06_ddec_spin_density
 _atom_site_hse06_ddec_sum_bond_order
 _atom_site_hse06_magmom
 _atom_site_pbe_bader_spin_density
 _atom_site_pbe_cm5_charge
 _atom_site_pbe_ddec_charge
 _atom_site_pbe_ddec_spin_density
 _atom_site_pbe_ddec_sum_bond_order
 _atom_site_pbe_magmom
K  K0  1  0.69481487  0.85157604  0.93934470  1  0  0.93062  0  0.512936  0  0  0.882477  0  0.705844  0  0  0.898772  0  0.681686  0  0  0.814279  0.870232  0  0.723149  0
K  K1  1  0.19483339  0.64842120  0.06065883  1  0  0.930591  0  0.512964  0  0  0.882451  0  0.705865  0  0  0.898751  0  0.681702  0  0  0.814278  0.870202  0  0.723184  0
K  K2  1  0.30516985  0.14842264  0.06066254  1  0  0.930603  0  0.512957  0  0  0.882454  0  0.705871  0  0  0.898754  0  0.681709  0  0  0.814269  0.870205  0  0.723188  0
K  K3  1  0.80517384  0.35157481  0.93933748  1  0  0.930602  0  0.512955  0  0  0.882454  0  0.705884  0  0  0.89875  0  0.681722  0  0  0.814253  0.870211  0  0.723188  0
H  H4  1  0.71254000  0.74699909  0.19681262  1  0  0.085838  0  0.989449  0  0  0.090756  0  1.063941  0  0  0.09501  0  1.059736  0  0  0.105078  0.087666  0  1.066994  0
H  H5  1  0.21254433  0.75300100  0.80318704  1  0  0.085858  0  0.989455  0  0  0.090786  0  1.063925  0  0  0.095043  0  1.059726  0  0  0.105093  0.087695  0  1.066978  0
H  H6  1  0.28746723  0.25300058  0.80318820  1  0  0.085813  0  0.989387  0  0  0.09073  0  1.063895  0  0  0.094982  0  1.05969  0  0  0.105066  0.08764  0  1.066949  0
H  H7  1  0.78746040  0.24700236  0.19681500  1  0  0.085756  0  0.98937  0  0  0.090661  0  1.063879  0  0  0.094921  0  1.059681  0  0  0.105037  0.087572  0  1.066931  0
H  H8  1  0.90817885  0.74840332  0.32650706  1  0  0.106909  0  0.955483  0  0  0.119846  0  1.013466  0  0  0.123117  0  1.01197  0  0  0.103233  0.117488  0  1.014712  0
H  H9  1  0.40818853  0.75159897  0.67349370  1  0  0.106894  0  0.955452  0  0  0.119802  0  1.013471  0  0  0.123071  0  1.011973  0  0  0.103216  0.117445  0  1.014717  0
H  H10  1  0.09182088  0.25159726  0.67349502  1  0  0.106889  0  0.955475  0  0  0.119828  0  1.013454  0  0  0.123099  0  1.011959  0  0  0.103229  0.11747  0  1.014703  0
H  H11  1  0.59181120  0.24840718  0.32650774  1  0  0.106905  0  0.955483  0  0  0.119831  0  1.013472  0  0  0.123103  0  1.011975  0  0  0.103245  0.117473  0  1.014722  0
H  H12  1  0.31017618  0.11504387  0.35943624  1  0  0.097845  0  0.983876  0  0  0.106467  0  1.050565  0  0  0.110111  0  1.048387  0  0  0.098407  0.103842  0  1.052278  0
H  H13  1  0.81017308  0.38495452  0.64056285  1  0  0.097803  0  0.983918  0  0  0.106416  0  1.050617  0  0  0.110061  0  1.048438  0  0  0.098387  0.103791  0  1.052329  0
H  H14  1  0.68983105  0.88495397  0.64056204  1  0  0.097824  0  0.983876  0  0  0.106437  0  1.050579  0  0  0.110082  0  1.0484  0  0  0.098381  0.103812  0  1.05229  0
H  H15  1  0.18981915  0.61504703  0.35943555  1  0  0.097827  0  0.983859  0  0  0.10643  0  1.050579  0  0  0.110075  0  1.048401  0  0  0.098387  0.103803  0  1.052293  0
H  H16  1  0.10914800  0.11282916  0.23088969  1  0  0.087855  0  0.962162  0  0  0.0985  0  1.026395  0  0  0.101258  0  1.024725  0  0  0.106166  0.096488  0  1.027655  0
H  H17  1  0.60914954  0.38717257  0.76910929  1  0  0.087891  0  0.962139  0  0  0.098536  0  1.026374  0  0  0.101295  0  1.024701  0  0  0.10617  0.096523  0  1.027634  0
H  H18  1  0.89085423  0.88716959  0.76911041  1  0  0.087828  0  0.96219  0  0  0.098473  0  1.026424  0  0  0.10123  0  1.024755  0  0  0.10615  0.09646  0  1.027683  0
H  H19  1  0.39085269  0.61283268  0.23088979  1  0  0.087885  0  0.962238  0  0  0.098534  0  1.026456  0  0  0.101293  0  1.024784  0  0  0.106185  0.096522  0  1.027714  0
H  H20  1  0.27166614  0.10375876  0.48932908  1  0  0.062409  0  0.915124  0  0  0.073552  0  0.97934  0  0  0.074937  0  0.977033  0  0  0.102319  0.072491  0  0.98107  0
H  H21  1  0.77166851  0.39624049  0.51066904  1  0  0.062417  0  0.915171  0  0  0.07358  0  0.979385  0  0  0.074962  0  0.97708  0  0  0.102364  0.072519  0  0.981118  0
H  H22  1  0.72833108  0.89624000  0.51066937  1  0  0.062447  0  0.915137  0  0  0.073579  0  0.97936  0  0  0.074963  0  0.977052  0  0  0.102352  0.072518  0  0.981089  0
H  H23  1  0.22833122  0.60375736  0.48932870  1  0  0.062392  0  0.915133  0  0  0.073561  0  0.979311  0  0  0.074948  0  0.977005  0  0  0.102335  0.072501  0  0.98104  0
H  H24  1  0.63954706  0.04558659  0.43393276  1  0  0.055996  0  0.952908  0  0  0.06653  0  1.021811  0  0  0.066558  0  1.022132  0  0  0.100796  0.066388  0  1.021771  0
H  H25  1  0.13955451  0.45441242  0.56606630  1  0  0.056013  0  0.952841  0  0  0.066546  0  1.021762  0  0  0.066569  0  1.022088  0  0  0.100773  0.066436  0  1.021689  0
H  H26  1  0.36044766  0.95441309  0.56606751  1  0  0.056  0  0.95287  0  0  0.066583  0  1.021705  0  0  0.066609  0  1.022026  0  0  0.100803  0.066444  0  1.021661  0
H  H27  1  0.86044772  0.54558820  0.43393248  1  0  0.055961  0  0.952895  0  0  0.066544  0  1.021746  0  0  0.066573  0  1.02207  0  0  0.100796  0.066411  0  1.021697  0
C  C28  1  0.78306217  0.92471120  0.12437225  1  0  0.670922  0  3.964662  0  0  0.627758  0  4.259729  0  0  0.661442  0  4.250569  0  0  0.18476  0.604917  0  4.265153  0
C  C29  1  0.28305089  0.57528719  0.87562605  1  0  0.671008  0  3.96457  0  0  0.627859  0  4.259614  0  0  0.661545  0  4.250452  0  0  0.184816  0.605019  0  4.265034  0
C  C30  1  0.21694006  0.07528290  0.87562921  1  0  0.670978  0  3.964571  0  0  0.627789  0  4.259676  0  0  0.661474  0  4.250515  0  0  0.184777  0.604948  0  4.265099  0
C  C31  1  0.71693633  0.42471806  0.12437358  1  0  0.671043  0  3.964399  0  0  0.6278  0  4.259591  0  0  0.661486  0  4.250429  0  0  0.184774  0.604959  0  4.265014  0
C  C32  1  0.89772783  0.92970240  0.20426878  1  0  -0.095865  0  3.751764  0  0  -0.073093  0  3.981641  0  0  -0.083057  0  4.006341  0  0  -0.026423  -0.066719  0  3.964997  0
C  C33  1  0.39772518  0.57029711  0.79573037  1  0  -0.095805  0  3.751732  0  0  -0.073028  0  3.981606  0  0  -0.082993  0  4.006307  0  0  -0.026408  -0.066656  0  3.964956  0
C  C34  1  0.10228191  0.07029726  0.79573259  1  0  -0.09588  0  3.751769  0  0  -0.073096  0  3.981659  0  0  -0.083061  0  4.006358  0  0  -0.026449  -0.066722  0  3.965008  0
C  C35  1  0.60227454  0.42970257  0.20426990  1  0  -0.095882  0  3.751657  0  0  -0.073086  0  3.981559  0  0  -0.08305  0  4.006258  0  0  -0.02643  -0.066712  0  3.964911  0
C  C36  1  0.84309349  0.82783058  0.23272899  1  0  -0.062859  0  3.775394  0  0  -0.084412  0  4.024459  0  0  -0.08267  0  4.045348  0  0  -0.084244  -0.085156  0  4.010131  0
C  C37  1  0.34310391  0.67217069  0.76726988  1  0  -0.062944  0  3.775528  0  0  -0.08451  0  4.024599  0  0  -0.082773  0  4.045489  0  0  -0.084275  -0.085254  0  4.010269  0
C  C38  1  0.15690624  0.17216725  0.76727094  1  0  -0.062845  0  3.77532  0  0  -0.0844  0  4.024386  0  0  -0.082659  0  4.045283  0  0  -0.084238  -0.085145  0  4.010057  0
C  C39  1  0.65689581  0.32783362  0.23273067  1  0  -0.062837  0  3.775464  0  0  -0.084376  0  4.02453  0  0  -0.082645  0  4.045427  0  0  -0.084257  -0.085121  0  4.010204  0
C  C40  1  0.95482169  0.82755372  0.30493163  1  0  -0.177591  0  3.738336  0  0  -0.198854  0  3.99197  0  0  -0.20536  0  4.011287  0  0  -0.102237  -0.194616  0  3.979031  0
C  C41  1  0.45483342  0.67244405  0.69506670  1  0  -0.17754  0  3.738369  0  0  -0.198766  0  3.991989  0  0  -0.205269  0  4.011306  0  0  -0.10223  -0.19453  0  3.97905  0
C  C42  1  0.04518054  0.17244411  0.69506775  1  0  -0.177555  0  3.738268  0  0  -0.198814  0  3.991898  0  0  -0.205321  0  4.011214  0  0  -0.102225  -0.194578  0  3.978962  0
C  C43  1  0.54517882  0.32755749  0.30493281  1  0  -0.177498  0  3.738342  0  0  -0.198725  0  3.991945  0  0  -0.205232  0  4.011267  0  0  -0.102184  -0.194489  0  3.979012  0
C  C44  1  0.13012502  0.93010562  0.35059655  1  0  0.275761  0  3.815732  0  0  0.266768  0  4.075563  0  0  0.279497  0  4.091257  0  0  0.082533  0.258065  0  4.06489  0
C  C45  1  0.63012889  0.56989526  0.64940208  1  0  0.275792  0  3.815534  0  0  0.266825  0  4.075351  0  0  0.279551  0  4.091046  0  0  0.082582  0.258118  0  4.064686  0
C  C46  1  0.86987721  0.06989314  0.64940190  1  0  0.275762  0  3.815619  0  0  0.266777  0  4.075465  0  0  0.279505  0  4.09116  0  0  0.082523  0.258075  0  4.064794  0
C  C47  1  0.36987584  0.43011090  0.35059827  1  0  0.275744  0  3.815629  0  0  0.266702  0  4.075523  0  0  0.279429  0  4.091217  0  0  0.08252  0.257997  0  4.064855  0
C  C48  1  0.17943505  0.03396583  0.32426215  1  0  -0.219588  0  3.775696  0  0  -0.24007  0  4.033683  0  0  -0.247822  0  4.054579  0  0  -0.112859  -0.234942  0  4.019623  0
C  C49  1  0.67944085  0.46603231  0.67573734  1  0  -0.219509  0  3.775621  0  0  -0.239982  0  4.033603  0  0  -0.247733  0  4.054498  0  0  -0.112801  -0.234857  0  4.019544  0
C  C50  1  0.82055967  0.96603384  0.67573811  1  0  -0.219556  0  3.775655  0  0  -0.240039  0  4.033656  0  0  -0.24779  0  4.054552  0  0  -0.112813  -0.234912  0  4.019591  0
C  C51  1  0.32056388  0.53396922  0.32426217  1  0  -0.219534  0  3.775755  0  0  -0.24  0  4.033759  0  0  -0.247752  0  4.054657  0  0  -0.112819  -0.234871  0  4.019696  0
C  C52  1  0.06455680  0.03256696  0.25148169  1  0  -0.029365  0  3.739282  0  0  -0.051503  0  3.985582  0  0  -0.048878  0  4.005961  0  0  -0.076677  -0.052914  0  3.971644  0
C  C53  1  0.56454881  0.46743376  0.74851707  1  0  -0.029435  0  3.739324  0  0  -0.051573  0  3.985622  0  0  -0.048948  0  4.006  0  0  -0.076692  -0.052983  0  3.971677  0
C  C54  1  0.93545043  0.96743179  0.74851786  1  0  -0.029329  0  3.739222  0  0  -0.051459  0  3.985508  0  0  -0.048834  0  4.005888  0  0  -0.076644  -0.052868  0  3.97156  0
C  C55  1  0.43543841  0.53256964  0.25148167  1  0  -0.029458  0  3.739346  0  0  -0.051594  0  3.985634  0  0  -0.048969  0  4.006011  0  0  -0.076707  -0.053003  0  3.971688  0
C  C56  1  0.43263285  0.02190100  0.46711830  1  0  0.069144  0  3.619864  0  0  0.006634  0  3.894009  0  0  0.014798  0  3.897145  0  0  -0.068249  0.001114  0  3.891779  0
C  C57  1  0.93263642  0.47809761  0.53288094  1  0  0.069032  0  3.619801  0  0  0.006474  0  3.894071  0  0  0.01465  0  3.897201  0  0  -0.068343  0.00093  0  3.891839  0
C  C58  1  0.56736437  0.97809776  0.53288125  1  0  0.06892  0  3.619907  0  0  0.006424  0  3.894042  0  0  0.014596  0  3.897171  0  0  -0.068347  0.000901  0  3.891814  0
C  C59  1  0.06736081  0.52190115  0.46711806  1  0  0.069048  0  3.619738  0  0  0.006531  0  3.893872  0  0  0.014683  0  3.897013  0  0  -0.068289  0.001002  0  3.89165  0
O  O60  1  0.81116009  0.02160611  0.10196106  1  0  -0.781941  0  1.961329  0  0  -0.734893  0  2.206928  0  0  -0.758554  0  2.194102  0  0  -0.511505  -0.718187  0  2.215287  0
O  O61  1  0.31117076  0.47839135  0.89803842  1  0  -0.781994  0  1.961214  0  0  -0.734963  0  2.206834  0  0  -0.758623  0  2.194002  0  0  -0.511524  -0.718261  0  2.2152  0
O  O62  1  0.18883963  0.97839448  0.89804103  1  0  -0.781956  0  1.961405  0  0  -0.734915  0  2.207049  0  0  -0.758572  0  2.19422  0  0  -0.511492  -0.718214  0  2.215418  0
O  O63  1  0.68884398  0.52160648  0.10196097  1  0  -0.781951  0  1.961419  0  0  -0.734878  0  2.207055  0  0  -0.758536  0  2.194224  0  0  -0.511489  -0.718177  0  2.215424  0
O  O64  1  0.66798351  0.82183735  0.08264816  1  0  -0.77964  0  1.970392  0  0  -0.73216  0  2.214301  0  0  -0.756136  0  2.20287  0  0  -0.530803  -0.715211  0  2.221653  0
O  O65  1  0.16795894  0.67815527  0.91735009  1  0  -0.779699  0  1.970466  0  0  -0.732226  0  2.214389  0  0  -0.756203  0  2.202958  0  0  -0.530805  -0.715279  0  2.22174  0
O  O66  1  0.33202122  0.17816324  0.91735392  1  0  -0.779693  0  1.970277  0  0  -0.732202  0  2.214221  0  0  -0.756177  0  2.202787  0  0  -0.530779  -0.715255  0  2.221574  0
O  O67  1  0.83201326  0.32183701  0.08264883  1  0  -0.779735  0  1.970128  0  0  -0.732224  0  2.214076  0  0  -0.756204  0  2.202648  0  0  -0.530789  -0.715275  0  2.221429  0
O  O68  1  0.24306412  0.92066256  0.41997292  1  0  -0.296366  0  2.309702  0  0  -0.224221  0  2.545754  0  0  -0.242948  0  2.548016  0  0  -0.184577  -0.210857  0  2.543643  0
O  O69  1  0.74307195  0.57933668  0.58002550  1  0  -0.296357  0  2.309595  0  0  -0.224254  0  2.545702  0  0  -0.242976  0  2.547956  0  0  -0.184591  -0.210891  0  2.543605  0
O  O70  1  0.75693060  0.07933620  0.58002663  1  0  -0.296326  0  2.309665  0  0  -0.224225  0  2.545742  0  0  -0.242948  0  2.547998  0  0  -0.184583  -0.210861  0  2.543633  0
O  O71  1  0.25692528  0.42066395  0.41997164  1  0  -0.296293  0  2.309598  0  0  -0.224143  0  2.545674  0  0  -0.242859  0  2.547932  0  0  -0.184558  -0.21078  0  2.54357  0
