# generated using pymatgen
data_CuH8C6IN2
_symmetry_space_group_name_H-M   'P 1'
_cell_length_a   7.59732663
_cell_length_b   7.69020993
_cell_length_c   14.22661508
_cell_angle_alpha   90.00035066
_cell_angle_beta   89.99830651
_cell_angle_gamma   75.83040527
_symmetry_Int_Tables_number   1
_chemical_formula_structural   CuH8C6IN2
_chemical_formula_sum   'Cu4 H32 C24 I4 N8'
_cell_volume   805.90186181
_cell_formula_units_Z   4
loop_
 _symmetry_equiv_pos_site_id
 _symmetry_equiv_pos_as_xyz
  1  'x, y, z'
loop_
 _atom_site_type_symbol
 _atom_site_label
 _atom_site_symmetry_multiplicity
 _atom_site_fract_x
 _atom_site_fract_y
 _atom_site_fract_z
 _atom_site_occupancy
 _atom_site_hle17_bader_spin_density
 _atom_site_hle17_ddec_charge
 _atom_site_hle17_ddec_spin_density
 _atom_site_hle17_ddec_sum_bond_order
 _atom_site_hle17_magmom
 _atom_site_hse06_10hf_bader_spin_density
 _atom_site_hse06_10hf_ddec_charge
 _atom_site_hse06_10hf_ddec_spin_density
 _atom_site_hse06_10hf_ddec_sum_bond_order
 _atom_site_hse06_10hf_magmom
 _atom_site_hse06_bader_spin_density
 _atom_site_hse06_ddec_charge
 _atom_site_hse06_ddec_spin_density
 _atom_site_hse06_ddec_sum_bond_order
 _atom_site_hse06_magmom
 _atom_site_pbe_bader_spin_density
 _atom_site_pbe_cm5_charge
 _atom_site_pbe_ddec_charge
 _atom_site_pbe_ddec_spin_density
 _atom_site_pbe_ddec_sum_bond_order
 _atom_site_pbe_magmom
Cu  Cu0  1  0.17103528  0.94063943  0.97905067  1  0  0.306526  0  2.05908  0  0  0.212049  0  2.540533  0  0  0.222553  0  2.487808  0  0  0.326083  0.20843  0  2.573313  0
Cu  Cu1  1  0.32895596  0.55935471  0.47906684  1  0  0.306675  0  2.059017  0  0  0.212234  0  2.540446  0  0  0.222746  0  2.487753  0  0  0.326178  0.208623  0  2.573203  0
Cu  Cu2  1  0.82920155  0.05907317  0.02091840  1  0  0.306689  0  2.058548  0  0  0.212101  0  2.540245  0  0  0.222768  0  2.487262  0  0  0.326263  0.208452  0  2.573003  0
Cu  Cu3  1  0.67081734  0.44092197  0.52092330  1  0  0.306776  0  2.058573  0  0  0.212171  0  2.540255  0  0  0.222826  0  2.487285  0  0  0.326249  0.208478  0  2.573117  0
H  H4  1  0.76349720  0.43638542  0.95260591  1  0  0.071948  0  0.992819  0  0  0.075487  0  1.069132  0  0  0.078563  0  1.066893  0  0  0.089455  0.073105  0  1.070998  0
H  H5  1  0.73652696  0.06358518  0.45260842  1  0  0.071808  0  0.992919  0  0  0.075375  0  1.069229  0  0  0.078449  0  1.066981  0  0  0.089402  0.072996  0  1.071094  0
H  H6  1  0.23681793  0.56323504  0.04741237  1  0  0.071681  0  0.993359  0  0  0.075242  0  1.06965  0  0  0.078376  0  1.067259  0  0  0.089286  0.072853  0  1.071545  0
H  H7  1  0.26317850  0.93673922  0.54740772  1  0  0.071701  0  0.993483  0  0  0.075247  0  1.06975  0  0  0.078379  0  1.067356  0  0  0.089291  0.072857  0  1.071653  0
H  H8  1  0.52204768  0.64561569  0.86262565  1  0  0.092142  0  0.962484  0  0  0.102281  0  1.026143  0  0  0.10585  0  1.024097  0  0  0.096925  0.099596  0  1.0279  0
H  H9  1  0.97797250  0.85433958  0.36262662  1  0  0.091916  0  0.962553  0  0  0.102051  0  1.026255  0  0  0.105634  0  1.024175  0  0  0.096786  0.099365  0  1.028013  0
H  H10  1  0.47819515  0.35415544  0.13743972  1  0  0.09207  0  0.962387  0  0  0.102101  0  1.026162  0  0  0.105675  0  1.024104  0  0  0.09681  0.099427  0  1.027902  0
H  H11  1  0.02180552  0.14588670  0.63743241  1  0  0.09214  0  0.962421  0  0  0.102188  0  1.026154  0  0  0.105757  0  1.024106  0  0  0.096856  0.099516  0  1.027889  0
H  H12  1  0.25837027  0.53598405  0.79871511  1  0  0.099703  0  0.944386  0  0  0.109594  0  1.0064  0  0  0.113235  0  1.003124  0  0  0.096068  0.106777  0  1.009117  0
H  H13  1  0.24163650  0.96397103  0.29872069  1  0  0.099808  0  0.944643  0  0  0.109773  0  1.006534  0  0  0.113407  0  1.003259  0  0  0.09615  0.106957  0  1.009244  0
H  H14  1  0.74179119  0.46379150  0.20134675  1  0  0.099771  0  0.944537  0  0  0.109852  0  1.006258  0  0  0.113455  0  1.003012  0  0  0.096348  0.107047  0  1.008949  0
H  H15  1  0.75819407  0.03626692  0.70132991  1  0  0.099803  0  0.944644  0  0  0.109934  0  1.006269  0  0  0.113541  0  1.003014  0  0  0.09635  0.107127  0  1.008961  0
H  H16  1  0.51122077  0.02001000  0.91892759  1  0  0.06868  0  0.982318  0  0  0.071695  0  1.063956  0  0  0.075851  0  1.058574  0  0  0.099112  0.068404  0  1.068288  0
H  H17  1  0.98880296  0.47998446  0.41893341  1  0  0.068757  0  0.982341  0  0  0.071777  0  1.063967  0  0  0.075933  0  1.058586  0  0  0.099154  0.068483  0  1.06829  0
H  H18  1  0.48898328  0.97977298  0.08098736  1  0  0.06894  0  0.982074  0  0  0.071943  0  1.063723  0  0  0.076118  0  1.058297  0  0  0.099136  0.068646  0  1.068058  0
H  H19  1  0.01100330  0.52022969  0.58099910  1  0  0.068829  0  0.98223  0  0  0.071852  0  1.063861  0  0  0.076029  0  1.058429  0  0  0.099127  0.068553  0  1.068195  0
H  H20  1  0.08064029  0.28025260  0.85184803  1  0  0.07363  0  0.924866  0  0  0.091639  0  0.98775  0  0  0.092182  0  0.987423  0  0  0.09936  0.09095  0  0.988313  0
H  H21  1  0.41935743  0.21974844  0.35183657  1  0  0.073514  0  0.924903  0  0  0.091525  0  0.987817  0  0  0.09206  0  0.987494  0  0  0.099348  0.090844  0  0.988372  0
H  H22  1  0.91957830  0.71954861  0.14817235  1  0  0.073825  0  0.924283  0  0  0.091698  0  0.987246  0  0  0.092257  0  0.986929  0  0  0.099411  0.090986  0  0.987845  0
H  H23  1  0.58043038  0.78047419  0.64817958  1  0  0.07371  0  0.924371  0  0  0.091604  0  0.987322  0  0  0.09216  0  0.987004  0  0  0.099372  0.090921  0  0.987897  0
H  H24  1  0.19660425  0.22673481  0.74202152  1  0  0.043028  0  0.978737  0  0  0.057573  0  1.053226  0  0  0.057674  0  1.053417  0  0  0.081861  0.05741  0  1.0531  0
H  H25  1  0.30341637  0.27322323  0.24202194  1  0  0.042876  0  0.978692  0  0  0.057401  0  1.05323  0  0  0.057538  0  1.053393  0  0  0.081812  0.057234  0  1.053106  0
H  H26  1  0.80350796  0.77309706  0.25801362  1  0  0.042875  0  0.978502  0  0  0.057396  0  1.052969  0  0  0.057526  0  1.053162  0  0  0.081792  0.05724  0  1.052839  0
H  H27  1  0.69646074  0.72696789  0.75800546  1  0  0.042888  0  0.97862  0  0  0.05739  0  1.053102  0  0  0.05751  0  1.053297  0  0  0.081797  0.057229  0  1.052981  0
H  H28  1  0.11699939  0.97032208  0.80693014  1  0  0.273573  0  0.929087  0  0  0.266867  0  0.986577  0  0  0.27115  0  0.984411  0  0  0.274879  0.263837  0  0.988221  0
H  H29  1  0.38300288  0.52965865  0.30693613  1  0  0.273517  0  0.929282  0  0  0.266827  0  0.986738  0  0  0.271112  0  0.984571  0  0  0.274821  0.263798  0  0.988379  0
H  H30  1  0.88317217  0.02948396  0.19305299  1  0  0.273058  0  0.92973  0  0  0.266535  0  0.987025  0  0  0.270802  0  0.984896  0  0  0.274776  0.263502  0  0.988673  0
H  H31  1  0.61677802  0.47056600  0.69305472  1  0  0.273073  0  0.92961  0  0  0.266565  0  0.98689  0  0  0.270835  0  0.984756  0  0  0.274712  0.263531  0  0.988532  0
H  H32  1  0.33743672  0.93416605  0.81138149  1  0  0.269172  0  0.898174  0  0  0.272396  0  0.93975  0  0  0.275425  0  0.938738  0  0  0.290247  0.270379  0  0.940418  0
H  H33  1  0.16255383  0.56579246  0.31139273  1  0  0.269313  0  0.89804  0  0  0.272492  0  0.939674  0  0  0.275522  0  0.938664  0  0  0.290222  0.270469  0  0.940351  0
H  H34  1  0.66273915  0.06560144  0.18858055  1  0  0.269146  0  0.897748  0  0  0.272369  0  0.939339  0  0  0.27539  0  0.938333  0  0  0.290189  0.270349  0  0.940015  0
H  H35  1  0.83725619  0.43445022  0.68859179  1  0  0.269155  0  0.89752  0  0  0.272366  0  0.939174  0  0  0.275386  0  0.938169  0  0  0.290172  0.270344  0  0.939854  0
C  C36  1  0.50610900  0.16037623  0.90445415  1  0  0.052915  0  3.681161  0  0  0.01435  0  3.934326  0  0  0.020609  0  3.948918  0  0  0.021843  0.009838  0  3.925629  0
C  C37  1  0.99391489  0.33961714  0.40446250  1  0  0.052789  0  3.680541  0  0  0.014205  0  3.933715  0  0  0.020456  0  3.948318  0  0  0.021752  0.009709  0  3.925003  0
C  C38  1  0.49413121  0.83936755  0.09551000  1  0  0.053203  0  3.680533  0  0  0.014641  0  3.933806  0  0  0.020938  0  3.948325  0  0  0.021991  0.010125  0  3.925137  0
C  C39  1  0.00586134  0.66063953  0.59551077  1  0  0.05321  0  3.680189  0  0  0.014736  0  3.933491  0  0  0.021039  0  3.94801  0  0  0.022002  0.010222  0  3.924808  0
C  C40  1  0.36306620  0.26828053  0.85432897  1  0  0.033951  0  3.744564  0  0  0.060487  0  3.978928  0  0  0.056347  0  4.003173  0  0  -0.010554  0.06263  0  3.963414  0
C  C41  1  0.13694563  0.23168575  0.35433434  1  0  0.034128  0  3.743986  0  0  0.060648  0  3.978434  0  0  0.056502  0  4.002695  0  0  -0.010499  0.062791  0  3.962913  0
C  C42  1  0.63714916  0.73150655  0.14568580  1  0  0.033713  0  3.744248  0  0  0.059963  0  3.978909  0  0  0.055839  0  4.003168  0  0  -0.01075  0.062113  0  3.963405  0
C  C43  1  0.86282185  0.76853109  0.64568322  1  0  0.034075  0  3.743614  0  0  0.060105  0  3.978589  0  0  0.055979  0  4.002844  0  0  -0.010648  0.062258  0  3.963085  0
C  C44  1  0.36843392  0.44646028  0.83709275  1  0  -0.065311  0  3.714201  0  0  -0.092292  0  3.963713  0  0  -0.086823  0  3.977527  0  0  -0.079075  -0.096456  0  3.955392  0
C  C45  1  0.13158615  0.05349656  0.33709222  1  0  -0.065799  0  3.714188  0  0  -0.092833  0  3.963741  0  0  -0.08736  0  3.977549  0  0  -0.079168  -0.096985  0  3.955418  0
C  C46  1  0.63180683  0.55329792  0.16293537  1  0  -0.065649  0  3.7135  0  0  -0.092714  0  3.963141  0  0  -0.087203  0  3.976906  0  0  -0.079278  -0.096886  0  3.954835  0
C  C47  1  0.86816671  0.94673887  0.66291620  1  0  -0.066109  0  3.713618  0  0  -0.093145  0  3.963365  0  0  -0.087638  0  3.977131  0  0  -0.079499  -0.097316  0  3.955055  0
C  C48  1  0.51389235  0.50717842  0.87168531  1  0  -0.117011  0  3.776465  0  0  -0.126805  0  4.028326  0  0  -0.132952  0  4.047597  0  0  -0.095807  -0.123087  0  4.016151  0
C  C49  1  0.98613385  0.99276623  0.37168652  1  0  -0.11637  0  3.775994  0  0  -0.126159  0  4.02787  0  0  -0.132297  0  4.047139  0  0  -0.095585  -0.122444  0  4.015703  0
C  C50  1  0.48635031  0.49258484  0.12832664  1  0  -0.116638  0  3.776373  0  0  -0.126449  0  4.028412  0  0  -0.132571  0  4.047662  0  0  -0.095769  -0.122732  0  4.016238  0
C  C51  1  0.01362556  0.00746064  0.62830714  1  0  -0.116462  0  3.776578  0  0  -0.126276  0  4.028571  0  0  -0.132402  0  4.047826  0  0  -0.095674  -0.122562  0  4.016398  0
C  C52  1  0.64998207  0.39128849  0.92263120  1  0  0.106017  0  3.699163  0  0  0.075278  0  3.947  0  0  0.082403  0  3.962739  0  0  0.024751  0.070059  0  3.937801  0
C  C53  1  0.85004404  0.10869649  0.42263282  1  0  0.106071  0  3.69912  0  0  0.075253  0  3.946982  0  0  0.082387  0  3.962717  0  0  0.024734  0.070034  0  3.937793  0
C  C54  1  0.35028986  0.60842838  0.07734912  1  0  0.106085  0  3.699571  0  0  0.075451  0  3.947004  0  0  0.082453  0  3.962983  0  0  0.024889  0.070216  0  3.937859  0
C  C55  1  0.14970545  0.89158921  0.57734678  1  0  0.105968  0  3.699794  0  0  0.075398  0  3.947211  0  0  0.082405  0  3.963186  0  0  0.024801  0.070163  0  3.938057  0
C  C56  1  0.20581120  0.20115479  0.81855027  1  0  0.034505  0  3.695504  0  0  -0.0274  0  3.949381  0  0  -0.023941  0  3.962479  0  0  -0.076105  -0.029381  0  3.94047  0
C  C57  1  0.29418326  0.29882586  0.31854927  1  0  0.03498  0  3.695215  0  0  -0.026926  0  3.949159  0  0  -0.023478  0  3.962215  0  0  -0.075988  -0.028926  0  3.940301  0
C  C58  1  0.79433256  0.79864229  0.18146449  1  0  0.034386  0  3.695818  0  0  -0.027186  0  3.949541  0  0  -0.023841  0  3.962779  0  0  -0.076053  -0.029109  0  3.94053  0
C  C59  1  0.70566020  0.70139630  0.68146336  1  0  0.034514  0  3.695957  0  0  -0.026998  0  3.949705  0  0  -0.023636  0  3.962943  0  0  -0.075974  -0.028938  0  3.940679  0
I  I60  1  0.92491761  0.75724927  0.92468845  1  0  -0.492659  0  1.375946  0  0  -0.438821  0  1.777264  0  0  -0.45728  0  1.743756  0  0  -0.224287  -0.424982  0  1.798757  0
I  I61  1  0.57509347  0.74272053  0.42469173  1  0  -0.492651  0  1.376055  0  0  -0.438811  0  1.777369  0  0  -0.457282  0  1.743872  0  0  -0.224274  -0.424967  0  1.798883  0
I  I62  1  0.07532374  0.24241425  0.07530663  1  0  -0.492711  0  1.376707  0  0  -0.438829  0  1.777936  0  0  -0.457333  0  1.744511  0  0  -0.224189  -0.42497  0  1.799431  0
I  I63  1  0.42467821  0.25759442  0.57530403  1  0  -0.492697  0  1.376761  0  0  -0.438856  0  1.778042  0  0  -0.457358  0  1.7446  0  0  -0.224204  -0.424986  0  1.799545  0
N  N64  1  0.64686927  0.21952139  0.93929636  1  0  -0.27466  0  3.404699  0  0  -0.198138  0  3.694846  0  0  -0.210229  0  3.703827  0  0  -0.370566  -0.191052  0  3.688953  0
N  N65  1  0.85314219  0.28045379  0.43930518  1  0  -0.274844  0  3.404372  0  0  -0.198215  0  3.694468  0  0  -0.210311  0  3.703453  0  0  -0.37052  -0.191125  0  3.68858  0
N  N66  1  0.35340097  0.78017989  0.06065796  1  0  -0.274914  0  3.404938  0  0  -0.198314  0  3.695085  0  0  -0.210365  0  3.703985  0  0  -0.370368  -0.191239  0  3.689255  0
N  N67  1  0.14661518  0.71982321  0.56067231  1  0  -0.274893  0  3.40507  0  0  -0.198384  0  3.695278  0  0  -0.210445  0  3.704197  0  0  -0.370379  -0.191309  0  3.689432  0
N  N68  1  0.22012139  0.01065248  0.84002471  1  0  -0.576129  0  3.214498  0  0  -0.526267  0  3.470452  0  0  -0.540698  0  3.466824  0  0  -0.644415  -0.516493  0  3.47219  0
N  N69  1  0.27987922  0.48932709  0.34003165  1  0  -0.576478  0  3.214397  0  0  -0.526619  0  3.470361  0  0  -0.541043  0  3.4667  0  0  -0.644435  -0.516849  0  3.472091  0
N  N70  1  0.78005538  0.98914514  0.15995280  1  0  -0.575543  0  3.214069  0  0  -0.525755  0  3.469588  0  0  -0.540195  0  3.466064  0  0  -0.64428  -0.515961  0  3.471287  0
N  N71  1  0.71992723  0.51088574  0.65995709  1  0  -0.575697  0  3.213882  0  0  -0.525914  0  3.469374  0  0  -0.540349  0  3.465825  0  0  -0.644219  -0.516116  0  3.471073  0
