# generated using pymatgen
data_Zn4H47C57BrN16
_symmetry_space_group_name_H-M   'P 1'
_cell_length_a   14.90601113
_cell_length_b   15.02212989
_cell_length_c   14.79092317
_cell_angle_alpha   114.31272111
_cell_angle_beta   99.37513227
_cell_angle_gamma   114.70129419
_symmetry_Int_Tables_number   1
_chemical_formula_structural   Zn4H47C57BrN16
_chemical_formula_sum   'Zn4 H47 C57 Br1 N16'
_cell_volume   2507.65553515
_cell_formula_units_Z   1
loop_
 _symmetry_equiv_pos_site_id
 _symmetry_equiv_pos_as_xyz
  1  'x, y, z'
loop_
 _atom_site_type_symbol
 _atom_site_label
 _atom_site_symmetry_multiplicity
 _atom_site_fract_x
 _atom_site_fract_y
 _atom_site_fract_z
 _atom_site_occupancy
 _atom_site_pbe_bader_charge
 _atom_site_pbe_bader_spin_density
 _atom_site_pbe_cm5_charge
 _atom_site_pbe_ddec_charge
 _atom_site_pbe_ddec_spin_density
 _atom_site_pbe_ddec_sum_bond_order
 _atom_site_pbe_magmom
Zn  Zn0  1  0.36005732  0.85992110  0.00452212  1  1.189876  0  0.741921  0.613938  0  2.432851  0
Zn  Zn1  1  0.64004045  0.14083183  0.99859655  1  1.188416  0  0.742545  0.608898  0  2.453343  0
Zn  Zn2  1  0.49579626  0.14203937  0.14200773  1  1.184915  0  0.742305  0.599129  0  2.491727  0
Zn  Zn3  1  0.49772988  0.85662196  0.85498770  1  1.186067  0  0.739867  0.607655  0  2.446947  0
H  H4  1  0.13481090  0.81033718  0.04711833  1  0.110549  0  0.114966  0.101271  0  1.011295  0
H  H5  1  0.14332077  0.78945318  0.52099079  1  0.018908  0  0.089907  0.086892  0  0.980164  0
H  H6  1  0.97120076  0.66536786  0.37828255  1  0.019899  0  0.089564  0.086641  0  0.979997  0
H  H7  1  0.73876321  0.18984281  0.82557708  1  0.097583  0  0.114876  0.103887  0  1.011161  0
H  H8  1  0.01071033  0.56572527  0.32762394  1  0.01434  0  0.085884  0.078157  0  0.999162  0
H  H9  1  0.12360095  0.55713590  0.57135518  1  0.02503  0  0.087379  0.084582  0  0.988092  0
H  H10  1  0.98238291  0.43016474  0.39770704  1  -0.007964  0  0.085508  0.080496  0  0.987029  0
H  H11  1  0.99014780  0.71638543  0.68401996  1  0.012051  0  0.084917  0.079198  0  1.000094  0
H  H12  1  0.01871971  0.79345023  0.61840297  1  0.002508  0  0.090085  0.089681  0  0.977436  0
H  H13  1  0.84786552  0.64141148  0.47884916  1  0.014165  0  0.087965  0.0836  0  0.986779  0
H  H14  1  0.83636427  0.55296506  0.53185058  1  0.003647  0  0.084501  0.076401  0  0.99097  0
H  H15  1  0.86650342  0.39190475  0.17992715  1  0.072262  0  0.113298  0.099154  0  1.01116  0
H  H16  1  0.03364019  0.55850788  0.63488432  1  -0.003774  0  0.085377  0.080669  0  0.986437  0
H  H17  1  0.89364110  0.40876130  0.46302839  1  -0.001578  0  0.084437  0.077049  0  1.001803  0
H  H18  1  0.31933324  0.16244286  0.01259570  1  0.063114  0  0.114159  0.100968  0  1.016674  0
H  H19  1  0.62600557  0.84841340  0.33065371  1  0.0307  0  0.089544  0.101016  0  1.022988  0
H  H20  1  0.76251312  0.30162812  0.56140335  1  0.020837  0  0.087011  0.088736  0  0.999277  0
H  H21  1  0.61918880  0.23080503  0.51830382  1  0.026937  0  0.088608  0.09148  0  0.994875  0
H  H22  1  0.77721436  0.29439425  0.72857782  1  0.02964  0  0.086875  0.08749  0  0.998802  0
H  H23  1  0.63394341  0.22287575  0.68489584  1  0.051892  0  0.087968  0.091223  0  0.999926  0
H  H24  1  0.39097793  0.38570150  0.72175309  1  0.049033  0  0.09646  0.097567  0  1.005621  0
H  H25  1  0.40469516  0.23479118  0.73336406  1  0.063467  0  0.097406  0.097946  0  1.001682  0
H  H26  1  0.67577838  0.19758941  0.34601574  1  0.061283  0  0.111471  0.095576  0  1.030027  0
H  H27  1  0.23148919  0.28166825  0.02942219  1  0.042532  0  0.097549  0.112485  0  0.977373  0
H  H28  1  0.37292249  0.38375593  0.11411679  1  0.076818  0  0.092926  0.108968  0  0.996601  0
H  H29  1  0.22174340  0.44217288  0.02140491  1  0.088955  0  0.100995  0.087956  0  0.970551  0
H  H30  1  0.33061118  0.80281690  0.64401704  1  0.081443  0  0.112751  0.099841  0  1.017482  0
H  H31  1  0.15972414  0.17363317  0.27445247  1  0.034931  0  0.092361  0.092375  0  1.011658  0
H  H32  1  0.99411281  0.17256209  0.25477284  1  0.024179  0  0.094186  0.095891  0  1.007851  0
H  H33  1  0.75836435  0.70505216  0.99560758  1  0.042183  0  0.093054  0.098157  0  0.987159  0
H  H34  1  0.77345573  0.74837361  0.90024152  1  0.049414  0  0.089244  0.090892  0  0.995944  0
H  H35  1  0.92908582  0.70662085  0.01420196  1  0.024971  0  0.089443  0.091081  0  0.994569  0
H  H36  1  0.94381972  0.75092013  0.91953003  1  0.046173  0  0.087619  0.088982  0  0.999476  0
H  H37  1  0.65084774  0.80791083  0.98043195  1  0.065961  0  0.114466  0.100286  0  1.023669  0
H  H38  1  0.51679458  0.17793908  0.82710422  1  0.079639  0  0.114341  0.099917  0  1.015067  0
H  H39  1  0.14397213  0.80102698  0.84002334  1  0.077299  0  0.110093  0.094616  0  1.0284  0
H  H40  1  0.54619653  0.81465975  0.63236633  1  0.106209  0  0.114176  0.10219  0  1.017542  0
H  H41  1  0.31444758  0.18547679  0.22737790  1  0.080238  0  0.114608  0.102078  0  1.003656  0
H  H42  1  0.27963013  0.60273762  0.97406954  1  0.09473  0  0.110761  0.099601  0  1.020547  0
H  H43  1  0.69251701  0.83164993  0.56844188  1  0.044687  0  0.087585  0.121761  0  1.007883  0
H  H44  1  0.55809986  0.74514087  0.46960657  1  0.016614  0  0.082857  0.112526  0  1.011625  0
H  H45  1  0.66621164  0.76967316  0.42806281  1  0.043297  0  0.08981  0.127789  0  0.998586  0
H  H46  1  0.84545791  0.18410979  0.16895286  1  0.066705  0  0.111895  0.096734  0  1.01948  0
H  H47  1  0.49333569  0.82141031  0.16798959  1  0.082305  0  0.101413  0.089402  0  1.063136  0
H  H48  1  0.45849058  0.59023854  0.77089380  1  0.067449  0  0.11485  0.100513  0  1.002421  0
H  H49  1  0.67193941  0.40071791  0.36667081  1  0.085773  0  0.113443  0.100622  0  1.009887  0
H  H50  1  0.16738009  0.67640194  0.48337301  1  -0.00155  0  0.08617  0.079687  0  0.989783  0
C  C51  1  0.19390470  0.90271706  0.08890032  1  0.34967  0  0.004298  -0.056252  0  3.992687  0
C  C52  1  0.52992834  0.91273525  0.19656552  1  0.430457  0  0.007718  -0.036872  0  3.936196  0
C  C53  1  0.41587251  0.60937499  0.82166167  1  0.432603  0  0.005305  -0.056776  0  4.001367  0
C  C54  1  0.68802980  0.09756555  0.79258043  1  0.402625  0  0.002008  -0.066638  0  4.001408  0
C  C55  1  0.70494961  0.38270383  0.30580286  1  0.35742  0  -0.005308  -0.075651  0  4.0274  0
C  C56  1  0.36098287  0.54789044  0.86571591  1  0.020234  0  -0.040912  -0.042691  0  4.10793  0
C  C57  1  0.81169951  0.44046003  0.31623293  1  0.063143  0  -0.036563  -0.049537  0  4.030427  0
C  C58  1  0.60854719  0.01160647  0.29885548  1  0.055502  0  -0.03631  -0.034747  0  4.073718  0
C  C59  1  0.78941037  0.99489996  0.09479996  1  0.007722  0  -0.036482  -0.033342  0  4.084353  0
C  C60  1  0.10821247  0.69936684  0.49994283  1  0.004336  0  -0.159866  -0.184058  0  3.868001  0
C  C61  1  0.99986284  0.61655930  0.39857027  1  -0.046375  0  -0.160599  -0.185139  0  3.86994  0
C  C62  1  0.65355916  0.00321130  0.68830651  1  -0.026127  0  -0.037293  -0.021506  0  4.096939  0
C  C63  1  0.05458428  0.56733486  0.56973936  1  -0.020427  0  -0.161776  -0.184584  0  3.868446  0
C  C64  1  0.99825440  0.71000823  0.60935205  1  -0.005086  0  -0.159162  -0.188267  0  3.865922  0
C  C65  1  0.09126901  0.69202476  0.59734494  1  0.070057  0  -0.010414  0.129581  0  3.829844  0
C  C66  1  0.37574947  0.16013286  0.97499165  1  0.415365  0  0.010153  -0.040987  0  3.949184  0
C  C67  1  0.91233769  0.53417353  0.41794275  1  0.080209  0  -0.011841  0.127559  0  3.837336  0
C  C68  1  0.95834289  0.47584186  0.45863736  1  0.005178  0  -0.161434  -0.184113  0  3.87603  0
C  C69  1  0.89073994  0.60850445  0.50939201  1  -0.028028  0  -0.161316  -0.184813  0  3.867682  0
C  C70  1  0.68602816  0.10820141  0.59289890  1  -0.001421  0  -0.023561  0.014654  0  3.938956  0
C  C71  1  0.66718645  0.01002202  0.59540749  1  -0.039751  0  -0.019597  -0.035412  0  4.031008  0
C  C72  1  0.65153468  0.91776767  0.49775210  1  -0.004279  0  -0.015193  0.121454  0  3.952837  0
C  C73  1  0.39707657  0.19165853  0.89977275  1  0.025632  0  -0.03775  -0.038921  0  4.08352  0
C  C74  1  0.64191179  0.92332844  0.40441610  1  -0.037366  0  -0.103669  -0.211712  0  3.954528  0
C  C75  1  0.64739759  0.01742730  0.39941938  1  -0.004189  0  -0.01322  0.047381  0  4.082718  0
C  C76  1  0.67742082  0.11257246  0.49993484  1  -0.040771  0  -0.02449  0.0062  0  3.923326  0
C  C77  1  0.68997058  0.23024850  0.55304678  1  -0.019623  0  -0.156923  -0.188773  0  3.902318  0
C  C78  1  0.29939977  0.81028678  0.70646096  1  0.369974  0  -0.002842  -0.068821  0  3.988088  0
C  C79  1  0.69947603  0.22542588  0.65858088  1  -0.065867  0  -0.157121  -0.193689  0  3.910378  0
C  C80  1  0.32767708  0.41521120  0.93537122  1  -0.002245  0  -0.026317  -0.034833  0  3.924494  0
C  C81  1  0.35204023  0.44564995  0.86083613  1  0.004487  0  -0.01097  0.054465  0  4.059067  0
C  C82  1  0.37545865  0.37213938  0.78606844  1  -0.073268  0  -0.099447  -0.145907  0  4.004421  0
C  C83  1  0.38261084  0.28472333  0.79229932  1  -0.040776  0  -0.094446  -0.131618  0  3.998175  0
C  C84  1  0.19364218  0.77398883  0.69908569  1  0.034783  0  -0.035594  -0.048449  0  4.003713  0
C  C85  1  0.36586178  0.26088090  0.87345693  1  -0.011028  0  -0.010076  0.037783  0  4.055317  0
C  C86  1  0.33324687  0.32688390  0.94055341  1  -0.030523  0  -0.01113  0.045009  0  3.894041  0
C  C87  1  0.30726670  0.35100430  0.03991273  1  -0.04641  0  -0.15812  -0.242265  0  3.895106  0
C  C88  1  0.29918292  0.44867255  0.03220562  1  -0.027221  0  -0.062383  0.036261  0  3.740056  0
C  C89  1  0.98186063  0.89203367  0.08186582  1  -0.003548  0  -0.022088  0.015107  0  3.907536  0
C  C90  1  0.47553657  0.16666093  0.87935894  1  0.429935  0  0.008418  -0.045883  0  3.953619  0
C  C91  1  0.08456839  0.99261813  0.14994586  1  0.042232  0  -0.018512  0.028181  0  4.085188  0
C  C92  1  0.08318857  0.09203584  0.21517712  1  -0.09836  0  -0.103874  -0.148127  0  4.033565  0
C  C93  1  0.98800886  0.09132183  0.20396702  1  0.006607  0  -0.101554  -0.143177  0  4.021193  0
C  C94  1  0.88499125  0.99120162  0.12647845  1  -0.056663  0  -0.014089  0.033494  0  4.066769  0
C  C95  1  0.32513462  0.61598995  0.92557731  1  0.395549  0  0.003906  -0.052224  0  3.99855  0
C  C96  1  0.88677842  0.89116004  0.07089898  1  0.01177  0  -0.018017  0.022126  0  3.894321  0
C  C97  1  0.81617912  0.76434857  0.97869212  1  -0.056611  0  -0.1559  -0.193389  0  3.896792  0
C  C98  1  0.92396996  0.76560648  0.99082294  1  -0.055776  0  -0.156086  -0.192404  0  3.905513  0
C  C99  1  0.20438675  0.80931541  0.80625300  1  0.355466  0  -0.003003  -0.066298  0  3.98484  0
C  C100  1  0.59098010  0.90645460  0.69410584  1  0.388609  0  0.002083  -0.065117  0  3.998343  0
C  C101  1  0.28555394  0.09385890  0.18172164  1  0.378916  0  0.001082  -0.065625  0  4.005897  0
C  C102  1  0.18271725  0.99667646  0.14458294  1  0.040566  0  -0.03977  -0.034777  0  4.113574  0
C  C103  1  0.64178480  0.81082912  0.49095914  1  -0.070559  0  -0.240983  -0.404198  0  3.99879  0
C  C104  1  0.80386205  0.37808419  0.21086361  1  0.324611  0  -0.003632  -0.072327  0  4.024338  0
C  C105  1  0.62198854  0.10478368  0.28811483  1  0.407238  0  0.007846  -0.043896  0  3.954809  0
C  C106  1  0.68466008  0.90031971  0.01824657  1  0.431587  0  0.00757  -0.045775  0  3.95365  0
C  C107  1  0.78372896  0.09228092  0.11518641  1  0.415709  0  0.007594  -0.047169  0  3.956745  0
Br  Br108  1  0.40544771  0.60670122  0.16363477  1  -0.179937  0  -0.041729  -0.166068  0  1.288613  0
N  N109  1  0.29457715  0.94098930  0.09274518  1  -0.829544  0  -0.271119  -0.176684  0  3.535055  0
N  N110  1  0.43849039  0.12260401  0.99860092  1  -0.755074  0  -0.282892  -0.180842  0  3.63209  0
N  N111  1  0.36681118  0.86107469  0.80990085  1  -0.766686  0  -0.286721  -0.181899  0  3.631875  0
N  N112  1  0.50000038  0.12686074  0.94013730  1  -0.811205  0  -0.277754  -0.175958  0  3.613617  0
N  N113  1  0.30836061  0.86052993  0.87125454  1  -0.806185  0  -0.28617  -0.18348  0  3.630537  0
N  N114  1  0.58857023  0.94092965  0.79289153  1  -0.807959  0  -0.272824  -0.177116  0  3.544793  0
N  N115  1  0.35163984  0.06009754  0.15049386  1  -0.757006  0  -0.272025  -0.172299  0  3.551273  0
N  N116  1  0.35604311  0.70929791  0.91770916  1  -0.777408  0  -0.268095  -0.167965  0  3.524134  0
N  N117  1  0.70078599  0.29009610  0.14331430  1  -0.768263  0  -0.276287  -0.175451  0  3.556986  0
N  N118  1  0.55521224  0.06364844  0.18818075  1  -0.750475  0  -0.286667  -0.185874  0  3.646265  0
N  N119  1  0.62353856  0.93940944  0.99426562  1  -0.771311  0  -0.282495  -0.183129  0  3.642801  0
N  N120  1  0.68437863  0.05723362  0.05362999  1  -0.797201  0  -0.280763  -0.177954  0  3.626228  0
N  N121  1  0.49844346  0.94584386  0.13215681  1  -0.841886  0  -0.282868  -0.178738  0  3.629997  0
N  N122  1  0.41290362  0.70554873  0.85309529  1  -0.798127  0  -0.269728  -0.178424  0  3.523151  0
N  N123  1  0.63893984  0.29291020  0.20249421  1  -0.801356  0  -0.278868  -0.181991  0  3.548863  0
N  N124  1  0.64935456  0.06002199  0.85425446  1  -0.771035  0  -0.272752  -0.172276  0  3.561801  0
