# generated using pymatgen
data_CuH20(C7N5)2
_symmetry_space_group_name_H-M   'P 1'
_cell_length_a   9.46256390
_cell_length_b   9.68944895
_cell_length_c   10.27701158
_cell_angle_alpha   88.60885727
_cell_angle_beta   62.54225743
_cell_angle_gamma   86.95412327
_symmetry_Int_Tables_number   1
_chemical_formula_structural   CuH20(C7N5)2
_chemical_formula_sum   'Cu2 H40 C28 N20'
_cell_volume   834.94197193
_cell_formula_units_Z   2
loop_
 _symmetry_equiv_pos_site_id
 _symmetry_equiv_pos_as_xyz
  1  'x, y, z'
loop_
 _atom_site_type_symbol
 _atom_site_label
 _atom_site_symmetry_multiplicity
 _atom_site_fract_x
 _atom_site_fract_y
 _atom_site_fract_z
 _atom_site_occupancy
 _atom_site_pbe_cm5_charge
 _atom_site_pbe_ddec_charge
 _atom_site_pbe_ddec_spin_density
 _atom_site_pbe_ddec_sum_bond_order
 _atom_site_pbe_magmom
Cu  Cu0  1  0.95485132  0.24987818  0.08961970  1  0.755739  0.679399  -0.673143  2.381969  -0.498
Cu  Cu1  1  0.04514551  0.75012149  0.91038593  1  0.7557  0.679303  -0.673014  2.381697  -0.498
H  H2  1  0.28791420  0.26092384  0.85816335  1  0.116741  0.084451  -0.001149  1.020416  -0.001
H  H3  1  0.14684047  0.76140208  0.14167672  1  0.116765  0.084133  -0.001149  1.020361  -0.001
H  H4  1  0.71208344  0.73907894  0.14184132  1  0.116712  0.084448  -0.001149  1.020342  -0.001
H  H5  1  0.85315489  0.23859966  0.85832789  1  0.116753  0.084101  -0.00115  1.020352  -0.001
H  H6  1  0.43447113  0.26116060  0.58811686  1  0.100067  0.109318  -0.000437  1.071554  -0.001
H  H7  1  0.02306664  0.76092127  0.41178464  1  0.100031  0.109877  -0.000439  1.071214  -0.001
H  H8  1  0.56552743  0.73884321  0.41188684  1  0.10008  0.109335  -0.000437  1.071511  -0.001
H  H9  1  0.97693002  0.23908151  0.58822099  1  0.100036  0.109904  -0.000439  1.071288  -0.001
H  H10  1  0.51210868  0.34606126  0.35599194  1  0.095809  0.107007  0.000193  1.019738  0.0
H  H11  1  0.86846548  0.84596417  0.64374560  1  0.095968  0.107366  0.000191  1.019649  0.0
H  H12  1  0.48789438  0.65393738  0.64400639  1  0.095819  0.107032  0.000193  1.01969  0.0
H  H13  1  0.13153363  0.15404067  0.35625513  1  0.095957  0.107285  0.000191  1.019683  0.0
H  H14  1  0.50613896  0.25253121  0.21303882  1  0.103667  0.11976  -0.000147  1.021878  0.0
H  H15  1  0.71946070  0.75254703  0.78686904  1  0.103885  0.120123  -0.000143  1.022062  0.0
H  H16  1  0.49385687  0.74746743  0.78696431  1  0.10373  0.119848  -0.000146  1.021875  0.0
H  H17  1  0.28053688  0.24745677  0.21313562  1  0.103888  0.120157  -0.000144  1.022072  0.0
H  H18  1  0.52551669  0.16185024  0.35527333  1  0.098345  0.114654  8.7e-05  1.009858  0.0
H  H19  1  0.88120212  0.66179472  0.64464313  1  0.098665  0.115226  8.6e-05  1.009422  0.0
H  H20  1  0.47447939  0.83814944  0.64472832  1  0.098361  0.114683  8.7e-05  1.009789  0.0
H  H21  1  0.11879711  0.33820805  0.35535760  1  0.098642  0.115219  8.5e-05  1.009372  0.0
H  H22  1  0.84649684  0.03648254  0.32055219  1  0.110187  0.07915  -0.001327  1.042486  -0.001
H  H23  1  0.16765872  0.53653906  0.67938421  1  0.110143  0.079413  -0.001326  1.041944  -0.001
H  H24  1  0.15350235  0.96351817  0.67944159  1  0.110229  0.079211  -0.001326  1.042425  -0.001
H  H25  1  0.83234479  0.46345545  0.32060917  1  0.110149  0.079394  -0.001327  1.041965  -0.001
H  H26  1  0.70858508  0.02514833  0.59044961  1  0.105376  0.120733  -0.000402  1.047059  0.0
H  H27  1  0.29935292  0.52516988  0.40945592  1  0.105589  0.121261  -0.000401  1.046997  0.0
H  H28  1  0.29141814  0.97484617  0.40954525  1  0.105353  0.120697  -0.000402  1.047106  0.0
H  H29  1  0.70065342  0.47482669  0.59053455  1  0.105604  0.121225  -0.000401  1.047038  0.0
H  H30  1  0.49731930  0.06056451  0.82226352  1  0.098961  0.113177  0.00011  1.025881  0.0
H  H31  1  0.31978735  0.56073701  0.17754416  1  0.099039  0.113547  0.000112  1.025313  0.0
H  H32  1  0.50267911  0.93943929  0.17773323  1  0.098964  0.1132  0.00011  1.025888  0.0
H  H33  1  0.68021180  0.43926163  0.82245806  1  0.099072  0.113585  0.000113  1.02532  0.0
H  H34  1  0.51717847  0.14134230  0.96612705  1  0.108379  0.125537  -0.000203  1.001355  0.0
H  H35  1  0.48370887  0.64147721  0.03375982  1  0.108559  0.125646  -0.000203  1.001806  0.0
H  H36  1  0.48282128  0.85866047  0.03386724  1  0.108381  0.125534  -0.000202  1.001312  0.0
H  H37  1  0.51629350  0.35852040  0.96623453  1  0.108611  0.125733  -0.000203  1.001718  0.0
H  H38  1  0.68596054  0.05448137  0.82400154  1  0.100217  0.115258  -0.000255  1.014429  0.0
H  H39  1  0.51012195  0.55449839  0.17578361  1  0.100108  0.11503  -0.000258  1.015394  0.0
H  H40  1  0.31403595  0.94551624  0.17599863  1  0.100203  0.115252  -0.000256  1.014486  0.0
H  H41  1  0.48988339  0.44550128  0.82421478  1  0.100091  0.11501  -0.000257  1.015458  0.0
C  C42  1  0.22449897  0.25569995  0.79307192  1  0.033269  0.10256  9.2e-05  3.991446  0.0
C  C43  1  0.01824354  0.75619070  0.20678447  1  0.033302  0.102799  0.0001  3.990592  0.0
C  C44  1  0.77550313  0.74429973  0.20693086  1  0.033338  0.102652  9.3e-05  3.991594  0.0
C  C45  1  0.98175515  0.24381207  0.79322270  1  0.033373  0.102846  0.0001  3.990566  0.0
C  C46  1  0.30562661  0.25588918  0.64189649  1  -0.107492  -0.24352  -0.002694  3.950486  -0.003
C  C47  1  0.94805379  0.75603250  0.35796971  1  -0.107531  -0.244237  -0.002702  3.950223  -0.003
C  C48  1  0.69437560  0.74411256  0.35810134  1  -0.107489  -0.243554  -0.002693  3.950466  -0.003
C  C49  1  0.05194133  0.24396820  0.64203638  1  -0.10756  -0.244252  -0.002703  3.950424  -0.003
C  C50  1  0.22001333  0.24997564  0.55953837  1  0.117114  0.217708  0.001929  4.034395  0.001
C  C51  1  0.77998442  0.75002507  0.44046629  1  0.117134  0.217757  0.001929  4.034166  0.001
C  C52  1  0.46745342  0.25298987  0.33088291  1  -0.13989  -0.275194  1.8e-05  3.919166  0.0
C  C53  1  0.79868161  0.75288851  0.66900565  1  -0.140553  -0.276514  2.1e-05  3.919776  0.0
C  C54  1  0.53254494  0.74701083  0.66911879  1  -0.139951  -0.275365  1.9e-05  3.919051  0.0
C  C55  1  0.20131530  0.24711529  0.33099850  1  -0.140532  -0.276415  2e-05  3.919701  0.0
C  C56  1  0.81034511  0.13078938  0.38568044  1  0.039195  0.102774  0.000122  3.990123  0.0
C  C57  1  0.19643866  0.63088395  0.61431786  1  0.038868  0.101455  0.000137  3.990113  0.0
C  C58  1  0.18965688  0.86920823  0.61431191  1  0.039152  0.102671  0.000122  3.990374  0.0
C  C59  1  0.80356510  0.36911159  0.38567403  1  0.038885  0.101418  0.000137  3.99008  0.0
C  C60  1  0.73391979  0.12550538  0.53721214  1  -0.109684  -0.261081  -0.003054  3.958058  -0.003
C  C61  1  0.27139706  0.62552938  0.46276696  1  -0.109533  -0.260765  -0.003062  3.95915  -0.003
C  C62  1  0.26608222  0.87449326  0.46278368  1  -0.109647  -0.260967  -0.003052  3.958337  -0.003
C  C63  1  0.72860753  0.37447029  0.53722744  1  -0.109589  -0.26071  -0.003063  3.959056  -0.003
C  C64  1  0.68999254  0.24999465  0.61978095  1  0.114856  0.213323  0.001938  4.051421  0.001
C  C65  1  0.31000972  0.75000502  0.38021339  1  0.114964  0.213427  0.001937  4.051468  0.001
C  C66  1  0.57746543  0.11946950  0.84847076  1  -0.137089  -0.273727  -0.000441  3.891018  0.0
C  C67  1  0.42616838  0.61956958  0.15139077  1  -0.137284  -0.274489  -0.000441  3.891894  0.0
C  C68  1  0.42253383  0.88053120  0.15152650  1  -0.137092  -0.273854  -0.000441  3.890956  0.0
C  C69  1  0.57383657  0.38042906  0.84860215  1  -0.137412  -0.274598  -0.000441  3.892178  0.0
N  N70  1  0.11066785  0.09885177  0.09641600  1  -0.297749  -0.503391  -0.043778  2.989543  -0.054
N  N71  1  0.20729781  0.59862582  0.90341338  1  -0.297658  -0.503134  -0.043854  2.990918  -0.054
N  N72  1  0.88931749  0.90115410  0.90359831  1  -0.29762  -0.503213  -0.043748  2.990229  -0.054
N  N73  1  0.79269810  0.40136455  0.09660314  1  -0.297692  -0.503261  -0.043889  2.990296  -0.054
N  N74  1  0.17412193  0.01537575  0.99993543  1  0.066414  0.396781  0.002481  4.526884  0.005
N  N75  1  0.17416960  0.51528913  0.99995417  1  0.066329  0.397226  0.002556  4.52754  0.005
N  N76  1  0.82587997  0.98461669  0.00005492  1  0.066538  0.397027  0.002517  4.526459  0.005
N  N77  1  0.82583500  0.48471571  0.00003876  1  0.06604  0.396858  0.002523  4.528069  0.005
N  N78  1  0.23981808  0.93150237  0.90767422  1  -0.217344  -0.439729  -0.064434  2.74499  -0.07
N  N79  1  0.14757834  0.43147311  0.09223835  1  -0.217229  -0.440455  -0.064542  2.74308  -0.07
N  N80  1  0.76017053  0.06851384  0.09233273  1  -0.217571  -0.440153  -0.064516  2.743838  -0.07
N  N81  1  0.85242597  0.56850693  0.90777041  1  -0.216915  -0.439947  -0.064463  2.74422  -0.07
N  N82  1  0.06442642  0.24963677  0.87054227  1  -0.37504  -0.275997  -0.053514  3.642156  -0.066
N  N83  1  0.93557538  0.75036291  0.12946200  1  -0.37506  -0.276065  -0.053505  3.642386  -0.066
N  N84  1  0.29438473  0.25014486  0.41086822  1  -0.292251  0.006828  0.001879  3.676609  0.001
N  N85  1  0.70561419  0.74985792  0.58913399  1  -0.292284  0.006842  0.001878  3.676443  0.001
N  N86  1  0.84521545  0.24993766  0.30910439  1  -0.364314  -0.237334  -0.050203  3.60472  -0.061
N  N87  1  0.15478532  0.75005891  0.69089041  1  -0.36434  -0.237569  -0.050192  3.604897  -0.061
N  N88  1  0.61554075  0.24996915  0.76873828  1  -0.290909  0.008133  0.001578  3.664141  0.001
N  N89  1  0.38446654  0.75002949  0.23125470  1  -0.291045  0.008178  0.001578  3.66393  0.001
