# generated using pymatgen
data_Al4H32C59N2O25
_symmetry_space_group_name_H-M   'P 1'
_cell_length_a   6.67550582
_cell_length_b   22.53981134
_cell_length_c   25.13742233
_cell_angle_alpha   107.82517747
_cell_angle_beta   89.37996985
_cell_angle_gamma   89.96746753
_symmetry_Int_Tables_number   1
_chemical_formula_structural   Al4H32C59N2O25
_chemical_formula_sum   'Al4 H32 C59 N2 O25'
_cell_volume   3600.48339849
_cell_formula_units_Z   1
loop_
 _symmetry_equiv_pos_site_id
 _symmetry_equiv_pos_as_xyz
  1  'x, y, z'
loop_
 _atom_site_type_symbol
 _atom_site_label
 _atom_site_symmetry_multiplicity
 _atom_site_fract_x
 _atom_site_fract_y
 _atom_site_fract_z
 _atom_site_occupancy
 _atom_site_pbe_bader_charge
 _atom_site_pbe_bader_spin_density
 _atom_site_pbe_cm5_charge
 _atom_site_pbe_ddec_charge
 _atom_site_pbe_ddec_spin_density
 _atom_site_pbe_ddec_sum_bond_order
 _atom_site_pbe_magmom
Al  Al0  1  0.14819444  0.50066286  0.50044143  1  2.500566  0  0.400843  1.647734  0  2.572979  0
Al  Al1  1  0.65009628  0.50109747  0.49990782  1  2.503996  0  0.403996  1.647491  0  2.574933  0
Al  Al2  1  0.67057724  0.00096729  0.99890207  1  2.502502  0  0.403901  1.643395  0  2.574855  0
Al  Al3  1  0.16878168  0.00051742  0.99896469  1  2.500583  0  0.401301  1.643896  0  2.575183  0
H  H4  1  0.61009042  0.08611009  0.88182133  1  0.131813  0  0.113698  0.121571  0  1.017883  0
H  H5  1  0.58566345  0.14647494  0.81575378  1  0.069812  0  0.099491  0.099955  0  1.020683  0
H  H6  1  0.21772797  0.18717246  0.83680322  1  0.052597  0  0.103037  0.111032  0  1.028271  0
H  H7  1  0.18990109  0.18465875  0.74837456  1  0.060762  0  0.102502  0.103173  0  1.002885  0
H  H8  1  0.18553197  0.25121205  0.68730365  1  0.064762  0  0.100565  0.09811  0  1.009842  0
H  H9  1  0.58899432  0.31350088  0.74603583  1  0.06607  0  0.099852  0.097683  0  1.010138  0
H  H10  1  0.59289982  0.24637549  0.80689839  1  0.068246  0  0.100208  0.0991  0  1.010818  0
H  H11  1  0.57139430  0.31928221  0.65795691  1  0.037829  0  0.097888  0.093999  0  1.024668  0
H  H12  1  0.57795716  0.38604813  0.59531399  1  0.108206  0  0.109408  0.113335  0  1.001019  0
H  H13  1  0.21083063  0.41255683  0.61995676  1  0.109104  0  0.10987  0.114093  0  1.000274  0
H  H14  1  0.20543323  0.34851941  0.68485231  1  0.055213  0  0.09803  0.09311  0  1.025673  0
H  H15  1  0.13904124  0.87638167  0.20952185  1  0.102328  0  0.113882  0.123321  0  0.997678  0
H  H16  1  0.69323837  0.79042109  0.13343774  1  0.067405  0  0.106482  0.105355  0  0.997287  0
H  H17  1  0.69295914  0.85845291  0.07231957  1  0.125019  0  0.117182  0.122927  0  0.977287  0
H  H18  1  0.73221735  0.78900568  0.22427788  1  0.042389  0  0.100853  0.097631  0  1.019192  0
H  H19  1  0.72563874  0.72316575  0.28666830  1  0.059055  0  0.100603  0.096825  0  1.019702  0
H  H20  1  0.08396745  0.70929202  0.27218620  1  0.054604  0  0.099981  0.096958  0  1.019438  0
H  H21  1  0.09043380  0.77508058  0.20992521  1  0.077804  0  0.099864  0.096385  0  1.020985  0
H  H22  1  0.12293237  0.71388266  0.36442369  1  0.100446  0  0.114161  0.122941  0  1.000533  0
H  H23  1  0.67113567  0.56379474  0.36043885  1  0.099884  0  0.119068  0.124142  0  0.970059  0
H  H24  1  0.67645770  0.62356524  0.29242441  1  0.066231  0  0.107715  0.106344  0  0.993919  0
H  H25  1  0.45743226  0.13750040  0.97037104  1  0.085243  0  0.10874  0.083931  0  0.992693  0
H  H26  1  0.20197757  0.15807843  0.98668133  1  0.039152  0  0.097718  0.059472  0  0.994706  0
H  H27  1  0.49681250  0.22870556  0.93366243  1  0.031178  0  0.087366  0.081421  0  0.994638  0
H  H28  1  0.24382934  0.25035611  0.95143049  1  0.017105  0  0.086408  0.077955  0  0.986457  0
H  H29  1  0.31855987  0.26499964  0.05352484  1  0.036339  0  0.084945  0.108677  0  1.004511  0
H  H30  1  0.47335445  0.31334184  0.02643912  1  0.030541  0  0.086736  0.113165  0  1.002785  0
H  H31  1  0.57184085  0.24382760  0.03532052  1  0.020067  0  0.085589  0.110875  0  1.002966  0
H  H32  1  0.40028015  0.42010051  0.47144539  1  0.64419  0  0.357869  0.438446  0  0.840764  0
H  H33  1  0.90128837  0.58294239  0.51139281  1  0.608089  0  0.353762  0.438961  0  0.848279  0
H  H34  1  0.41681662  0.07705259  0.03827337  1  0.624289  0  0.354387  0.428171  0  0.858668  0
H  H35  1  0.92054668  0.91910222  0.97203666  1  0.637579  0  0.358837  0.43701  0  0.843079  0
C  C36  1  0.39998038  0.58743625  0.58459569  1  1.700984  0  0.281569  0.70167  0  4.172774  0
C  C37  1  0.39440058  0.56372219  0.43771171  1  1.600314  0  0.269122  0.646697  0  4.121789  0
C  C38  1  0.89844524  0.41370359  0.41459472  1  1.688439  0  0.275479  0.702257  0  4.18291  0
C  C39  1  0.90039803  0.43994858  0.56379548  1  1.565424  0  0.269213  0.642994  0  4.101575  0
C  C40  1  0.74307077  0.10878741  0.87196734  1  -0.00373  0  -0.077769  -0.061119  0  3.977007  0
C  C41  1  0.72951106  0.14310672  0.83473037  1  -0.07406  0  -0.096906  -0.152954  0  3.992614  0
C  C42  1  0.90010563  0.17213425  0.82082495  1  -0.020628  0  -0.003507  0.094867  0  4.024056  0
C  C43  1  0.08219896  0.16450165  0.84521947  1  0.010212  0  -0.10145  -0.25403  0  3.969088  0
C  C44  1  0.09753082  0.13011503  0.88270504  1  0.504597  0  0.094974  0.261509  0  4.033545  0
C  C45  1  0.92480836  0.10163526  0.89720115  1  -0.004234  0  -0.025613  -0.163729  0  3.939784  0
C  C46  1  0.05853226  0.21362319  0.74878020  1  -0.036149  0  -0.090609  -0.125468  0  3.989101  0
C  C47  1  0.05628442  0.25142336  0.71429815  1  -0.018337  0  -0.091244  -0.125405  0  3.996846  0
C  C48  1  0.88770744  0.28812894  0.71218615  1  -0.046258  0  -0.00961  0.061613  0  4.005802  0
C  C49  1  0.72049301  0.28456258  0.74564066  1  -0.036031  0  -0.091225  -0.126733  0  3.992699  0
C  C50  1  0.72257273  0.24654765  0.78011064  1  -0.102255  0  -0.090116  -0.125899  0  3.988471  0
C  C51  1  0.89230438  0.21057212  0.78275290  1  -0.029453  0  -0.006734  0.069736  0  3.992753  0
C  C52  1  0.71155693  0.34060707  0.65073225  1  -0.008095  0  -0.091713  -0.137632  0  3.984604  0
C  C53  1  0.71431859  0.37736871  0.61526925  1  -0.077978  0  -0.078811  -0.079211  0  3.976106  0
C  C54  1  0.89493876  0.40286580  0.60357249  1  -0.012449  0  -0.01706  -0.051571  0  3.98051  0
C  C55  1  0.07171901  0.39187984  0.62878581  1  -0.000966  0  -0.079406  -0.080418  0  3.976975  0
C  C56  1  0.06782731  0.35554949  0.66454497  1  -0.091876  0  -0.091546  -0.136333  0  3.984961  0
C  C57  1  0.88834423  0.32854162  0.67578833  1  0.026802  0  -0.001145  0.081079  0  3.99025  0
C  C58  1  0.91420409  0.13585167  0.13773618  1  0.111231  0  0.004735  -0.130591  0  3.827139  0
C  C59  1  0.91398656  0.17935246  0.18130801  1  -0.195009  0  -0.004415  0.032473  0  4.244157  0
C  C60  1  0.91303529  0.22707197  0.22882525  1  0.074476  0  0.004653  0.004178  0  4.183081  0
C  C61  1  0.91095121  0.27127441  0.27235887  1  -0.101995  0  0.00013  -0.004925  0  4.186695  0
C  C62  1  0.90793660  0.31921469  0.31974543  1  -0.31272  0  -0.008208  0.029501  0  4.259843  0
C  C63  1  0.90387142  0.36296742  0.36317201  1  0.250276  0  -0.00219  -0.142544  0  3.833751  0
C  C64  1  0.39759023  0.63841773  0.63586856  1  0.318467  0  0.009572  -0.121879  0  3.808294  0
C  C65  1  0.40226141  0.68211856  0.67925302  1  -0.345353  0  -0.003939  0.028461  0  4.245069  0
C  C66  1  0.40855831  0.72986584  0.72670956  1  -0.062021  0  0.00668  0.007574  0  4.180632  0
C  C67  1  0.41534115  0.77388115  0.77028770  1  0.04804  0  0.001973  -0.005462  0  4.184922  0
C  C68  1  0.42107337  0.82162873  0.81773897  1  -0.39468  0  -0.005224  0.034916  0  4.258148  0
C  C69  1  0.42556574  0.86523295  0.86123069  1  0.263689  0  -0.001487  -0.145523  0  3.833077  0
C  C70  1  0.26427699  0.90821738  0.14449624  1  0.131128  0  0.088129  0.070937  0  3.928219  0
C  C71  1  0.25995473  0.87029968  0.17884903  1  0.056578  0  -0.080459  -0.183356  0  3.945553  0
C  C72  1  0.41485245  0.82712469  0.17567477  1  -0.026829  0  0.001453  0.088267  0  4.000572  0
C  C73  1  0.57166761  0.82380579  0.13711673  1  -0.072528  0  -0.080677  -0.123462  0  3.955021  0
C  C74  1  0.57207290  0.86153219  0.10248850  1  0.061872  0  -0.067003  -0.051647  0  3.953208  0
C  C75  1  0.41741479  0.90425210  0.10493525  1  0.017069  0  9.2e-05  -0.074092  0  3.91995  0
C  C76  1  0.58978861  0.77056412  0.23380509  1  0.04006  0  -0.08773  -0.122267  0  3.983654  0
C  C77  1  0.58612814  0.73341630  0.26897034  1  -0.084594  0  -0.088003  -0.122715  0  3.985278  0
C  C78  1  0.40435469  0.71120608  0.28414456  1  0.017254  0  -0.005915  0.067538  0  4.000389  0
C  C79  1  0.22655653  0.72733512  0.26236914  1  -0.032196  0  -0.08953  -0.123927  0  3.990489  0
C  C80  1  0.23014521  0.76449386  0.22728496  1  -0.098886  0  -0.088276  -0.121127  0  3.989634  0
C  C81  1  0.41176331  0.78707456  0.21238979  1  0.001488  0  -0.005904  0.066308  0  4.000931  0
C  C82  1  0.24274083  0.68019951  0.36159226  1  0.029578  0  -0.078366  -0.177281  0  3.944746  0
C  C83  1  0.24296700  0.64622599  0.39931291  1  0.189631  0  0.086729  0.066098  0  3.924314  0
C  C84  1  0.39587097  0.60375439  0.39989553  1  0.008949  0  0.002671  -0.069416  0  3.918839  0
C  C85  1  0.55146350  0.59676054  0.36068689  1  0.046596  0  -0.065652  -0.052342  0  3.944412  0
C  C86  1  0.55397453  0.63066957  0.32280214  1  -0.024987  0  -0.076277  -0.114486  0  3.944021  0
C  C87  1  0.40030291  0.67330073  0.32272784  1  -0.015448  0  0.000804  0.083881  0  3.999913  0
C  C88  1  0.41566456  0.93914376  0.06295304  1  1.605942  0  0.268136  0.644718  0  4.117355  0
C  C89  1  0.42533224  0.91572149  0.91271269  1  1.683834  0  0.278889  0.705536  0  4.174616  0
C  C90  1  0.92521226  0.06409094  0.93675121  1  1.518263  0  0.266903  0.654631  0  4.092949  0
C  C91  1  0.91447024  0.08566759  0.08604667  1  1.691502  0  0.279831  0.705566  0  4.17311  0
C  C92  1  0.32809171  0.16098997  0.95897550  1  0.393534  0  -0.066278  0.035571  0  3.871581  0
C  C93  1  0.37568533  0.22836383  0.96364282  1  -0.008138  0  -0.174623  -0.142481  0  4.000491  0
C  C94  1  0.43808664  0.26472511  0.02296408  1  -0.09341  0  -0.243183  -0.347959  0  3.988602  0
N  N95  1  0.10637835  0.95659450  0.15511661  1  0.40476  0  0.063223  0.523648  0  4.213811  0
N  N96  1  0.07984251  0.66044472  0.44149052  1  0.383904  0  0.063205  0.522379  0  4.203257  0
O  O97  1  0.56361677  0.55344004  0.45587020  1  -1.246122  0  -0.228497  -0.581434  0  2.335578  0
O  O98  1  0.23204552  0.57042393  0.56165765  1  -1.227689  0  -0.218094  -0.565527  0  2.293929  0
O  O99  1  0.07136024  0.45842229  0.55230166  1  -1.262826  0  -0.235356  -0.594387  0  2.350975  0
O  O100  1  0.22551122  0.54271599  0.44695232  1  -1.24506  0  -0.237137  -0.595725  0  2.370835  0
O  O101  1  0.06568343  0.42988484  0.43847034  1  -1.231363  0  -0.22402  -0.575505  0  2.284209  0
O  O102  1  0.57151107  0.56467033  0.56711513  1  -1.2302  0  -0.219615  -0.564824  0  2.279812  0
O  O103  1  0.39984237  0.46352668  0.49400047  1  -1.445265  0  -0.447985  -0.996539  0  2.189451  0
O  O104  1  0.72662366  0.43699956  0.43130603  1  -1.23319  0  -0.225674  -0.577103  0  2.279025  0
O  O105  1  0.73437969  0.44947634  0.54301335  1  -1.26043  0  -0.237208  -0.600236  0  2.354984  0
O  O106  1  0.89924007  0.53809460  0.50410301  1  -1.405964  0  -0.447897  -0.999793  0  2.197984  0
O  O107  1  0.25463597  0.93378915  0.93478186  1  -1.232356  0  -0.220408  -0.571078  0  2.287624  0
O  O108  1  0.58540299  0.94930254  0.04419063  1  -1.241926  0  -0.232021  -0.583034  0  2.343461  0
O  O109  1  0.74432546  0.06471481  0.06685734  1  -1.23288  0  -0.221932  -0.572504  0  2.283825  0
O  O110  1  0.59519595  0.93717726  0.93178099  1  -1.232195  0  -0.222396  -0.57341  0  2.282707  0
O  O111  1  0.75434909  0.05227571  0.95478188  1  -1.257023  0  -0.239841  -0.60616  0  2.350511  0
O  O112  1  0.24472982  0.95257169  0.04782562  1  -1.236941  0  -0.237258  -0.594382  0  2.360648  0
O  O113  1  0.41916582  0.03841133  0.00755807  1  -1.425708  0  -0.445746  -0.985727  0  2.192231  0
O  O114  1  0.09311892  0.04678667  0.95063532  1  -1.245616  0  -0.232745  -0.595186  0  2.396063  0
O  O115  1  0.08495191  0.06768315  0.06376221  1  -1.228667  0  -0.22198  -0.577386  0  2.303477  0
O  O116  1  0.91944617  0.96290713  0.99337099  1  -1.437132  0  -0.447221  -0.990794  0  2.200657  0
O  O117  1  0.16037591  0.01108293  0.16366886  1  -0.41733  0  -0.115251  -0.309052  0  1.902054  0
O  O118  1  0.93128693  0.93904178  0.15727578  1  -0.462962  0  -0.131491  -0.337166  0  1.912305  0
O  O119  1  0.90926701  0.66633163  0.42459310  1  -0.454484  0  -0.132406  -0.339767  0  1.91746  0
O  O120  1  0.12358884  0.66725181  0.49072292  1  -0.439394  0  -0.117777  -0.317515  0  1.906224  0
O  O121  1  0.28545359  0.12467720  0.90208707  1  -1.081878  0  -0.197144  -0.230972  0  2.547862  0
