# generated using pymatgen
data_CdH20C26(IN3)2
_symmetry_space_group_name_H-M   'P 1'
_cell_length_a   9.33207428
_cell_length_b   12.27744416
_cell_length_c   12.90810000
_cell_angle_alpha   108.74490872
_cell_angle_beta   97.87716098
_cell_angle_gamma   108.07023509
_symmetry_Int_Tables_number   1
_chemical_formula_structural   CdH20C26(IN3)2
_chemical_formula_sum   'Cd2 H40 C52 I4 N12'
_cell_volume   1284.55603384
_cell_formula_units_Z   2
loop_
 _symmetry_equiv_pos_site_id
 _symmetry_equiv_pos_as_xyz
  1  'x, y, z'
loop_
 _atom_site_type_symbol
 _atom_site_label
 _atom_site_symmetry_multiplicity
 _atom_site_fract_x
 _atom_site_fract_y
 _atom_site_fract_z
 _atom_site_occupancy
 _atom_site_hle17_bader_spin_density
 _atom_site_hle17_ddec_charge
 _atom_site_hle17_ddec_spin_density
 _atom_site_hle17_ddec_sum_bond_order
 _atom_site_hle17_magmom
 _atom_site_hse06_10hf_bader_spin_density
 _atom_site_hse06_10hf_ddec_charge
 _atom_site_hse06_10hf_ddec_spin_density
 _atom_site_hse06_10hf_ddec_sum_bond_order
 _atom_site_hse06_10hf_magmom
 _atom_site_hse06_bader_spin_density
 _atom_site_hse06_ddec_charge
 _atom_site_hse06_ddec_spin_density
 _atom_site_hse06_ddec_sum_bond_order
 _atom_site_hse06_magmom
 _atom_site_pbe_bader_charge
 _atom_site_pbe_bader_spin_density
 _atom_site_pbe_cm5_charge
 _atom_site_pbe_ddec_charge
 _atom_site_pbe_ddec_spin_density
 _atom_site_pbe_ddec_sum_bond_order
 _atom_site_pbe_magmom
Cd  Cd0  1  0.14384451  0.76109801  0.22236920  1  0  0.792824  0  2.029209  0  0  0.614995  0  2.500354  0  0  0.662691  0  2.463364  0  0.903098  0  0.545855  0.58231  0  2.524837  0
Cd  Cd1  1  0.85615544  0.23890254  0.77763096  1  0  0.792804  0  2.029199  0  0  0.614981  0  2.500338  0  0  0.662678  0  2.463348  0  0.903099  0  0.545848  0.582296  0  2.524821  0
H  H2  1  0.44345346  0.83361556  0.42145579  1  0  0.069238  0  0.95815  0  0  0.073447  0  1.03099  0  0  0.076562  0  1.027376  0  0.114326  0  0.102032  0.071151  0  1.033549  0
H  H3  1  0.55654712  0.16638406  0.57854415  1  0  0.069248  0  0.958142  0  0  0.073458  0  1.030983  0  0  0.076572  0  1.027369  0  0.11433  0  0.102029  0.071162  0  1.033542  0
H  H4  1  0.61588270  0.73896784  0.48514174  1  0  0.116239  0  0.980146  0  0  0.124312  0  1.044911  0  0  0.127488  0  1.044787  0  0.105734  0  0.100425  0.122048  0  1.045215  0
H  H5  1  0.38411724  0.26103271  0.51485842  1  0  0.116281  0  0.980116  0  0  0.124355  0  1.044878  0  0  0.127531  0  1.044755  0  0.105733  0  0.100453  0.122092  0  1.045181  0
H  H6  1  0.40779410  0.42893089  0.15946769  1  0  0.113775  0  0.959786  0  0  0.125709  0  1.017008  0  0  0.128902  0  1.016517  0  0.092545  0  0.108107  0.123436  0  1.017525  0
H  H7  1  0.59220432  0.57106874  0.84053204  1  0  0.113771  0  0.959796  0  0  0.125705  0  1.017014  0  0  0.128897  0  1.016522  0  0.092432  0  0.108116  0.123431  0  1.017533  0
H  H8  1  0.24445116  0.53870114  0.10836266  1  0  0.065442  0  0.985668  0  0  0.071067  0  1.060432  0  0  0.07396  0  1.056816  0  0.100915  0  0.095072  0.068865  0  1.063099  0
H  H9  1  0.75554922  0.46130035  0.89163783  1  0  0.06544  0  0.985701  0  0  0.071064  0  1.060467  0  0  0.073951  0  1.056868  0  0.100907  0  0.095057  0.068863  0  1.063135  0
H  H10  1  0.84114648  0.73804823  0.41960883  1  0  0.114509  0  0.961107  0  0  0.122284  0  1.025915  0  0  0.125561  0  1.025066  0  0.08503  0  0.099601  0.11993  0  1.026717  0
H  H11  1  0.15885346  0.26195233  0.58039133  1  0  0.114509  0  0.961112  0  0  0.122289  0  1.025908  0  0  0.125566  0  1.025058  0  0.084943  0  0.099604  0.119933  0  1.026711  0
H  H12  1  0.06929681  0.83479063  0.58482728  1  0  0.062141  0  0.966173  0  0  0.068301  0  1.036281  0  0  0.070901  0  1.033825  0  0.066299  0  0.095053  0.066361  0  1.038121  0
H  H13  1  0.93070402  0.16521179  0.41517354  1  0  0.062156  0  0.966195  0  0  0.068309  0  1.036307  0  0  0.070906  0  1.033854  0  0.066322  0  0.095055  0.066369  0  1.038146  0
H  H14  1  0.94628923  0.52286521  0.66503421  1  0  0.062547  0  0.954223  0  0  0.067427  0  1.026604  0  0  0.07027  0  1.02419  0  0.074219  0  0.09632  0.065326  0  1.028399  0
H  H15  1  0.05371116  0.47713628  0.33496706  1  0  0.062527  0  0.954218  0  0  0.067412  0  1.026592  0  0  0.070254  0  1.02418  0  0.074216  0  0.096311  0.065311  0  1.028386  0
H  H16  1  0.70810129  0.41244380  0.50340226  1  0  0.114053  0  0.958843  0  0  0.124871  0  1.016638  0  0  0.127634  0  1.017181  0  0.131669  0  0.104214  0.122926  0  1.016399  0
H  H17  1  0.29189929  0.58755583  0.49659769  1  0  0.114054  0  0.958842  0  0  0.124871  0  1.016639  0  0  0.127633  0  1.017182  0  0.131618  0  0.104223  0.122926  0  1.016399  0
H  H18  1  0.76231527  0.37285398  0.25553532  1  0  0.113945  0  0.968022  0  0  0.121992  0  1.033477  0  0  0.12537  0  1.030816  0  0.089543  0  0.098929  0.119553  0  1.035455  0
H  H19  1  0.23768575  0.62714658  0.74446495  1  0  0.113895  0  0.968012  0  0  0.121943  0  1.033467  0  0  0.125321  0  1.030807  0  0.089563  0  0.098913  0.119505  0  1.035445  0
H  H20  1  0.66504186  0.14446290  0.16783475  1  0  0.107181  0  0.960996  0  0  0.116138  0  1.025356  0  0  0.118681  0  1.024851  0  0.106355  0  0.104413  0.114315  0  1.025839  0
H  H21  1  0.33495808  0.85553766  0.83216542  1  0  0.107182  0  0.960951  0  0  0.11613  0  1.025334  0  0  0.118672  0  1.024829  0  0.106364  0  0.104411  0.114307  0  1.025817  0
H  H22  1  0.23526281  0.12048886  0.26387157  1  0  0.101478  0  0.968472  0  0  0.109562  0  1.035275  0  0  0.112802  0  1.033296  0  0.089853  0  0.09376  0.107201  0  1.036798  0
H  H23  1  0.76473670  0.87951077  0.73612827  1  0  0.101471  0  0.968475  0  0  0.109556  0  1.035278  0  0  0.112796  0  1.033298  0  0.089825  0  0.093759  0.107194  0  1.036801  0
H  H24  1  0.33270881  0.35231595  0.34976067  1  0  0.098392  0  0.981205  0  0  0.107209  0  1.046815  0  0  0.109185  0  1.047502  0  0.080958  0  0.099329  0.105789  0  1.046423  0
H  H25  1  0.66729178  0.64768368  0.65023928  1  0  0.098396  0  0.981204  0  0  0.107214  0  1.046813  0  0  0.10919  0  1.047499  0  0.080951  0  0.099327  0.105798  0  1.046407  0
H  H26  1  0.29964358  0.06230891  0.99541656  1  0  0.119938  0  0.962096  0  0  0.128376  0  1.023357  0  0  0.130806  0  1.024783  0  0.106786  0  0.108717  0.126586  0  1.022643  0
H  H27  1  0.70035592  0.93769071  0.00458250  1  0  0.11991  0  0.962028  0  0  0.128338  0  1.023306  0  0  0.130776  0  1.024723  0  0.106777  0  0.108701  0.126547  0  1.022592  0
H  H28  1  0.05515947  0.94697509  0.83676165  1  0  0.094636  0  0.929393  0  0  0.107762  0  0.985912  0  0  0.109874  0  0.984615  0  0.090336  0  0.109186  0.106191  0  0.986899  0
H  H29  1  0.94484067  0.05302361  0.16323797  1  0  0.094659  0  0.929349  0  0  0.107788  0  0.985864  0  0  0.1099  0  0.984567  0  0.090336  0  0.109207  0.106218  0  0.986852  0
H  H30  1  0.86595630  0.74417806  0.82895068  1  0  0.099462  0  0.9793  0  0  0.109652  0  1.041545  0  0  0.11192  0  1.042501  0  0.105043  0  0.102816  0.108045  0  1.041023  0
H  H31  1  0.13404321  0.25582157  0.17104916  1  0  0.099463  0  0.979328  0  0  0.109655  0  1.041567  0  0  0.111924  0  1.042524  0  0.10504  0  0.102813  0.108049  0  1.041045  0
H  H32  1  0.92615148  0.67351367  0.98573024  1  0  0.059734  0  0.993166  0  0  0.065654  0  1.065696  0  0  0.068008  0  1.063431  0  0.106261  0  0.095246  0.063943  0  1.067259  0
H  H33  1  0.07384910  0.32648596  0.01427048  1  0  0.059761  0  0.993169  0  0  0.065682  0  1.065695  0  0  0.068034  0  1.063438  0  0.106263  0  0.095267  0.063971  0  1.067257  0
H  H34  1  0.62942268  0.04426591  0.33053221  1  0  0.115601  0  0.947924  0  0  0.125239  0  1.007501  0  0  0.129022  0  1.006296  0  0.100412  0  0.103964  0.122529  0  1.008515  0
H  H35  1  0.37057682  0.95573371  0.66946762  1  0  0.115595  0  0.947937  0  0  0.12523  0  1.007517  0  0  0.129012  0  1.006313  0  0.100404  0  0.103955  0.12252  0  1.00853  0
H  H36  1  0.80423861  0.92559919  0.32397695  1  0  0.086203  0  0.969573  0  0  0.09412  0  1.038314  0  0  0.097173  0  1.035598  0  0.084826  0  0.088465  0.091853  0  1.040306  0
H  H37  1  0.19576134  0.07440136  0.67602244  1  0  0.086193  0  0.969561  0  0  0.094111  0  1.038303  0  0  0.097162  0  1.03559  0  0.084821  0  0.088465  0.091844  0  1.040294  0
H  H38  1  0.74186431  0.73073312  0.15178561  1  0  0.086327  0  1.012058  0  0  0.090349  0  1.087148  0  0  0.093994  0  1.085952  0  0.093277  0  0.079594  0.087743  0  1.088082  0
H  H39  1  0.25813411  0.26926650  0.84821412  1  0  0.086304  0  1.011991  0  0  0.090322  0  1.087087  0  0  0.093966  0  1.085891  0  0.093274  0  0.079574  0.087717  0  1.088022  0
H  H40  1  0.50545343  0.66621807  0.99278167  1  0  0.062118  0  0.944712  0  0  0.071353  0  1.008276  0  0  0.074125  0  1.005819  0  0.061612  0  0.101091  0.069303  0  1.01008  0
H  H41  1  0.49454564  0.33378063  0.00721784  1  0  0.062169  0  0.944679  0  0  0.071377  0  1.008268  0  0  0.074167  0  1.005791  0  0.061622  0  0.101101  0.069326  0  1.010073  0
C  C42  1  0.43924154  0.74387988  0.36522041  1  0  0.142603  0  3.742506  0  0  0.114103  0  3.987727  0  0  0.124156  0  4.005152  0  0.461895  0  0.038131  0.107692  0  3.97573  0
C  C43  1  0.56075688  0.25611975  0.63478010  1  0  0.142524  0  3.742477  0  0  0.114024  0  3.987701  0  0  0.124079  0  4.005124  0  0.461907  0  0.038114  0.107612  0  3.975703  0
C  C44  1  0.53633994  0.69019211  0.40064342  1  0  -0.22245  0  3.710423  0  0  -0.238345  0  3.960227  0  0  -0.248773  0  3.978975  0  -0.001695  0  -0.097353  -0.231721  0  3.947756  0
C  C45  1  0.46365848  0.30980752  0.59935630  1  0  -0.222418  0  3.710362  0  0  -0.238308  0  3.960164  0  0  -0.248736  0  3.978913  0  -0.001708  0  -0.097364  -0.231685  0  3.947693  0
C  C46  1  0.52644388  0.57281786  0.32811783  1  0  0.268409  0  3.760292  0  0  0.25374  0  4.011635  0  0  0.269842  0  4.026853  0  0.395015  0  0.122224  0.243155  0  4.001025  0
C  C47  1  0.47355518  0.42718083  0.67188167  1  0  0.268323  0  3.760315  0  0  0.253651  0  4.011666  0  0  0.269753  0  4.026886  0  0.395018  0  0.122191  0.243067  0  4.001055  0
C  C48  1  0.41910779  0.51839069  0.22025870  1  0  -0.220047  0  3.715699  0  0  -0.237785  0  3.968171  0  0  -0.248513  0  3.988113  0  -0.055859  0  -0.096149  -0.230903  0  3.954807  0
C  C49  1  0.58089171  0.48160894  0.77974191  1  0  -0.220003  0  3.715755  0  0  -0.237736  0  3.968222  0  0  -0.248459  0  3.98816  0  -0.055753  0  -0.09613  -0.230852  0  3.954856  0
C  C50  1  0.32733081  0.57905080  0.19175728  1  0  0.136507  0  3.745954  0  0  0.106429  0  3.992964  0  0  0.115953  0  4.01164  0  0.484571  0  0.03497  0.100393  0  3.980172  0
C  C51  1  0.67266958  0.42095069  0.80824321  1  0  0.136505  0  3.746092  0  0  0.106421  0  3.993097  0  0  0.115943  0  4.011774  0  0.484543  0  0.034995  0.100385  0  3.980303  0
C  C52  1  0.74986947  0.56809625  0.45016006  1  0  0.234606  0  3.782078  0  0  0.2236  0  4.031068  0  0  0.235336  0  4.049392  0  0.361633  0  0.106623  0.21585  0  4.01846  0
C  C53  1  0.25013003  0.43190337  0.54983901  1  0  0.234576  0  3.782158  0  0  0.223592  0  4.031107  0  0  0.235328  0  4.049432  0  0.361617  0  0.106622  0.215842  0  4.018497  0
C  C54  1  0.85668824  0.68755124  0.47306405  1  0  -0.221946  0  3.752827  0  0  -0.240241  0  4.004755  0  0  -0.249121  0  4.025863  0  -0.032812  0  -0.099566  -0.234461  0  3.990588  0
C  C55  1  0.14331431  0.31245025  0.52693666  1  0  -0.221898  0  3.752771  0  0  -0.2402  0  4.004702  0  0  -0.249075  0  4.025796  0  -0.032738  0  -0.099545  -0.234419  0  3.990534  0
C  C56  1  0.98629476  0.74134026  0.56618013  1  0  0.118684  0  3.7767  0  0  0.098282  0  4.030349  0  0  0.104513  0  4.048063  0  0.494539  0  0.031559  0.09433  0  4.018234  0
C  C57  1  0.01370563  0.25866122  0.43382114  1  0  0.118636  0  3.77665  0  0  0.098236  0  4.0303  0  0  0.10447  0  4.048015  0  0.494456  0  0.031556  0.094285  0  4.018183  0
C  C58  1  0.91853933  0.56889511  0.60953855  1  0  0.122512  0  3.764023  0  0  0.101015  0  4.022794  0  0  0.10731  0  4.039954  0  0.537434  0  0.03304  0.097055  0  4.010978  0
C  C59  1  0.08146061  0.43110545  0.39046162  1  0  0.122491  0  3.764024  0  0  0.10099  0  4.022802  0  0  0.107284  0  4.039962  0  0.5374  0  0.033018  0.09703  0  4.010984  0
C  C60  1  0.78477148  0.50661313  0.51920983  1  0  -0.215787  0  3.719584  0  0  -0.232813  0  3.96729  0  0  -0.241164  0  3.987429  0  -0.117123  0  -0.097676  -0.227425  0  3.953781  0
C  C61  1  0.21522911  0.49338649  0.48079012  1  0  -0.215796  0  3.719626  0  0  -0.232827  0  3.967329  0  0  -0.241177  0  3.987466  0  -0.117076  0  -0.097712  -0.227439  0  3.953818  0
C  C62  1  0.55304322  0.37633551  0.30718785  1  0  0.160589  0  3.801093  0  0  0.1562  0  4.048867  0  0  0.16087  0  4.071142  0  0.2792  0  0.081023  0.152964  0  4.033685  0
C  C63  1  0.44695673  0.62366505  0.69281154  1  0  0.160783  0  3.800837  0  0  0.156276  0  4.048776  0  0  0.160946  0  4.071051  0  0.279183  0  0.08105  0.153039  0  4.033595  0
C  C64  1  0.64684969  0.31779608  0.25718605  1  0  -0.109876  0  3.727986  0  0  -0.135047  0  3.984763  0  0  -0.136402  0  4.002744  0  -0.009681  0  -0.085552  -0.134062  0  3.972672  0
C  C65  1  0.35315089  0.68220355  0.74281312  1  0  -0.109852  0  3.727855  0  0  -0.134993  0  3.984668  0  0  -0.136349  0  4.002651  0  -0.009503  0  -0.08556  -0.134008  0  3.972577  0
C  C66  1  0.59176070  0.18899819  0.20796126  1  0  -0.115392  0  3.71857  0  0  -0.136739  0  3.972049  0  0  -0.139447  0  3.990758  0  0.017119  0  -0.085617  -0.134877  0  3.959444  0
C  C67  1  0.40823880  0.81100144  0.79203781  1  0  -0.115438  0  3.718541  0  0  -0.136774  0  3.971988  0  0  -0.139483  0  3.990698  0  0.01693  0  -0.085638  -0.134912  0  3.959383  0
C  C68  1  0.44288374  0.11782662  0.20921479  1  0  0.18312  0  3.797915  0  0  0.179147  0  4.040793  0  0  0.184874  0  4.06355  0  0.338684  0  0.087412  0.175184  0  4.025266  0
C  C69  1  0.55711620  0.88217394  0.79078460  1  0  0.183042  0  3.797926  0  0  0.179086  0  4.040781  0  0  0.184813  0  4.063537  0  0.338679  0  0.087394  0.175123  0  4.025254  0
C  C70  1  0.34892349  0.17668002  0.25991166  1  0  -0.145965  0  3.761144  0  0  -0.165226  0  4.011628  0  0  -0.169034  0  4.032291  0  0.032759  0  -0.098417  -0.162558  0  3.997672  0
C  C71  1  0.65107710  0.82331961  0.74008828  1  0  -0.145923  0  3.76114  0  0  -0.165188  0  4.011614  0  0  -0.168996  0  4.032275  0  0.032805  0  -0.098416  -0.162521  0  3.997658  0
C  C72  1  0.40390359  0.30566090  0.30867416  1  0  -0.142614  0  3.764933  0  0  -0.160597  0  4.014181  0  0  -0.162818  0  4.034176  0  -0.089755  0  -0.096894  -0.158968  0  4.000586  0
C  C73  1  0.59609591  0.69433873  0.69132567  1  0  -0.142712  0  3.764923  0  0  -0.160662  0  4.014204  0  0  -0.162882  0  4.034197  0  -0.089758  0  -0.096902  -0.159031  0  4.00061  0
C  C74  1  0.24063187  0.92701112  0.07134653  1  0  0.373202  0  3.763423  0  0  0.343115  0  4.025103  0  0  0.35995  0  4.039731  0  0.861909  0  0.22648  0.331767  0  4.015101  0
C  C75  1  0.75936763  0.07298850  0.92865253  1  0  0.373216  0  3.763392  0  0  0.34314  0  4.025062  0  0  0.359974  0  4.03969  0  0.861899  0  0.226494  0.331792  0  4.01506  0
C  C76  1  0.21269888  0.97626339  0.99014138  1  0  -0.192347  0  3.684225  0  0  -0.207488  0  3.932445  0  0  -0.216398  0  3.95192  0  0.048841  0  -0.083608  -0.201861  0  3.919617  0
C  C77  1  0.78730259  0.02373810  0.00985844  1  0  -0.192278  0  3.684245  0  0  -0.207414  0  3.93247  0  0  -0.216331  0  3.951943  0  0.048882  0  -0.083569  -0.201787  0  3.919642  0
C  C78  1  0.07667818  0.91147245  0.90225452  1  0  0.023618  0  3.717677  0  0  0.003732  0  3.969541  0  0  0.009478  0  3.98588  0  -0.052658  0  -0.061755  0.00025  0  3.958375  0
C  C79  1  0.92332132  0.08852718  0.09774531  1  0  0.023571  0  3.717822  0  0  0.003687  0  3.969689  0  0  0.009433  0  3.986032  0  -0.052659  0  -0.061803  0.000204  0  3.958524  0
C  C80  1  0.97182613  0.79941059  0.89759972  1  0  -0.121551  0  3.735735  0  0  -0.136719  0  3.986306  0  0  -0.144053  0  4.007874  0  -0.031009  0  -0.088226  -0.132149  0  3.971959  0
C  C81  1  0.02817446  0.20058904  0.10240100  1  0  -0.121597  0  3.735808  0  0  -0.136775  0  3.986387  0  0  -0.144112  0  4.007956  0  -0.031017  0  -0.088228  -0.132206  0  3.97204  0
C  C82  1  0.00498974  0.75900798  0.98342037  1  0  0.135544  0  3.72676  0  0  0.10775  0  3.96952  0  0  0.115019  0  3.988635  0  0.460318  0  0.039244  0.103048  0  3.956658  0
C  C83  1  0.99500977  0.24099164  0.01657947  1  0  0.135518  0  3.726795  0  0  0.107731  0  3.969556  0  0  0.114998  0  3.988669  0  0.460333  0  0.039204  0.103029  0  3.956695  0
C  C84  1  0.48227337  0.91975175  0.16061126  1  0  0.346438  0  3.802538  0  0  0.323666  0  4.07029  0  0  0.339122  0  4.084391  0  0.891234  0  0.213268  0.313289  0  4.060574  0
C  C85  1  0.51772766  0.08024880  0.83938979  1  0  0.346536  0  3.802477  0  0  0.323714  0  4.070301  0  0  0.33917  0  4.0844  0  0.891367  0  0.213287  0.313337  0  4.060586  0
C  C86  1  0.60838420  0.96204653  0.25581746  1  0  -0.206779  0  3.71934  0  0  -0.223097  0  3.970487  0  0  -0.232491  0  3.99121  0  -0.02035  0  -0.09542  -0.217007  0  3.956582  0
C  C87  1  0.39161530  0.03795309  0.74418160  1  0  -0.20681  0  3.719286  0  0  -0.223119  0  3.970466  0  0  -0.232513  0  3.991188  0  -0.020332  0  -0.095404  -0.21703  0  3.956561  0
C  C88  1  0.70459697  0.89498257  0.25189872  1  0  -0.00823  0  3.768061  0  0  -0.02322  0  4.012436  0  0  -0.019509  0  4.032309  0  -0.064712  0  -0.081051  -0.025244  0  3.998664  0
C  C89  1  0.29540297  0.10501799  0.74810145  1  0  -0.008171  0  3.768069  0  0  -0.023161  0  4.012431  0  0  -0.019451  0  4.032304  0  -0.064701  0  -0.08103  -0.025184  0  3.998659  0
C  C90  1  0.67096647  0.78713329  0.15633214  1  0  -0.154761  0  3.768633  0  0  -0.165315  0  4.013191  0  0  -0.173957  0  4.036843  0  -0.074124  0  -0.107487  -0.159651  0  3.997074  0
C  C91  1  0.32903303  0.21286634  0.84366847  1  0  -0.154748  0  3.768598  0  0  -0.1653  0  4.013169  0  0  -0.173942  0  4.036826  0  -0.074132  0  -0.107477  -0.159638  0  3.997054  0
C  C92  1  0.54016501  0.75136405  0.06827005  1  0  0.128132  0  3.773282  0  0  0.10616  0  4.031906  0  0  0.112988  0  4.048295  0  0.51583  0  0.034379  0.101899  0  4.020531  0
C  C93  1  0.45983493  0.24863651  0.93173012  1  0  0.128051  0  3.773318  0  0  0.106105  0  4.031927  0  0  0.112919  0  4.04831  0  0.515811  0  0.03436  0.101844  0  4.020552  0
I  I94  1  0.88112299  0.54311900  0.14250765  1  0  -0.479086  0  1.018824  0  0  -0.423752  0  1.335481  0  0  -0.442077  0  1.312966  0  -0.50811  0  -0.220291  -0.410659  0  1.350617  0
I  I95  1  0.11887523  0.45688249  0.85749263  1  0  -0.479084  0  1.018829  0  0  -0.423749  0  1.335486  0  0  -0.442074  0  1.312968  0  -0.50814  0  -0.220288  -0.410654  0  1.35062  0
I  I96  1  0.17938829  0.96282867  0.41072780  1  0  -0.49008  0  0.99122  0  0  -0.431422  0  1.309353  0  0  -0.450289  0  1.286603  0  -0.511455  0  -0.234178  -0.417996  0  1.324657  0
I  I97  1  0.82061057  0.03717189  0.58927226  1  0  -0.490073  0  0.99122  0  0  -0.431415  0  1.30935  0  0  -0.450283  0  1.286598  0  -0.511433  0  -0.234176  -0.417988  0  1.324654  0
N  N98  1  0.33449520  0.68990136  0.26303773  1  0  -0.343962  0  3.304406  0  0  -0.256591  0  3.562007  0  0  -0.279882  0  3.583431  0  -1.256871  0  -0.354036  -0.240952  0  3.54708  0
N  N99  1  0.66550410  0.31010012  0.73696343  1  0  -0.343937  0  3.304386  0  0  -0.256578  0  3.562018  0  0  -0.279869  0  3.583443  0  -1.256827  0  -0.354052  -0.240939  0  3.547091  0
N  N100  1  0.61218969  0.50925772  0.36057681  1  0  -0.231052  0  3.454381  0  0  -0.153668  0  3.674193  0  0  -0.174475  0  3.695167  0  -1.255601  0  -0.242971  -0.139291  0  3.659261  0
N  N101  1  0.38780981  0.49074191  0.63942303  1  0  -0.231088  0  3.45433  0  0  -0.153676  0  3.674162  0  0  -0.174484  0  3.695136  0  -1.255579  0  -0.242969  -0.139299  0  3.65923  0
N  N102  1  0.01824437  0.68552623  0.63542303  1  0  -0.327663  0  3.077082  0  0  -0.290349  0  3.342799  0  0  -0.302606  0  3.360025  0  -1.199744  0  -0.33168  -0.281883  0  3.330775  0
N  N103  1  0.98175602  0.31447525  0.36457823  1  0  -0.327599  0  3.077063  0  0  -0.290287  0  3.342787  0  0  -0.302544  0  3.360011  0  -1.199626  0  -0.331642  -0.28182  0  3.330761  0
N  N104  1  0.13536686  0.82221607  0.06978780  1  0  -0.379085  0  3.2612  0  0  -0.300114  0  3.524154  0  0  -0.321473  0  3.541139  0  -1.237441  0  -0.332057  -0.285817  0  3.512517  0
N  N105  1  0.86463417  0.17778448  0.93021325  1  0  -0.379044  0  3.261175  0  0  -0.30008  0  3.524123  0  0  -0.321438  0  3.541108  0  -1.237442  0  -0.332018  -0.285783  0  3.512486  0
N  N106  1  0.38268960  0.98572890  0.15721372  1  0  -0.31526  0  3.442709  0  0  -0.240883  0  3.672125  0  0  -0.261861  0  3.690353  0  -1.227403  0  -0.255546  -0.226101  0  3.658801  0
N  N107  1  0.61731035  0.01427166  0.84278567  1  0  -0.315261  0  3.442722  0  0  -0.240879  0  3.672157  0  0  -0.261856  0  3.690384  0  -1.22754  0  -0.255547  -0.226097  0  3.658831  0
N  N108  1  0.44873327  0.81678943  0.06859569  1  0  -0.385818  0  3.074858  0  0  -0.35734  0  3.35108  0  0  -0.369987  0  3.364479  0  -1.223689  0  -0.335011  -0.348692  0  3.341735  0
N  N109  1  0.55126623  0.18321020  0.93140415  1  0  -0.385823  0  3.074888  0  0  -0.357324  0  3.35111  0  0  -0.369974  0  3.364522  0  -1.223695  0  -0.335008  -0.348676  0  3.341763  0
