# generated using pymatgen
data_CdH16C22(NO2)2
_symmetry_space_group_name_H-M   'P 1'
_cell_length_a   8.37909802
_cell_length_b   12.38940469
_cell_length_c   18.91316652
_cell_angle_alpha   101.99414815
_cell_angle_beta   90.00025129
_cell_angle_gamma   90.00066088
_symmetry_Int_Tables_number   1
_chemical_formula_structural   CdH16C22(NO2)2
_chemical_formula_sum   'Cd4 H64 C88 N8 O16'
_cell_volume   1920.55069844
_cell_formula_units_Z   4
loop_
 _symmetry_equiv_pos_site_id
 _symmetry_equiv_pos_as_xyz
  1  'x, y, z'
loop_
 _atom_site_type_symbol
 _atom_site_label
 _atom_site_symmetry_multiplicity
 _atom_site_fract_x
 _atom_site_fract_y
 _atom_site_fract_z
 _atom_site_occupancy
 _atom_site_pbe_bader_charge
 _atom_site_pbe_bader_spin_density
 _atom_site_pbe_cm5_charge
 _atom_site_pbe_ddec_charge
 _atom_site_pbe_ddec_spin_density
 _atom_site_pbe_ddec_sum_bond_order
 _atom_site_pbe_magmom
Cd  Cd0  1  0.48916771  0.35414865  0.44630475  1  1.265145  0  0.780309  0.896337  0  2.14755  0
Cd  Cd1  1  0.98916885  0.14584620  0.05369804  1  1.26501  0  0.780311  0.896343  0  2.147628  0
Cd  Cd2  1  0.51083418  0.64585152  0.55369890  1  1.265181  0  0.78031  0.896316  0  2.147662  0
Cd  Cd3  1  0.01083304  0.85414908  0.94630121  1  1.265178  0  0.780331  0.896351  0  2.147653  0
H  H4  1  0.24118505  0.47345704  0.21773183  1  0.031457  0  0.087655  0.102797  0  1.021428  0
H  H5  1  0.74118404  0.02654886  0.28227206  1  0.031373  0  0.087666  0.102796  0  1.021315  0
H  H6  1  0.75881206  0.52654729  0.78227082  1  0.031303  0  0.087667  0.102788  0  1.021351  0
H  H7  1  0.25881427  0.97345794  0.71773094  1  0.031439  0  0.087659  0.102804  0  1.021375  0
H  H8  1  0.13767802  0.37310320  0.25661459  1  0.040816  0  0.097326  0.123666  0  0.993204  0
H  H9  1  0.63767953  0.12690265  0.24338699  1  0.040711  0  0.097279  0.123623  0  0.993228  0
H  H10  1  0.86231432  0.62690278  0.74338830  1  0.040797  0  0.097255  0.123578  0  0.993265  0
H  H11  1  0.36232116  0.87310664  0.75661584  1  0.040844  0  0.097323  0.123676  0  0.993237  0
H  H12  1  0.48468770  0.41449911  0.14101972  1  0.031295  0  0.090558  0.089152  0  1.026048  0
H  H13  1  0.98469921  0.08551066  0.35897884  1  0.031429  0  0.090579  0.089128  0  1.026156  0
H  H14  1  0.51529987  0.58550195  0.85898036  1  0.031583  0  0.090579  0.089161  0  1.026125  0
H  H15  1  0.01531104  0.91449535  0.64102194  1  0.031317  0  0.090576  0.089146  0  1.026119  0
H  H16  1  0.61759165  0.25940477  0.05400604  1  0.079856  0  0.094961  0.096766  0  1.038513  0
H  H17  1  0.11759690  0.24061252  0.44599290  1  0.080001  0  0.094951  0.096778  0  1.038557  0
H  H18  1  0.38240069  0.74060126  0.94599315  1  0.079804  0  0.094961  0.096723  0  1.038639  0
H  H19  1  0.88240260  0.75939930  0.55400606  1  0.079836  0  0.094958  0.096782  0  1.038547  0
H  H20  1  0.54160090  0.06719411  0.05173546  1  0.051545  0  0.096108  0.100168  0  1.019195  0
H  H21  1  0.04159516  0.43281837  0.44826371  1  0.051518  0  0.096113  0.10015  0  1.019108  0
H  H22  1  0.45839741  0.93280941  0.94826549  1  0.051555  0  0.096099  0.100132  0  1.019204  0
H  H23  1  0.95839957  0.56719257  0.55173935  1  0.051779  0  0.096138  0.100168  0  1.019214  0
H  H24  1  0.18615272  0.17874059  0.21534656  1  0.064616  0  0.100283  0.113517  0  1.0153  0
H  H25  1  0.68615560  0.32125998  0.28464960  1  0.064758  0  0.100307  0.113506  0  1.015367  0
H  H26  1  0.81383843  0.82126047  0.78465351  1  0.064846  0  0.100289  0.113521  0  1.015362  0
H  H27  1  0.31384032  0.67874273  0.71535071  1  0.064802  0  0.100298  0.1135  0  1.015408  0
H  H28  1  0.22562673  0.98813786  0.17564959  1  0.110495  0  0.106098  0.141884  0  1.006007  0
H  H29  1  0.72561992  0.51186862  0.32435073  1  0.110504  0  0.106082  0.141826  0  1.006065  0
H  H30  1  0.77436441  0.01186240  0.82434825  1  0.111082  0  0.106071  0.141809  0  1.006056  0
H  H31  1  0.27437720  0.48814068  0.67565105  1  0.110432  0  0.106076  0.141853  0  1.006025  0
H  H32  1  0.41594975  0.94221963  0.13981144  1  0.054686  0  0.09514  0.110221  0  1.020379  0
H  H33  1  0.91594408  0.55779097  0.36019035  1  0.054923  0  0.095124  0.110109  0  1.020446  0
H  H34  1  0.58404856  0.05778386  0.86019162  1  0.054786  0  0.095164  0.110217  0  1.020441  0
H  H35  1  0.08405542  0.44221745  0.63981447  1  0.054654  0  0.095159  0.110235  0  1.020378  0
H  H36  1  0.73917674  0.41676305  0.58172430  1  0.143483  0  0.121212  0.097334  0  1.006384  0
H  H37  1  0.23916230  0.08323059  0.91827782  1  0.143395  0  0.121253  0.097395  0  1.006416  0
H  H38  1  0.26083112  0.58323053  0.41827788  1  0.143398  0  0.121256  0.097435  0  1.006338  0
H  H39  1  0.76085033  0.91676384  0.08172290  1  0.14332  0  0.121295  0.097426  0  1.006413  0
H  H40  1  0.92441104  0.32353614  0.65494715  1  0.054177  0  0.111241  0.116468  0  0.996969  0
H  H41  1  0.42440225  0.17645417  0.84505483  1  0.054127  0  0.111261  0.116521  0  0.99688  0
H  H42  1  0.07559682  0.67645582  0.34505321  1  0.054129  0  0.111259  0.116513  0  0.996854  0
H  H43  1  0.57560799  0.82354277  0.15494465  1  0.054224  0  0.111263  0.116572  0  0.996885  0
H  H44  1  0.95970645  0.11852758  0.61955428  1  0.099599  0  0.111654  0.111567  0  0.985781  0
H  H45  1  0.45970393  0.38146304  0.88044782  1  0.099768  0  0.111641  0.111541  0  0.985878  0
H  H46  1  0.04029663  0.88146436  0.38044766  1  0.099736  0  0.111659  0.111551  0  0.985846  0
H  H47  1  0.54030273  0.61853469  0.11955337  1  0.099731  0  0.111623  0.111508  0  0.985839  0
H  H48  1  0.88447709  0.94032415  0.53732278  1  0.067729  0  0.104385  0.10687  0  1.026522  0
H  H49  1  0.38447821  0.55966738  0.96267357  1  0.067834  0  0.104368  0.106865  0  1.026483  0
H  H50  1  0.11551645  0.05966452  0.46267606  1  0.067907  0  0.104349  0.10683  0  1.026432  0
H  H51  1  0.61552130  0.44033036  0.03732709  1  0.067772  0  0.104358  0.106837  0  1.026524  0
H  H52  1  0.71917868  0.83733356  0.43780240  1  0.148695  0  0.107758  0.132675  0  1.034456  0
H  H53  1  0.21917876  0.66265975  0.06219022  1  0.148819  0  0.107825  0.132741  0  1.034498  0
H  H54  1  0.28081844  0.16266345  0.56219181  1  0.148742  0  0.107803  0.132732  0  1.034444  0
H  H55  1  0.78081597  0.33733306  0.93780868  1  0.148686  0  0.107805  0.132769  0  1.034404  0
H  H56  1  0.50852667  0.83932027  0.34374839  1  0.130818  0  0.117656  0.124265  0  0.962562  0
H  H57  1  0.00853244  0.66067525  0.15624891  1  0.130903  0  0.117656  0.124291  0  0.962458  0
H  H58  1  0.49147760  0.16068341  0.65624253  1  0.130822  0  0.117623  0.124245  0  0.962547  0
H  H59  1  0.99146945  0.33931501  0.84375439  1  0.130707  0  0.117641  0.124264  0  0.962581  0
H  H60  1  0.31740890  0.94934470  0.28369032  1  0.074626  0  0.111723  0.118056  0  0.995386  0
H  H61  1  0.81741122  0.55065270  0.21630782  1  0.074675  0  0.111738  0.118082  0  0.99537  0
H  H62  1  0.68259299  0.05066879  0.71630835  1  0.074313  0  0.111706  0.118056  0  0.995375  0
H  H63  1  0.18258590  0.44933433  0.78369025  1  0.074345  0  0.111716  0.118054  0  0.995403  0
H  H64  1  0.31447954  0.15659556  0.32480038  1  0.143945  0  0.11909  0.093003  0  1.023903  0
H  H65  1  0.81447335  0.34340365  0.17519635  1  0.143919  0  0.119088  0.093044  0  1.023892  0
H  H66  1  0.68552593  0.84341620  0.67520280  1  0.144089  0  0.119068  0.093018  0  1.023881  0
H  H67  1  0.18551660  0.65658597  0.82479469  1  0.143808  0  0.11905  0.092965  0  1.023897  0
C  C68  1  0.36444059  0.42461429  0.30608317  1  1.575414  0  0.192841  0.627001  0  4.204137  0
C  C69  1  0.86443714  0.07538859  0.19391788  1  1.575493  0  0.192952  0.626978  0  4.204263  0
C  C70  1  0.63555772  0.57538839  0.69391925  1  1.575526  0  0.192899  0.626941  0  4.204258  0
C  C71  1  0.13556355  0.92461576  0.80608318  1  1.575412  0  0.192842  0.627085  0  4.204033  0
C  C72  1  0.25458095  0.39850112  0.23945004  1  -0.032558  0  -0.171575  -0.346657  0  3.933514  0
C  C73  1  0.75458101  0.10150329  0.26054997  1  -0.032311  0  -0.171539  -0.34646  0  3.933325  0
C  C74  1  0.74541259  0.60150322  0.76055156  1  -0.032249  0  -0.171501  -0.346441  0  3.933412  0
C  C75  1  0.24541969  0.89850190  0.73945016  1  -0.032613  0  -0.171572  -0.346664  0  3.933591  0
C  C76  1  0.32751375  0.30669344  0.18419280  1  0.00903  0  -0.012327  0.153699  0  3.982801  0
C  C77  1  0.82752071  0.19331333  0.31580292  1  0.009093  0  -0.012329  0.153386  0  3.982982  0
C  C78  1  0.67247979  0.69331092  0.81580774  1  0.008961  0  -0.012368  0.15347  0  3.982834  0
C  C79  1  0.17248237  0.80669353  0.68419639  1  0.009238  0  -0.012275  0.153655  0  3.982789  0
C  C80  1  0.44872007  0.32888998  0.13816301  1  -0.103686  0  -0.107228  -0.1693  0  3.994708  0
C  C81  1  0.94873188  0.17111703  0.36183244  1  -0.103653  0  -0.107302  -0.169162  0  3.994979  0
C  C82  1  0.55126750  0.67110862  0.86183513  1  -0.103971  0  -0.107307  -0.169286  0  3.994751  0
C  C83  1  0.05127717  0.82888988  0.63816317  1  -0.103621  0  -0.107273  -0.169234  0  3.994789  0
C  C84  1  0.52355770  0.24294733  0.09018082  1  0.000124  0  -0.098367  -0.071407  0  4.038547  0
C  C85  1  0.02356168  0.25706092  0.40981454  1  0.000153  0  -0.098269  -0.071404  0  4.038776  0
C  C86  1  0.47643584  0.75705377  0.90981661  1  0.000129  0  -0.098275  -0.071294  0  4.038663  0
C  C87  1  0.97643901  0.74294267  0.59018219  1  0.000178  0  -0.098292  -0.071452  0  4.038693  0
C  C88  1  0.47965584  0.13386755  0.08825634  1  -0.037145  0  -0.099184  -0.139636  0  3.955767  0
C  C89  1  0.97965361  0.36614134  0.41174261  1  -0.037039  0  -0.099314  -0.13968  0  3.955962  0
C  C90  1  0.52034246  0.86613349  0.91174531  1  -0.036981  0  -0.099226  -0.139665  0  3.955852  0
C  C91  1  0.02034828  0.63386467  0.58825764  1  -0.037182  0  -0.099361  -0.139731  0  3.955975  0
C  C92  1  0.35815710  0.10946418  0.13340203  1  -0.07317  0  -0.0184  0.137861  0  4.005621  0
C  C93  1  0.85816080  0.39054364  0.36659708  1  -0.073487  0  -0.01846  0.137621  0  4.006085  0
C  C94  1  0.64183405  0.89054018  0.86659852  1  -0.073481  0  -0.018399  0.13786  0  4.005725  0
C  C95  1  0.14183990  0.60946154  0.63340358  1  -0.073389  0  -0.018325  0.137968  0  4.005791  0
C  C96  1  0.28219526  0.19670603  0.18044553  1  -0.058435  0  -0.101604  -0.223689  0  3.941519  0
C  C97  1  0.78220057  0.30330116  0.31955123  1  -0.058649  0  -0.101569  -0.223494  0  3.941595  0
C  C98  1  0.71779589  0.80330000  0.81955420  1  -0.058504  0  -0.101576  -0.223603  0  3.941513  0
C  C99  1  0.21780013  0.69670316  0.68045195  1  -0.058802  0  -0.10164  -0.223683  0  3.94153  0
C  C100  1  0.31130403  0.99181204  0.13206267  1  -0.072638  0  -0.165784  -0.363558  0  3.957944  0
C  C101  1  0.81129878  0.50819355  0.36793663  1  -0.072986  0  -0.165723  -0.363204  0  3.957885  0
C  C102  1  0.68869428  0.00818983  0.86793858  1  -0.073342  0  -0.165796  -0.363485  0  3.957998  0
C  C103  1  0.18869834  0.49181493  0.63206503  1  -0.072338  0  -0.165759  -0.363539  0  3.957912  0
C  C104  1  0.22620929  0.93205190  0.06411283  1  1.557526  0  0.205345  0.647104  0  4.135005  0
C  C105  1  0.72620336  0.56794795  0.43588813  1  1.557568  0  0.205453  0.647086  0  4.134807  0
C  C106  1  0.77379856  0.06794584  0.93588730  1  1.557524  0  0.205419  0.647211  0  4.134771  0
C  C107  1  0.27379137  0.43205637  0.56411505  1  1.557193  0  0.205323  0.647115  0  4.134955  0
C  C108  1  0.75541751  0.32767780  0.56898585  1  0.53768  0  0.068533  0.130512  0  3.907601  0
C  C109  1  0.25540593  0.17231600  0.93101473  1  0.538262  0  0.068502  0.130485  0  3.907791  0
C  C110  1  0.24459392  0.67231663  0.43101487  1  0.5382  0  0.06847  0.130388  0  3.907661  0
C  C111  1  0.74459954  0.82768176  0.06898434  1  0.538259  0  0.068472  0.130479  0  3.907783  0
C  C112  1  0.85992851  0.27490907  0.60925264  1  -0.039149  0  -0.076108  -0.11664  0  3.962094  0
C  C113  1  0.35991624  0.22508317  0.89074792  1  -0.039749  0  -0.076203  -0.116843  0  3.962182  0
C  C114  1  0.14008293  0.72508206  0.39074814  1  -0.039741  0  -0.076205  -0.116808  0  3.962118  0
C  C115  1  0.64009162  0.77491459  0.10925116  1  -0.039866  0  -0.07622  -0.116941  0  3.962302  0
C  C116  1  0.87851656  0.16197600  0.58997217  1  -0.010635  0  -0.060045  -0.072582  0  3.937591  0
C  C117  1  0.37851119  0.33801639  0.91002950  1  -0.010681  0  -0.059933  -0.072454  0  3.937631  0
C  C118  1  0.12148772  0.83801431  0.41002796  1  -0.010639  0  -0.059959  -0.072466  0  3.937597  0
C  C119  1  0.62149308  0.66198218  0.08997075  1  -0.010517  0  -0.059932  -0.072347  0  3.937492  0
C  C120  1  0.79046211  0.10139278  0.53122029  1  -0.072461  0  -0.002823  0.034304  0  4.028945  0
C  C121  1  0.29045957  0.39860054  0.96877817  1  -0.072682  0  -0.002849  0.034292  0  4.029001  0
C  C122  1  0.20953500  0.89859918  0.46878007  1  -0.072633  0  -0.002786  0.034297  0  4.029114  0
C  C123  1  0.70953754  0.60139641  0.03121973  1  -0.072508  0  -0.002834  0.034178  0  4.028995  0
C  C124  1  0.80220951  0.98411761  0.50859983  1  -0.024256  0  -0.086435  -0.124271  0  3.997283  0
C  C125  1  0.30220897  0.51587730  0.99139896  1  -0.024578  0  -0.086396  -0.124166  0  3.997496  0
C  C126  1  0.19778760  0.01587600  0.49140077  1  -0.024716  0  -0.086369  -0.124087  0  3.997378  0
C  C127  1  0.69778933  0.48411962  0.00860106  1  -0.024121  0  -0.08642  -0.124132  0  3.997353  0
C  C128  1  0.71175271  0.92722951  0.45308800  1  -0.016628  0  -0.085305  -0.125245  0  3.952757  0
C  C129  1  0.21174991  0.57276367  0.04690882  1  -0.016311  0  -0.085384  -0.125433  0  3.953115  0
C  C130  1  0.28825037  0.07276746  0.54690885  1  -0.016357  0  -0.08537  -0.125423  0  3.953092  0
C  C131  1  0.78824602  0.42722829  0.95309155  1  -0.016828  0  -0.08531  -0.125412  0  3.952838  0
C  C132  1  0.60211353  0.98444467  0.41586468  1  0.011608  0  -0.000813  0.044557  0  4.006436  0
C  C133  1  0.10210773  0.51554838  0.08413191  1  0.010465  0  -0.000808  0.044547  0  4.006459  0
C  C134  1  0.39789552  0.01555646  0.58413064  1  0.011392  0  -0.000893  0.044516  0  4.006568  0
C  C135  1  0.89788700  0.48444278  0.91586675  1  0.01164  0  -0.000878  0.044548  0  4.006494  0
C  C136  1  0.50234189  0.92916299  0.35960117  1  -0.108159  0  -0.061212  -0.078454  0  3.93213  0
C  C137  1  0.00233999  0.57083332  0.14039517  1  -0.108627  0  -0.061162  -0.078391  0  3.931935  0
C  C138  1  0.49765999  0.07084143  0.64039515  1  -0.10826  0  -0.061172  -0.078456  0  3.932047  0
C  C139  1  0.99765355  0.42915867  0.85960308  1  -0.108034  0  -0.061205  -0.078493  0  3.932077  0
C  C140  1  0.39740494  0.98939664  0.32661877  1  -0.037142  0  -0.081351  -0.130822  0  3.981594  0
C  C141  1  0.89740376  0.51060230  0.17337815  1  -0.037024  0  -0.081377  -0.130907  0  3.981617  0
C  C142  1  0.60259695  0.01061271  0.67337984  1  -0.036935  0  -0.081308  -0.130757  0  3.981614  0
C  C143  1  0.10259336  0.48938888  0.82661893  1  -0.037083  0  -0.081292  -0.130717  0  3.981573  0
C  C144  1  0.39306166  0.10491844  0.34964693  1  0.53868  0  0.062273  0.11464  0  3.920588  0
C  C145  1  0.89305970  0.39507977  0.15035140  1  0.538669  0  0.062279  0.11465  0  3.920665  0
C  C146  1  0.60694262  0.89509005  0.65035368  1  0.5388  0  0.062289  0.114584  0  3.920584  0
C  C147  1  0.10693742  0.60491061  0.84964398  1  0.539084  0  0.062266  0.114625  0  3.920417  0
C  C148  1  0.58776082  0.10122009  0.43621015  1  0.452969  0  0.122194  0.121742  0  3.982418  0
C  C149  1  0.08775305  0.39877379  0.06378857  1  0.454393  0  0.12217  0.121809  0  3.982252  0
C  C150  1  0.41224942  0.89877933  0.56378863  1  0.453156  0  0.122284  0.121794  0  3.982374  0
C  C151  1  0.91224645  0.60121902  0.93621033  1  0.452903  0  0.122188  0.121609  0  3.982519  0
C  C152  1  0.68439255  0.16098058  0.49490786  1  0.574674  0  0.121183  0.125422  0  3.969422  0
C  C153  1  0.18438794  0.33901250  0.00509040  1  0.575075  0  0.121175  0.125491  0  3.969318  0
C  C154  1  0.31561053  0.83901630  0.50509479  1  0.575041  0  0.121161  0.125481  0  3.969446  0
C  C155  1  0.81561156  0.66098035  0.99490586  1  0.574723  0  0.12124  0.125641  0  3.969194  0
N  N156  1  0.67017370  0.27217663  0.51400719  1  -1.242964  0  -0.316279  -0.262274  0  3.501646  0
N  N157  1  0.17016362  0.22781977  0.98599149  1  -1.243215  0  -0.316312  -0.26233  0  3.501862  0
N  N158  1  0.32983655  0.72782110  0.48599400  1  -1.243096  0  -0.316318  -0.262281  0  3.501678  0
N  N159  1  0.82984304  0.77217556  0.01400512  1  -1.242942  0  -0.316342  -0.262332  0  3.501606  0
N  N160  1  0.48512719  0.15843807  0.40284506  1  -1.220056  0  -0.317208  -0.267994  0  3.502404  0
N  N161  1  0.98511781  0.34155846  0.09715373  1  -1.220249  0  -0.317244  -0.268123  0  3.502662  0
N  N162  1  0.51487589  0.84156626  0.59715760  1  -1.220184  0  -0.317252  -0.268017  0  3.502469  0
N  N163  1  0.01487095  0.65843276  0.90284071  1  -1.220104  0  -0.317195  -0.267972  0  3.502297  0
O  O164  1  0.35462646  0.35245855  0.34629292  1  -1.160622  0  -0.347134  -0.583679  0  2.313222  0
O  O165  1  0.85462028  0.14754099  0.15370500  1  -1.160671  0  -0.347143  -0.583657  0  2.313366  0
O  O166  1  0.64537424  0.64754497  0.65370804  1  -1.160663  0  -0.347124  -0.583614  0  2.313224  0
O  O167  1  0.14537326  0.85245927  0.84629337  1  -1.160625  0  -0.347172  -0.583709  0  2.313118  0
O  O168  1  0.45294133  0.50756475  0.31585095  1  -1.189877  0  -0.351379  -0.588886  0  2.098524  0
O  O169  1  0.95294138  0.99244120  0.18415184  1  -1.189903  0  -0.351478  -0.58893  0  2.098614  0
O  O170  1  0.54705818  0.49243631  0.68414859  1  -1.189984  0  -0.351438  -0.588902  0  2.098631  0
O  O171  1  0.04706529  0.00756640  0.81585340  1  -1.18989  0  -0.351362  -0.588933  0  2.098523  0
O  O172  1  0.22206110  0.82859287  0.04879340  1  -1.176039  0  -0.324162  -0.560795  0  2.150457  0
O  O173  1  0.72204875  0.67140771  0.45121189  1  -1.176061  0  -0.324172  -0.560736  0  2.150279  0
O  O174  1  0.77796227  0.17140487  0.95120726  1  -1.175985  0  -0.324128  -0.560781  0  2.150311  0
O  O175  1  0.27794121  0.32859653  0.54879604  1  -1.175972  0  -0.324127  -0.560811  0  2.150492  0
O  O176  1  0.15618535  0.99080289  0.02398743  1  -1.174833  0  -0.340792  -0.585702  0  2.373411  0
O  O177  1  0.65619075  0.50919141  0.47601261  1  -1.175128  0  -0.340836  -0.585718  0  2.373341  0
O  O178  1  0.84381296  0.00918910  0.97601135  1  -1.175174  0  -0.340862  -0.585784  0  2.373322  0
O  O179  1  0.34380995  0.49080962  0.52398904  1  -1.175047  0  -0.340802  -0.585714  0  2.373356  0
