# generated using pymatgen
data_CdH12C14S2(N2O)2
_symmetry_space_group_name_H-M   'P 1'
_cell_length_a   8.24233873
_cell_length_b   8.74162126
_cell_length_c   22.25790000
_cell_angle_alpha   90.00000000
_cell_angle_beta   90.00000000
_cell_angle_gamma   90.00000000
_symmetry_Int_Tables_number   1
_chemical_formula_structural   CdH12C14S2(N2O)2
_chemical_formula_sum   'Cd4 H48 C56 S8 N16 O8'
_cell_volume   1603.71293360
_cell_formula_units_Z   4
loop_
 _symmetry_equiv_pos_site_id
 _symmetry_equiv_pos_as_xyz
  1  'x, y, z'
loop_
 _atom_site_type_symbol
 _atom_site_label
 _atom_site_symmetry_multiplicity
 _atom_site_fract_x
 _atom_site_fract_y
 _atom_site_fract_z
 _atom_site_occupancy
 _atom_site_hle17_bader_spin_density
 _atom_site_hle17_ddec_charge
 _atom_site_hle17_ddec_spin_density
 _atom_site_hle17_ddec_sum_bond_order
 _atom_site_hle17_magmom
 _atom_site_hse06_10hf_bader_spin_density
 _atom_site_hse06_10hf_ddec_charge
 _atom_site_hse06_10hf_ddec_spin_density
 _atom_site_hse06_10hf_ddec_sum_bond_order
 _atom_site_hse06_10hf_magmom
 _atom_site_hse06_bader_spin_density
 _atom_site_hse06_ddec_charge
 _atom_site_hse06_ddec_spin_density
 _atom_site_hse06_ddec_sum_bond_order
 _atom_site_hse06_magmom
 _atom_site_pbe_bader_charge
 _atom_site_pbe_bader_spin_density
 _atom_site_pbe_cm5_charge
 _atom_site_pbe_ddec_charge
 _atom_site_pbe_ddec_spin_density
 _atom_site_pbe_ddec_sum_bond_order
 _atom_site_pbe_magmom
Cd  Cd0  1  0.05937514  0.32230520  0.60043490  1  0  1.016529  0  1.92819  0  0  0.822254  0  2.401373  0  0  0.872079  0  2.358169  0  1.206083  0  0.759057  0.787338  0  2.430604  0
Cd  Cd1  1  0.44062737  0.67769580  0.10043400  1  0  1.016537  0  1.928225  0  0  0.822271  0  2.401404  0  0  0.872103  0  2.358189  0  1.206162  0  0.759045  0.787352  0  2.430636  0
Cd  Cd2  1  0.94063472  0.82229827  0.89956240  1  0  1.016548  0  1.928094  0  0  0.822274  0  2.401277  0  0  0.872097  0  2.358075  0  1.206128  0  0.759088  0.787359  0  2.43051  0
Cd  Cd3  1  0.55937036  0.17769701  0.39956465  1  0  1.016563  0  1.928138  0  0  0.822311  0  2.401307  0  0  0.872145  0  2.358088  0  1.206088  0  0.759062  0.787397  0  2.430538  0
H  H4  1  0.00527399  0.40247912  0.45037807  1  0  0.076682  0  0.947436  0  0  0.088041  0  1.009225  0  0  0.089286  0  1.008928  0  0.105242  0  0.115261  0.087095  0  1.0095  0
H  H5  1  0.49471396  0.59752417  0.95037897  1  0  0.076703  0  0.94746  0  0  0.088058  0  1.00922  0  0  0.089306  0  1.008916  0  0.105121  0  0.115241  0.087111  0  1.009498  0
H  H6  1  0.99471039  0.90247218  0.04961879  1  0  0.07668  0  0.94752  0  0  0.088062  0  1.009253  0  0  0.089311  0  1.008951  0  0.105084  0  0.115254  0.087117  0  1.009527  0
H  H7  1  0.50527771  0.09753225  0.54962103  1  0  0.076637  0  0.947506  0  0  0.088006  0  1.00927  0  0  0.089254  0  1.008966  0  0.105083  0  0.115239  0.087061  0  1.009543  0
H  H8  1  0.88174124  0.60025936  0.38445945  1  0  0.100034  0  1.005874  0  0  0.103431  0  1.076834  0  0  0.106363  0  1.077045  0  0.141178  0  0.09477  0.10129  0  1.076875  0
H  H9  1  0.61825049  0.39975193  0.88445855  1  0  0.099973  0  1.005868  0  0  0.103391  0  1.076822  0  0  0.106321  0  1.077036  0  0.141119  0  0.094767  0.101252  0  1.076866  0
H  H10  1  0.11823950  0.10025143  0.11553965  1  0  0.099959  0  1.005977  0  0  0.103404  0  1.076891  0  0  0.106334  0  1.077103  0  0.141147  0  0.094746  0.101264  0  1.076935  0
H  H11  1  0.38174845  0.89975301  0.61554145  1  0  0.100005  0  1.005826  0  0  0.103411  0  1.076805  0  0  0.10634  0  1.077017  0  0.141124  0  0.094769  0.101272  0  1.076846  0
H  H12  1  0.71087712  0.80783184  0.43309566  1  0  0.093677  0  0.958507  0  0  0.102313  0  1.021302  0  0  0.10412  0  1.021241  0  0.102082  0  0.102047  0.101025  0  1.021304  0
H  H13  1  0.78911583  0.19217717  0.93309162  1  0  0.093616  0  0.958447  0  0  0.102228  0  1.021277  0  0  0.104031  0  1.021219  0  0.102118  0  0.102028  0.100951  0  1.021248  0
H  H14  1  0.28910848  0.30782619  0.06690658  1  0  0.093726  0  0.958367  0  0  0.102339  0  1.021171  0  0  0.104132  0  1.021142  0  0.10201  0  0.102056  0.101062  0  1.021142  0
H  H15  1  0.21088917  0.69217366  0.56690613  1  0  0.093672  0  0.958426  0  0  0.10228  0  1.021235  0  0  0.104073  0  1.021205  0  0.102021  0  0.102026  0.100997  0  1.021221  0
H  H16  1  0.66830668  0.79880949  0.54413309  1  0  0.100358  0  0.985563  0  0  0.107481  0  1.052826  0  0  0.110318  0  1.052549  0  0.113796  0  0.101628  0.105399  0  1.053253  0
H  H17  1  0.83168628  0.20119266  0.04412905  1  0  0.100472  0  0.985623  0  0  0.107593  0  1.052879  0  0  0.11043  0  1.052607  0  0.113711  0  0.101663  0.10551  0  1.053307  0
H  H18  1  0.33168135  0.29880613  0.95586825  1  0  0.100496  0  0.985534  0  0  0.107616  0  1.052796  0  0  0.110454  0  1.052518  0  0.113765  0  0.101675  0.105532  0  1.053227  0
H  H19  1  0.16831994  0.70119030  0.45586825  1  0  0.100446  0  0.985531  0  0  0.10754  0  1.052817  0  0  0.110377  0  1.05254  0  0.113732  0  0.101645  0.105456  0  1.053246  0
H  H20  1  0.81365499  0.84946371  0.68471239  1  0  0.122694  0  0.942782  0  0  0.131152  0  1.003578  0  0  0.134739  0  1.001941  0  0.12089  0  0.110143  0.128582  0  1.004899  0
H  H21  1  0.68633675  0.15053501  0.18471419  1  0  0.122744  0  0.942803  0  0  0.131214  0  1.003592  0  0  0.134802  0  1.00195  0  0.120964  0  0.110197  0.128641  0  1.004915  0
H  H22  1  0.18634881  0.34946835  0.81529120  1  0  0.122624  0  0.942804  0  0  0.131106  0  1.003601  0  0  0.134696  0  1.001959  0  0.120818  0  0.110111  0.128535  0  1.004922  0
H  H23  1  0.31366461  0.65053265  0.31528626  1  0  0.122771  0  0.942733  0  0  0.131238  0  1.003544  0  0  0.134826  0  1.001906  0  0.12096  0  0.110203  0.128666  0  1.004867  0
H  H24  1  0.06526060  0.93728151  0.73923057  1  0  0.104686  0  0.940313  0  0  0.113896  0  0.999198  0  0  0.115907  0  0.998941  0  0.09423  0  0.109258  0.112417  0  0.999454  0
H  H25  1  0.43473462  0.06272635  0.23923641  1  0  0.104705  0  0.940274  0  0  0.113932  0  0.999165  0  0  0.115941  0  0.998912  0  0.094221  0  0.109282  0.112453  0  0.99942  0
H  H26  1  0.93474440  0.43729074  0.76077258  1  0  0.104715  0  0.940321  0  0  0.113954  0  0.999179  0  0  0.115963  0  0.998927  0  0.094054  0  0.109282  0.112474  0  0.999434  0
H  H27  1  0.56526553  0.56271713  0.26076584  1  0  0.104696  0  0.940313  0  0  0.113911  0  0.999205  0  0  0.115922  0  0.998949  0  0.094153  0  0.109287  0.112432  0  0.99946  0
H  H28  1  0.30766268  0.76401960  0.74159737  1  0  0.105076  0  0.994162  0  0  0.107294  0  1.066612  0  0  0.110702  0  1.06585  0  0.139507  0  0.095977  0.104833  0  1.06733  0
H  H29  1  0.19233497  0.23599169  0.24160231  1  0  0.105152  0  0.99415  0  0  0.107352  0  1.066601  0  0  0.110756  0  1.065848  0  0.139629  0  0.095959  0.10489  0  1.067321  0
H  H30  1  0.69234354  0.26402654  0.75840263  1  0  0.105087  0  0.994097  0  0  0.107319  0  1.066512  0  0  0.110726  0  1.065752  0  0.139552  0  0.095976  0.104858  0  1.06723  0
H  H31  1  0.80766761  0.73598133  0.25839769  1  0  0.105142  0  0.994191  0  0  0.107308  0  1.066665  0  0  0.110716  0  1.065902  0  0.139522  0  0.095951  0.104846  0  1.067384  0
H  H32  1  0.29355260  0.51472031  0.68651894  1  0  0.079506  0  0.951319  0  0  0.085905  0  1.020078  0  0  0.088397  0  1.017892  0  0.117751  0  0.110107  0.084046  0  1.021747  0
H  H33  1  0.20644626  0.48528412  0.18651984  1  0  0.07955  0  0.951461  0  0  0.085964  0  1.020159  0  0  0.088455  0  1.017976  0  0.117712  0  0.110148  0.084105  0  1.021829  0
H  H34  1  0.70644998  0.01472496  0.81347881  1  0  0.07953  0  0.951353  0  0  0.085969  0  1.020057  0  0  0.088462  0  1.017869  0  0.117843  0  0.11013  0.08411  0  1.021727  0
H  H35  1  0.79356239  0.98527261  0.31347971  1  0  0.079523  0  0.951495  0  0  0.085973  0  1.020172  0  0  0.088462  0  1.017994  0  0.117748  0  0.110156  0.084114  0  1.02184  0
H  H36  1  0.52141026  0.38525119  0.63836436  1  0  0.083021  0  0.954622  0  0  0.096242  0  1.027807  0  0  0.097453  0  1.026529  0  0.031297  0  0.090779  0.095275  0  1.028829  0
H  H37  1  0.97858026  0.61474180  0.13836301  1  0  0.082975  0  0.954708  0  0  0.096264  0  1.027816  0  0  0.097476  0  1.026537  0  0.031156  0  0.090764  0.095295  0  1.028842  0
H  H38  1  0.47858989  0.88524883  0.86163879  1  0  0.082946  0  0.954641  0  0  0.096211  0  1.027776  0  0  0.097422  0  1.026499  0  0.031379  0  0.090765  0.095246  0  1.028796  0
H  H39  1  0.02142353  0.11474874  0.36163969  1  0  0.0829  0  0.954652  0  0  0.096209  0  1.027749  0  0  0.097421  0  1.026472  0  0.031556  0  0.090738  0.095242  0  1.028771  0
H  H40  1  0.64539570  0.22025319  0.62986445  1  0  0.084601  0  0.984471  0  0  0.096966  0  1.059668  0  0  0.097609  0  1.059882  0  0.096616  0  0.09073  0.096434  0  1.059576  0
H  H41  1  0.85459846  0.77974323  0.12986221  1  0  0.084602  0  0.984578  0  0  0.096924  0  1.059834  0  0  0.097564  0  1.060059  0  0.096355  0  0.090675  0.096393  0  1.059738  0
H  H42  1  0.35460202  0.72025083  0.87013734  1  0  0.084619  0  0.984457  0  0  0.096982  0  1.059663  0  0  0.097625  0  1.059877  0  0.096269  0  0.090739  0.096449  0  1.059573  0
H  H43  1  0.14541140  0.27974559  0.37013914  1  0  0.084656  0  0.984457  0  0  0.096997  0  1.059706  0  0  0.097639  0  1.059931  0  0.096277  0  0.090699  0.096461  0  1.059618  0
H  H44  1  0.62111255  0.34990306  0.56761599  1  0  0.073679  0  0.962484  0  0  0.086732  0  1.03674  0  0  0.0871  0  1.037253  0  0.036684  0  0.085703  0.08638  0  1.036511  0
H  H45  1  0.87887798  0.65008879  0.06761509  1  0  0.073777  0  0.962426  0  0  0.086884  0  1.036612  0  0  0.087255  0  1.037121  0  0.036695  0  0.085739  0.086533  0  1.036385  0
H  H46  1  0.37887790  0.84990298  0.93238580  1  0  0.073806  0  0.962353  0  0  0.086873  0  1.036594  0  0  0.087243  0  1.037102  0  0.036702  0  0.085739  0.08652  0  1.036367  0
H  H47  1  0.12113552  0.15009458  0.43238670  1  0  0.073736  0  0.962486  0  0  0.086861  0  1.036669  0  0  0.087235  0  1.037177  0  0.036664  0  0.085721  0.086512  0  1.036438  0
H  H48  1  0.55606669  0.64264280  0.61203303  1  0  0.374395  0  0.841068  0  0  0.360596  0  0.898822  0  0  0.367553  0  0.891685  0  0.585277  0  0.323094  0.355722  0  0.903868  0
H  H49  1  0.94392505  0.35735476  0.11203168  1  0  0.374472  0  0.840952  0  0  0.360654  0  0.898746  0  0  0.367611  0  0.891606  0  0.585313  0  0.3231  0.35578  0  0.903794  0
H  H50  1  0.44393225  0.14264288  0.88797011  1  0  0.374481  0  0.840876  0  0  0.360664  0  0.898669  0  0  0.367621  0  0.891528  0  0.585236  0  0.323064  0.35579  0  0.903717  0
H  H51  1  0.05607874  0.85735812  0.38796697  1  0  0.374497  0  0.840932  0  0  0.360687  0  0.898697  0  0  0.367639  0  0.891568  0  0.585359  0  0.323141  0.355815  0  0.903743  0
C  C52  1  0.92762506  0.49097185  0.46932909  1  0  0.145608  0  3.689088  0  0  0.117369  0  3.938295  0  0  0.123834  0  3.957275  0  0.49801  0  0.050755  0.113204  0  3.925327  0
C  C53  1  0.57236182  0.50903601  0.96932954  1  0  0.145561  0  3.689337  0  0  0.117351  0  3.938579  0  0  0.123821  0  3.957552  0  0.497775  0  0.050832  0.113187  0  3.925611  0
C  C54  1  0.07236296  0.99096377  0.03066911  1  0  0.145473  0  3.689381  0  0  0.117246  0  3.938619  0  0  0.123712  0  3.957597  0  0.497819  0  0.05076  0.113082  0  3.925652  0
C  C55  1  0.42763469  0.00903608  0.53067046  1  0  0.14566  0  3.689298  0  0  0.117417  0  3.938584  0  0  0.123884  0  3.957558  0  0.497789  0  0.050824  0.113253  0  3.925614  0
C  C56  1  0.85915663  0.60339494  0.43278791  1  0  -0.128308  0  3.731626  0  0  -0.1391  0  3.979577  0  0  -0.145805  0  3.999804  0  -0.069253  0  -0.087401  -0.134868  0  3.966113  0
C  C57  1  0.64083146  0.39661407  0.93278836  1  0  -0.128231  0  3.731561  0  0  -0.1391  0  3.979568  0  0  -0.145806  0  3.999798  0  -0.069032  0  -0.087424  -0.134874  0  3.96611  0
C  C58  1  0.14082896  0.10338471  0.06721254  1  0  -0.128137  0  3.731445  0  0  -0.13903  0  3.979417  0  0  -0.145735  0  3.999645  0  -0.069043  0  -0.087377  -0.134805  0  3.96596  0
C  C59  1  0.35916626  0.89661400  0.56721254  1  0  -0.12824  0  3.731514  0  0  -0.139109  0  3.979507  0  0  -0.145813  0  3.999736  0  -0.069043  0  -0.087447  -0.13488  0  3.966044  0
C  C60  1  0.76483268  0.71640372  0.45967095  1  0  0.00528  0  3.7117  0  0  -0.011605  0  3.959901  0  0  -0.007888  0  3.977801  0  -0.009435  0  -0.070976  -0.013765  0  3.947643  0
C  C61  1  0.73516027  0.28360529  0.95966825  1  0  0.005499  0  3.711508  0  0  -0.011309  0  3.959667  0  0  -0.007591  0  3.977567  0  -0.009218  0  -0.070879  -0.013466  0  3.947416  0
C  C62  1  0.23515413  0.21639807  0.04032950  1  0  0.005296  0  3.71141  0  0  -0.011487  0  3.959548  0  0  -0.007772  0  3.977441  0  -0.008817  0  -0.070928  -0.013645  0  3.9473  0
C  C63  1  0.26484352  0.78360178  0.54033040  1  0  0.00532  0  3.711477  0  0  -0.011451  0  3.959607  0  0  -0.007736  0  3.977499  0  -0.009058  0  -0.070899  -0.01361  0  3.947354  0
C  C64  1  0.73956436  0.71136919  0.52156178  1  0  -0.140084  0  3.734496  0  0  -0.160837  0  3.984559  0  0  -0.16727  0  4.005533  0  -0.05195  0  -0.090923  -0.15674  0  3.970567  0
C  C65  1  0.76042737  0.28862953  0.02155864  1  0  -0.140396  0  3.734907  0  0  -0.161186  0  3.984906  0  0  -0.167621  0  4.005881  0  -0.05168  0  -0.09107  -0.157091  0  3.97092  0
C  C66  1  0.26042608  0.21136583  0.97844046  1  0  -0.140365  0  3.734752  0  0  -0.161147  0  3.984764  0  0  -0.167576  0  4.005733  0  -0.052122  0  -0.091043  -0.157052  0  3.970777  0
C  C67  1  0.23958127  0.78862831  0.47843912  1  0  -0.140254  0  3.734607  0  0  -0.161027  0  3.984642  0  0  -0.167456  0  4.00561  0  -0.051662  0  -0.091002  -0.156931  0  3.970655  0
C  C68  1  0.80743830  0.59153901  0.55439821  1  0  0.112844  0  3.740796  0  0  0.112839  0  3.980205  0  0  0.117832  0  4.001101  0  0.469495  0  0.105391  0.109538  0  3.966076  0
C  C69  1  0.69255222  0.40845741  0.05439597  1  0  0.112705  0  3.740987  0  0  0.112782  0  3.980309  0  0  0.117779  0  4.001199  0  0.469517  0  0.105355  0.109479  0  3.966183  0
C  C70  1  0.19255578  0.09153451  0.94560179  1  0  0.112845  0  3.740521  0  0  0.112868  0  3.979904  0  0  0.117861  0  4.000797  0  0.469344  0  0.105387  0.109566  0  3.965779  0
C  C71  1  0.30745036  0.90845963  0.44560134  1  0  0.112827  0  3.74063  0  0  0.112877  0  3.979979  0  0  0.117877  0  4.000861  0  0.469306  0  0.105388  0.109574  0  3.965852  0
C  C72  1  0.78024578  0.57649718  0.62247741  1  0  0.372729  0  3.678296  0  0  0.341734  0  3.938474  0  0  0.35543  0  3.940979  0  0.972107  0  0.162454  0.332111  0  3.936848  0
C  C73  1  0.71974717  0.42349696  0.12247651  1  0  0.372941  0  3.678294  0  0  0.341882  0  3.938471  0  0  0.355593  0  3.940978  0  0.972538  0  0.162475  0.332263  0  3.936842  0
C  C74  1  0.21975316  0.07649840  0.87752214  1  0  0.372835  0  3.678249  0  0  0.341799  0  3.938423  0  0  0.355498  0  3.940932  0  0.97198  0  0.162422  0.332178  0  3.936794  0
C  C75  1  0.28025783  0.92349803  0.37752169  1  0  0.372814  0  3.678278  0  0  0.341758  0  3.93845  0  0  0.355473  0  3.94096  0  0.972897  0  0.162439  0.332139  0  3.936819  0
C  C76  1  0.92643972  0.63947291  0.65646085  1  0  0.151474  0  3.688867  0  0  0.148209  0  3.930106  0  0  0.15365  0  3.95012  0  0.51233  0  0.116548  0.144577  0  3.916669  0
C  C77  1  0.57355202  0.36052580  0.15645950  1  0  0.151429  0  3.688989  0  0  0.14828  0  3.930127  0  0  0.153721  0  3.950135  0  0.512378  0  0.116563  0.144642  0  3.916698  0
C  C78  1  0.07356286  0.13947527  0.84354050  1  0  0.151293  0  3.688929  0  0  0.148158  0  3.930046  0  0  0.153563  0  3.950111  0  0.512293  0  0.116526  0.144524  0  3.916611  0
C  C79  1  0.42645056  0.86052230  0.34353870  1  0  0.151301  0  3.68913  0  0  0.148168  0  3.930291  0  0  0.153624  0  3.95028  0  0.512324  0  0.116526  0.144532  0  3.916858  0
C  C80  1  0.92332167  0.78040444  0.68562578  1  0  -0.111153  0  3.671784  0  0  -0.131697  0  3.918819  0  0  -0.137557  0  3.938612  0  -0.020636  0  -0.075797  -0.128014  0  3.905691  0
C  C81  1  0.57667249  0.21959313  0.18562713  1  0  -0.111114  0  3.671681  0  0  -0.131712  0  3.91871  0  0  -0.137567  0  3.938497  0  -0.020619  0  -0.07583  -0.128031  0  3.90559  0
C  C82  1  0.07668091  0.28041023  0.81437782  1  0  -0.111006  0  3.67161  0  0  -0.131629  0  3.918656  0  0  -0.137473  0  3.938448  0  -0.020255  0  -0.075798  -0.127947  0  3.905533  0
C  C83  1  0.42333130  0.71959077  0.31437287  1  0  -0.111152  0  3.671765  0  0  -0.131805  0  3.918861  0  0  -0.137663  0  3.938645  0  -0.020634  0  -0.07586  -0.128122  0  3.905739  0
C  C84  1  0.06231848  0.82753414  0.71620818  1  0  0.022372  0  3.667949  0  0  0.004872  0  3.91709  0  0  0.008238  0  3.935021  0  0.016261  0  -0.057757  0.002905  0  3.904909  0
C  C85  1  0.43767917  0.17247258  0.21621267  1  0  0.022331  0  3.668079  0  0  0.004806  0  3.917259  0  0  0.008168  0  3.935198  0  0.016303  0  -0.057761  0.002846  0  3.90506  0
C  C86  1  0.93768289  0.32754107  0.78379407  1  0  0.022314  0  3.667955  0  0  0.004769  0  3.917168  0  0  0.008134  0  3.9351  0  0.016176  0  -0.057767  0.002802  0  3.904985  0
C  C87  1  0.56232098  0.67246336  0.28378868  1  0  0.022358  0  3.668019  0  0  0.004863  0  3.91715  0  0  0.008228  0  3.935081  0  0.016248  0  -0.057813  0.002897  0  3.904962  0
C  C88  1  0.19781764  0.73216853  0.71760948  1  0  -0.112853  0  3.72613  0  0  -0.125269  0  3.972934  0  0  -0.131881  0  3.994157  0  -0.017746  0  -0.081876  -0.121104  0  3.958804  0
C  C89  1  0.30218001  0.26783361  0.21761262  1  0  -0.112996  0  3.726242  0  0  -0.125382  0  3.973033  0  0  -0.131994  0  3.994256  0  -0.018104  0  -0.081873  -0.121217  0  3.958906  0
C  C90  1  0.80218615  0.23217776  0.78239142  1  0  -0.112859  0  3.726103  0  0  -0.125245  0  3.972879  0  0  -0.131856  0  3.994101  0  -0.017976  0  -0.081863  -0.121079  0  3.958747  0
C  C91  1  0.69782257  0.76782553  0.28238738  1  0  -0.113028  0  3.726208  0  0  -0.125322  0  3.972944  0  0  -0.131933  0  3.994166  0  -0.018057  0  -0.08186  -0.121159  0  3.958818  0
C  C92  1  0.19135831  0.59407287  0.68665508  1  0  0.119457  0  3.711705  0  0  0.092305  0  3.959577  0  0  0.098287  0  3.978421  0  0.414664  0  0.042393  0.08847  0  3.946762  0
C  C93  1  0.30863449  0.40593157  0.18665777  1  0  0.119671  0  3.711662  0  0  0.092541  0  3.959487  0  0  0.098522  0  3.978324  0  0.414684  0  0.042494  0.088705  0  3.946675  0
C  C94  1  0.80864427  0.09407637  0.81334492  1  0  0.119419  0  3.711578  0  0  0.092225  0  3.959475  0  0  0.098205  0  3.978319  0  0.414763  0  0.042363  0.088389  0  3.946661  0
C  C95  1  0.69136930  0.90592349  0.31334268  1  0  0.119757  0  3.7116  0  0  0.092532  0  3.959468  0  0  0.098509  0  3.978313  0  0.414675  0  0.042551  0.088699  0  3.946651  0
C  C96  1  0.63128442  0.34022179  0.61680572  1  0  -0.084289  0  3.648171  0  0  -0.181866  0  3.918875  0  0  -0.17535  0  3.921197  0  0.371923  0  -0.161972  -0.186144  0  3.917286  0
C  C97  1  0.86870975  0.65977349  0.11680347  1  0  -0.084324  0  3.648266  0  0  -0.18199  0  3.918956  0  0  -0.175445  0  3.921268  0  0.37204  0  -0.161965  -0.186269  0  3.917372  0
C  C98  1  0.36871210  0.84021943  0.88319653  1  0  -0.084317  0  3.648109  0  0  -0.181937  0  3.918831  0  0  -0.175424  0  3.921151  0  0.372161  0  -0.161981  -0.186216  0  3.917245  0
C  C99  1  0.13130133  0.15977814  0.38319877  1  0  -0.084356  0  3.648125  0  0  -0.182142  0  3.91896  0  0  -0.175542  0  3.921195  0  0.371779  0  -0.162002  -0.186421  0  3.917375  0
C  C100  1  0.32268026  0.13548059  0.68927482  1  0  0.308949  0  4.063087  0  0  0.291149  0  4.359084  0  0  0.314716  0  4.373885  0  0.518593  0  0.139426  0.275165  0  4.348383  0
C  C101  1  0.17732710  0.86451583  0.18927257  1  0  0.308884  0  4.063417  0  0  0.291075  0  4.359433  0  0  0.314644  0  4.374232  0  0.518757  0  0.13937  0.27509  0  4.348736  0
C  C102  1  0.67732596  0.63548052  0.81072338  1  0  0.308908  0  4.063287  0  0  0.291099  0  4.359304  0  0  0.314667  0  4.374104  0  0.518501  0  0.139367  0.275115  0  4.348601  0
C  C103  1  0.82267063  0.36451362  0.31072743  1  0  0.309026  0  4.062925  0  0  0.291223  0  4.358937  0  0  0.314789  0  4.373743  0  0.518718  0  0.139456  0.275238  0  4.348238  0
C  C104  1  0.34210557  0.40091305  0.49187884  1  0  0.297662  0  4.005566  0  0  0.276068  0  4.310227  0  0  0.298376  0  4.323959  0  0.581048  0  0.150086  0.260861  0  4.300656  0
C  C105  1  0.15788844  0.59908567  0.99187974  1  0  0.29777  0  4.005473  0  0  0.27618  0  4.310122  0  0  0.298489  0  4.32385  0  0.581184  0  0.15018  0.260969  0  4.300561  0
C  C106  1  0.65789458  0.90090153  0.00811667  1  0  0.297745  0  4.005424  0  0  0.276154  0  4.310107  0  0  0.298461  0  4.32384  0  0.581509  0  0.150155  0.260946  0  4.300538  0
C  C107  1  0.84211050  0.09909947  0.50812116  1  0  0.297646  0  4.005408  0  0  0.276053  0  4.310088  0  0  0.298359  0  4.323827  0  0.581234  0  0.150072  0.26084  0  4.300516  0
S  S108  1  0.47382183  0.03486767  0.71300976  1  0  -0.334379  0  2.030083  0  0  -0.307636  0  2.316336  0  0  -0.322976  0  2.311305  0  0.096906  0  -0.146565  -0.296591  0  2.319396  0
S  S109  1  0.02617946  0.96512532  0.21300662  1  0  -0.334378  0  2.030029  0  0  -0.30761  0  2.316236  0  0  -0.322954  0  2.311213  0  0.096851  0  -0.146537  -0.296569  0  2.319303  0
S  S110  1  0.52618075  0.53487332  0.78699069  1  0  -0.334368  0  2.030093  0  0  -0.307622  0  2.316351  0  0  -0.322972  0  2.311337  0  0.097022  0  -0.146549  -0.29657  0  2.319398  0
S  S111  1  0.97382312  0.46511738  0.28699698  1  0  -0.334422  0  2.029889  0  0  -0.307639  0  2.31608  0  0  -0.32299  0  2.311071  0  0.097032  0  -0.146583  -0.296587  0  2.319123  0
S  S112  1  0.44170473  0.44425855  0.43080120  1  0  -0.311595  0  2.197751  0  0  -0.270306  0  2.53085  0  0  -0.289405  0  2.526163  0  0.078025  0  -0.122705  -0.257055  0  2.53388  0
S  S113  1  0.05830263  0.55574016  0.93079985  1  0  -0.31163  0  2.197724  0  0  -0.270362  0  2.530848  0  0  -0.289458  0  2.526157  0  0.078014  0  -0.122747  -0.257118  0  2.533895  0
S  S114  1  0.55830392  0.94424933  0.06919431  1  0  -0.311604  0  2.197847  0  0  -0.270341  0  2.530993  0  0  -0.289436  0  2.526302  0  0.07809  0  -0.122726  -0.257082  0  2.534009  0
S  S115  1  0.94169874  0.05575167  0.56919790  1  0  -0.311559  0  2.197858  0  0  -0.270268  0  2.530963  0  0  -0.289362  0  2.526273  0  0.078169  0  -0.122699  -0.257021  0  2.534005  0
N  N116  1  0.90303253  0.48496839  0.52889760  1  0  -0.350951  0  3.236339  0  0  -0.283872  0  3.489306  0  0  -0.30272  0  3.510012  0  -1.251172  0  -0.320685  -0.270907  0  3.474859  0
N  N117  1  0.59696042  0.51503375  0.02889716  1  0  -0.350862  0  3.236659  0  0  -0.283798  0  3.489564  0  0  -0.302647  0  3.510268  0  -1.251407  0  -0.320686  -0.270835  0  3.475119  0
N  N118  1  0.09696156  0.98495917  0.97110150  1  0  -0.350876  0  3.236384  0  0  -0.283827  0  3.489373  0  0  -0.302675  0  3.510081  0  -1.251173  0  -0.320683  -0.270863  0  3.474928  0
N  N119  1  0.40303973  0.01503611  0.47110240  1  0  -0.350941  0  3.236497  0  0  -0.283878  0  3.489449  0  0  -0.30274  0  3.510181  0  -1.251377  0  -0.320691  -0.270912  0  3.475003  0
N  N120  1  0.05900024  0.54975042  0.65598686  1  0  -0.359154  0  3.295668  0  0  -0.287764  0  3.556524  0  0  -0.306905  0  3.57564  0  -1.252108  0  -0.33519  -0.274662  0  3.54322  0
N  N121  1  0.44099255  0.45024829  0.15598552  1  0  -0.359441  0  3.295958  0  0  -0.28812  0  3.556851  0  0  -0.307259  0  3.57596  0  -1.252085  0  -0.335351  -0.275021  0  3.543557  0
N  N122  1  0.94100234  0.04975164  0.84401359  1  0  -0.359013  0  3.295467  0  0  -0.287655  0  3.556263  0  0  -0.306786  0  3.575398  0  -1.252096  0  -0.335131  -0.274554  0  3.542961  0
N  N123  1  0.55901367  0.95024364  0.34401269  1  0  -0.35936  0  3.295711  0  0  -0.288048  0  3.556682  0  0  -0.307185  0  3.57578  0  -1.252015  0  -0.335352  -0.274947  0  3.543382  0
N  N124  1  0.20977299  0.20812043  0.67182124  1  0  -0.605177  0  2.906241  0  0  -0.539436  0  3.186702  0  0  -0.564077  0  3.1931  0  -1.341134  0  -0.430275  -0.522268  0  3.181826  0
N  N125  1  0.29023680  0.79188286  0.17182304  1  0  -0.605117  0  2.906642  0  0  -0.539378  0  3.187104  0  0  -0.564018  0  3.193503  0  -1.341228  0  -0.430252  -0.52221  0  3.18223  0
N  N126  1  0.79023809  0.70811579  0.82817516  1  0  -0.605116  0  2.906411  0  0  -0.539378  0  3.186873  0  0  -0.56402  0  3.193275  0  -1.34116  0  -0.430232  -0.522208  0  3.181993  0
N  N127  1  0.70974880  0.29188178  0.32817516  1  0  -0.605227  0  2.906278  0  0  -0.539504  0  3.186768  0  0  -0.564145  0  3.193171  0  -1.341327  0  -0.430293  -0.522335  0  3.181892  0
N  N128  1  0.27055670  0.37516725  0.53678874  1  0  -0.531819  0  2.874278  0  0  -0.476516  0  3.160016  0  0  -0.497748  0  3.165383  0  -1.291388  0  -0.390572  -0.462049  0  3.15622  0
N  N129  1  0.22943488  0.62484061  0.03679008  1  0  -0.531865  0  2.874194  0  0  -0.476584  0  3.159977  0  0  -0.49782  0  3.165344  0  -1.291562  0  -0.390615  -0.462103  0  3.156164  0
N  N130  1  0.72944466  0.87514544  0.96320722  1  0  -0.53191  0  2.874043  0  0  -0.476609  0  3.159776  0  0  -0.497841  0  3.165147  0  -1.291933  0  -0.390639  -0.462152  0  3.156003  0
N  N131  1  0.77055921  0.12485899  0.46321082  1  0  -0.531807  0  2.873932  0  0  -0.476521  0  3.159702  0  0  -0.497757  0  3.165078  0  -1.291655  0  -0.390575  -0.462058  0  3.155935  0
O  O132  1  0.77296750  0.41769254  0.63891293  1  0  -0.339986  0  2.302572  0  0  -0.262504  0  2.549595  0  0  -0.279681  0  2.54945  0  -1.02112  0  -0.217421  -0.250292  0  2.549233  0
O  O133  1  0.72702423  0.58230045  0.13891248  1  0  -0.339985  0  2.302407  0  0  -0.262478  0  2.549456  0  0  -0.279714  0  2.549345  0  -1.02088  0  -0.217365  -0.250267  0  2.549094  0
O  O134  1  0.22703022  0.91769247  0.86108663  1  0  -0.340056  0  2.302551  0  0  -0.262572  0  2.549607  0  0  -0.279737  0  2.549452  0  -1.021066  0  -0.217437  -0.250359  0  2.549244  0
O  O135  1  0.27298199  0.08230395  0.36108663  1  0  -0.339821  0  2.302339  0  0  -0.262256  0  2.549362  0  0  -0.27955  0  2.549296  0  -1.020851  0  -0.217272  -0.250047  0  2.549  0
O  O136  1  0.64335866  0.65888807  0.64090458  1  0  -0.54163  0  2.081724  0  0  -0.508506  0  2.300631  0  0  -0.522776  0  2.291258  0  -1.094063  0  -0.365503  -0.498276  0  2.306886  0
O  O137  1  0.85663429  0.34111064  0.14090368  1  0  -0.541727  0  2.081626  0  0  -0.508622  0  2.300608  0  0  -0.522895  0  2.29124  0  -1.094506  0  -0.365514  -0.498388  0  2.30685  0
O  O138  1  0.35664149  0.15888586  0.85909722  1  0  -0.541719  0  2.081583  0  0  -0.508595  0  2.300549  0  0  -0.522878  0  2.291198  0  -1.094004  0  -0.365454  -0.498362  0  2.306796  0
O  O139  1  0.14336950  0.84111171  0.35909542  1  0  -0.541721  0  2.081624  0  0  -0.508602  0  2.300589  0  0  -0.522873  0  2.291229  0  -1.094768  0  -0.365534  -0.498362  0  2.306817  0
