# generated using pymatgen
data_La2Cu3H30C42(NO5)6
_symmetry_space_group_name_H-M   'P 1'
_cell_length_a   9.94712456
_cell_length_b   11.76229554
_cell_length_c   13.19732229
_cell_angle_alpha   107.34795899
_cell_angle_beta   94.20682187
_cell_angle_gamma   99.30469403
_symmetry_Int_Tables_number   1
_chemical_formula_structural   La2Cu3H30C42(NO5)6
_chemical_formula_sum   'La2 Cu3 H30 C42 N6 O30'
_cell_volume   1442.30528606
_cell_formula_units_Z   1
loop_
 _symmetry_equiv_pos_site_id
 _symmetry_equiv_pos_as_xyz
  1  'x, y, z'
loop_
 _atom_site_type_symbol
 _atom_site_label
 _atom_site_symmetry_multiplicity
 _atom_site_fract_x
 _atom_site_fract_y
 _atom_site_fract_z
 _atom_site_occupancy
 _atom_site_pbe_bader_charge
 _atom_site_pbe_bader_spin_density
 _atom_site_pbe_cm5_charge
 _atom_site_pbe_ddec_charge
 _atom_site_pbe_ddec_spin_density
 _atom_site_pbe_ddec_sum_bond_order
 _atom_site_pbe_magmom
La  La0  1  0.19844023  0.96291783  0.96055031  1  2.271941  0.000288  1.393417  1.940041  0.000233  2.318635  0.0
La  La1  1  0.80156045  0.03707971  0.03945050  1  2.271954  0.000287  1.393419  1.94003  0.000233  2.318674  0.0
Cu  Cu2  1  0.49999998  0.50000239  0.99999934  1  1.094244  0.584115  0.755971  0.781397  0.7455  2.26207  0.582
Cu  Cu3  1  0.39736358  0.09652508  0.58930130  1  1.046471  0.559149  0.740254  0.728426  0.719272  2.357467  0.559
Cu  Cu4  1  0.60263831  0.90347339  0.41070132  1  1.046426  0.559146  0.740266  0.728464  0.71927  2.357353  0.559
H  H5  1  0.11994271  0.85307338  0.73806743  1  0.618585  -6e-06  0.290147  0.371934  1.3e-05  0.971207  0.0
H  H6  1  0.88005759  0.14693140  0.26193294  1  0.618096  -6e-06  0.290144  0.371935  1.3e-05  0.971196  0.0
H  H7  1  0.27344353  0.88544236  0.72781025  1  0.616658  0.00031  0.295188  0.382761  0.000416  0.94895  0.0
H  H8  1  0.72655495  0.11455882  0.27219061  1  0.616617  0.00031  0.295193  0.382752  0.000416  0.948981  0.0
H  H9  1  0.37283980  0.13758500  0.17962555  1  0.661694  4.7e-05  0.30422  0.409037  -4e-06  0.913489  0.0
H  H10  1  0.62716512  0.86241796  0.82037613  1  0.661719  4.7e-05  0.304242  0.40906  -4e-06  0.913467  0.0
H  H11  1  0.47148085  0.14106847  0.08841478  1  0.652146  3e-06  0.306962  0.403303  1.9e-05  0.922144  0.0
H  H12  1  0.52852266  0.85893268  0.91158636  1  0.652172  3e-06  0.306978  0.403313  1.9e-05  0.922123  0.0
H  H13  1  0.29889667  0.31941807  0.74468783  1  0.662898  0.000403  0.285346  0.383567  0.000563  0.954058  0.0
H  H14  1  0.70110643  0.68058123  0.25530978  1  0.662878  0.000403  0.285356  0.383592  0.000563  0.954037  0.0
H  H15  1  0.31915987  0.34113955  0.63431247  1  0.592536  -7.2e-05  0.312936  0.390973  -3.9e-05  0.896344  0.0
H  H16  1  0.68084483  0.65885794  0.36568628  1  0.594411  -7.2e-05  0.312921  0.390939  -3.9e-05  0.896371  0.0
H  H17  1  0.85685990  0.68190618  0.73267864  1  0.105334  3.7e-05  0.120401  0.121603  8e-06  0.967876  0.0
H  H18  1  0.14313957  0.31809495  0.26731923  1  0.105316  3.7e-05  0.120419  0.121612  8e-06  0.967893  0.0
H  H19  1  0.63389590  0.53950587  0.64551351  1  0.085048  0.001025  0.11574  0.119397  0.000539  0.973424  0.0
H  H20  1  0.36610498  0.46049249  0.35448070  1  0.085516  0.001024  0.11575  0.119413  0.000539  0.973322  0.0
H  H21  1  0.48474878  0.45329407  0.76206145  1  0.120538  0.002072  0.120843  0.084302  0.000932  1.027908  0.002
H  H22  1  0.51524969  0.54670704  0.23793409  1  0.120557  0.002072  0.120841  0.084313  0.000932  1.027903  0.002
H  H23  1  0.84927950  0.34761637  0.92736445  1  0.135085  7.2e-05  0.124193  0.133326  4.8e-05  0.969364  0.0
H  H24  1  0.15071616  0.65238576  0.07263877  1  0.135079  7.2e-05  0.124198  0.133328  4.8e-05  0.969345  0.0
H  H25  1  0.87683642  0.35446119  0.74222004  1  0.116597  0.00095  0.118735  0.127286  0.000497  0.971498  0.001
H  H26  1  0.12316427  0.64554091  0.25778346  1  0.116578  0.00095  0.118728  0.127219  0.000497  0.971516  0.001
H  H27  1  0.67838584  0.24885529  0.59447755  1  0.097743  0.002176  0.122704  0.100802  0.000982  0.98293  0.002
H  H28  1  0.32161584  0.75114227  0.40552559  1  0.097685  0.002177  0.122699  0.10079  0.000982  0.982914  0.002
H  H29  1  0.92314565  0.84197628  0.27543855  1  0.165919  -5e-05  0.117798  0.133894  -8.6e-05  1.012686  0.0
H  H30  1  0.07685887  0.15802484  0.72456112  1  0.165939  -5e-05  0.117811  0.133936  -8.6e-05  1.012615  0.0
H  H31  1  0.94984637  0.78650174  0.44214970  1  0.103165  0.001082  0.111916  0.123747  0.000581  0.991352  0.001
H  H32  1  0.05015593  0.21349848  0.55784886  1  0.103285  0.001083  0.111909  0.123675  0.000582  0.991357  0.001
H  H33  1  0.15988461  0.89397909  0.57870805  1  0.129961  0.002034  0.123508  0.096062  0.000904  1.017782  0.002
H  H34  1  0.84011909  0.10601840  0.42129064  1  0.129973  0.002035  0.123529  0.096027  0.000904  1.017855  0.002
C  C35  1  0.73679774  0.61957105  0.94800391  1  0.519347  -0.000592  0.123671  0.081029  -0.001338  3.928224  -0.001
C  C36  1  0.26320134  0.38043281  0.05199464  1  0.51934  -0.000592  0.123644  0.080886  -0.001338  3.928248  -0.001
C  C37  1  0.82579430  0.67090845  0.88965645  1  0.025311  0.003252  0.017432  -0.04687  0.002304  3.897073  0.002
C  C38  1  0.17420196  0.32909636  0.11034446  1  0.025106  0.003253  0.017429  -0.046759  0.002304  3.896868  0.002
C  C39  1  0.78998841  0.64041470  0.77900161  1  0.001868  -0.003141  -0.047257  -0.0315  -0.003652  3.894865  -0.002
C  C40  1  0.21001468  0.35958460  0.22099600  1  0.002014  -0.003141  -0.047296  -0.03154  -0.003652  3.894904  -0.002
C  C41  1  0.66655539  0.56193551  0.73086412  1  0.021998  0.005157  -0.069707  -0.108289  0.003493  3.967488  0.004
C  C42  1  0.33344208  0.43807013  0.26913101  1  0.021433  0.005157  -0.069683  -0.108307  0.003493  3.967456  0.004
C  C43  1  0.58290797  0.51431805  0.79423592  1  0.444792  -0.001089  0.055515  0.106404  -0.001444  3.93087  -0.001
C  C44  1  0.41709131  0.48568669  0.20576060  1  0.445062  -0.00109  0.055489  0.106381  -0.001444  3.931023  -0.001
C  C45  1  0.76065229  0.65024816  0.06803076  1  1.604836  -0.000504  0.212146  0.540304  -0.000639  4.227474  -0.001
C  C46  1  0.23934417  0.34975298  0.93196619  1  1.604984  -0.000504  0.212133  0.540313  -0.000639  4.22718  -0.001
C  C47  1  0.95145754  0.76656165  0.94036681  1  1.626594  0.001478  0.223917  0.616305  0.001055  4.223345  0.001
C  C48  1  0.04854476  0.23343862  0.05963555  1  1.626589  0.001478  0.223878  0.616233  0.001055  4.223496  0.001
C  C49  1  0.54433061  0.17632127  0.79356769  1  0.4575  1.5e-05  0.112795  0.067222  -0.000809  3.915158  0.0
C  C50  1  0.45567188  0.82367534  0.20643146  1  0.457489  1.5e-05  0.112807  0.067247  -0.000809  3.915133  0.0
C  C51  1  0.64464728  0.23856058  0.88083690  1  0.025127  0.002729  0.022453  -0.046772  0.001942  3.883792  0.002
C  C52  1  0.35534898  0.76143973  0.11916588  1  0.025098  0.002729  0.022438  -0.046761  0.001942  3.883624  0.002
C  C53  1  0.76717066  0.30201899  0.86142939  1  0.004401  -0.002922  -0.043633  -0.026359  -0.003379  3.872349  -0.002
C  C54  1  0.23282519  0.69797951  0.13857366  1  0.004261  -0.002922  -0.043645  -0.026402  -0.003379  3.872227  -0.002
C  C55  1  0.78274573  0.30546614  0.75862648  1  0.039559  0.005308  -0.070019  -0.106254  0.003641  3.958803  0.004
C  C56  1  0.21725454  0.69452958  0.24137384  1  0.039645  0.005308  -0.069973  -0.1061  0.003641  3.958704  0.004
C  C57  1  0.67517387  0.24623116  0.67617808  1  0.461693  -0.001246  0.047107  0.081554  -0.001665  3.956724  -0.001
C  C58  1  0.32482681  0.75376638  0.32382272  1  0.461716  -0.001247  0.047177  0.081627  -0.001666  3.956621  -0.001
C  C59  1  0.41217070  0.09625451  0.79767791  1  1.595455  -0.000292  0.23396  0.575497  -9.9e-05  4.159485  -0.001
C  C60  1  0.58782877  0.90374213  0.20232260  1  1.595421  -0.000292  0.233963  0.575511  -9.9e-05  4.159686  -0.001
C  C61  1  0.62301145  0.24727024  0.99500528  1  1.646619  0.0011  0.228499  0.620501  0.000702  4.208985  0.001
C  C62  1  0.37698399  0.75272640  0.00499424  1  1.646708  0.0011  0.228483  0.620463  0.000702  4.208982  0.001
C  C63  1  0.22528467  0.03023635  0.39720244  1  0.457106  -0.001028  0.108332  0.062164  -0.002004  3.934885  -0.001
C  C64  1  0.77471641  0.96976300  0.60279810  1  0.457501  -0.001031  0.108293  0.06197  -0.002004  3.934926  -0.001
C  C65  1  0.11191683  0.97574113  0.31869338  1  -0.004746  0.002647  0.011437  -0.05458  0.001972  3.878855  0.002
C  C66  1  0.88808346  0.02425915  0.68130887  1  -0.004839  0.002647  0.011488  -0.054423  0.001972  3.878641  0.002
C  C67  1  0.01123337  0.88771213  0.33621428  1  -0.01725  -0.003029  -0.051068  -0.034716  -0.003553  3.874334  -0.002
C  C68  1  0.98876953  0.11228629  0.66378536  1  -0.01722  -0.00303  -0.051144  -0.034871  -0.003553  3.874286  -0.002
C  C69  1  0.02742550  0.85532682  0.42875403  1  3.8e-05  0.005964  -0.075853  -0.111035  0.004037  3.96338  0.005
C  C70  1  0.97257841  0.14467158  0.57124490  1  -0.000146  0.005965  -0.07583  -0.110883  0.004038  3.963276  0.005
C  C71  1  0.14233898  0.91358162  0.50385174  1  0.480375  -0.000239  0.049096  0.086445  -0.000479  3.948034  0.0
C  C72  1  0.85766311  0.08641772  0.49614885  1  0.480395  -0.000239  0.049076  0.086428  -0.000479  3.948096  0.0
C  C73  1  0.34278294  0.12751556  0.39240686  1  1.600962  -0.00122  0.202942  0.540045  -0.001132  4.227683  -0.002
C  C74  1  0.65721614  0.87248834  0.60759474  1  1.601077  -0.00122  0.20304  0.540264  -0.001132  4.227601  -0.002
C  C75  1  0.09227169  0.00170984  0.21374173  1  1.655811  0.001477  0.240541  0.647599  0.001069  4.180976  0.001
C  C76  1  0.90773182  0.99829132  0.78626017  1  1.655867  0.001477  0.240523  0.647609  0.001068  4.181019  0.001
N  N77  1  0.61896266  0.54200207  0.89962973  1  -1.210937  0.077439  -0.347494  -0.231803  0.051398  3.666802  0.066
N  N78  1  0.38103743  0.45800177  0.10036736  1  -1.211078  0.07744  -0.347452  -0.231722  0.051397  3.667036  0.066
N  N79  1  0.56084724  0.18186865  0.69386921  1  -1.227601  0.077889  -0.355308  -0.258258  0.051855  3.684629  0.067
N  N80  1  0.43915263  0.81812524  0.30612910  1  -1.227583  0.077894  -0.355381  -0.258337  0.051858  3.68453  0.067
N  N81  1  0.23736153  0.99884332  0.48754045  1  -1.231123  0.083525  -0.357385  -0.255261  0.055433  3.698919  0.072
N  N82  1  0.76264198  0.00115782  0.51245993  1  -1.231507  0.083529  -0.357326  -0.255146  0.055434  3.698969  0.072
O  O83  1  0.65362330  0.61749892  0.11137829  1  -1.118083  0.092845  -0.318539  -0.549154  0.059016  2.324055  0.085
O  O84  1  0.34636994  0.38250584  0.88861714  1  -1.118123  0.092842  -0.318525  -0.549154  0.059014  2.323953  0.085
O  O85  1  0.20915693  0.83122891  0.75417163  1  -1.236833  0.001506  -0.618031  -0.787732  0.000927  1.943557  0.001
O  O86  1  0.79084054  0.16877227  0.24582917  1  -1.236328  0.001506  -0.618043  -0.787712  0.000927  1.9436  0.001
O  O87  1  0.87513872  0.70447130  0.11776954  1  -1.151478  0.025624  -0.288999  -0.482515  0.016025  2.116662  0.022
O  O88  1  0.12485772  0.29552534  0.88222928  1  -1.151579  0.025622  -0.289005  -0.48253  0.016023  2.116449  0.022
O  O89  1  0.37538266  0.12144758  0.10221530  1  -1.292716  0.000282  -0.628946  -0.818576  0.000161  2.045648  0.0
O  O90  1  0.62462004  0.87855447  0.89778527  1  -1.292765  0.000282  -0.628987  -0.818585  0.000161  2.045634  0.0
O  O91  1  0.93244499  0.87440006  0.98513860  1  -1.208069  0.001298  -0.409125  -0.676634  0.000775  2.401143  0.001
O  O92  1  0.06755671  0.12560205  0.01486571  1  -1.208033  0.001298  -0.409082  -0.676562  0.000775  2.401188  0.001
O  O93  1  0.28557284  0.27874563  0.66565530  1  -1.260759  -0.000165  -0.58419  -0.7733  -0.000456  2.015112  0.001
O  O94  1  0.71443207  0.72125276  0.33434293  1  -1.262615  -0.000166  -0.584181  -0.773302  -0.000456  2.015099  0.001
O  O95  1  0.06880363  0.74228658  0.92656304  1  -1.161744  0.001773  -0.339495  -0.558977  0.001079  2.148971  0.001
O  O96  1  0.93119483  0.25771005  0.07343589  1  -1.161711  0.001773  -0.339493  -0.558997  0.001079  2.149091  0.001
O  O97  1  0.37266741  0.09197726  0.88442499  1  -1.171178  0.017111  -0.324931  -0.534986  0.01075  2.251301  0.014
O  O98  1  0.62733831  0.90802028  0.11557761  1  -1.171141  0.017113  -0.32496  -0.535012  0.010752  2.251412  0.014
O  O99  1  0.34493376  0.03137696  0.70512636  1  -1.126832  0.095891  -0.316547  -0.538831  0.061343  2.371439  0.088
O  O100  1  0.65506611  0.96862148  0.29487388  1  -1.12677  0.095891  -0.316513  -0.538828  0.061342  2.371355  0.088
O  O101  1  0.62696452  0.15308431  0.02498435  1  -1.196985  0.001624  -0.400658  -0.640029  0.001022  2.302443  0.001
O  O102  1  0.37303294  0.84691233  0.97501528  1  -1.196929  0.001624  -0.400668  -0.640094  0.001022  2.302467  0.001
O  O103  1  0.60459677  0.34719846  0.05199597  1  -1.137944  0.003297  -0.293971  -0.524049  0.001733  2.199746  0.004
O  O104  1  0.39540209  0.65279998  0.94800345  1  -1.137999  0.003296  -0.293956  -0.523989  0.001733  2.199758  0.004
O  O105  1  0.44137549  0.16060284  0.47183221  1  -1.091546  0.114988  -0.342102  -0.555375  0.072723  2.309394  0.105
O  O106  1  0.55861957  0.83940109  0.52816992  1  -1.091539  0.114988  -0.34213  -0.555476  0.072723  2.309383  0.105
O  O107  1  0.34033170  0.17135263  0.31759646  1  -1.163625  0.026628  -0.292848  -0.498307  0.016722  2.170304  0.022
O  O108  1  0.65966659  0.82865218  0.68240532  1  -1.163692  0.026623  -0.292941  -0.498432  0.01672  2.170324  0.022
O  O109  1  0.99425201  0.05572003  0.20153608  1  -1.20551  0.001538  -0.338987  -0.631394  0.000921  2.259308  0.001
O  O110  1  0.00574948  0.94428115  0.79846646  1  -1.205573  0.001537  -0.338961  -0.631365  0.00092  2.259386  0.001
O  O111  1  0.16830221  0.96011613  0.14526400  1  -1.183839  0.001508  -0.357055  -0.584671  0.000925  2.285806  0.001
O  O112  1  0.83169848  0.03988594  0.85473645  1  -1.183894  0.001508  -0.357068  -0.58474  0.000925  2.285784  0.001
