# generated using pymatgen
data_ZnH14C32N(Cl3O2)2
_symmetry_space_group_name_H-M   'P 1'
_cell_length_a   14.18411891
_cell_length_b   15.09692317
_cell_length_c   15.88569774
_cell_angle_alpha   96.56937103
_cell_angle_beta   91.01573070
_cell_angle_gamma   91.08443369
_symmetry_Int_Tables_number   1
_chemical_formula_structural   ZnH14C32N(Cl3O2)2
_chemical_formula_sum   'Zn2 H28 C64 N2 Cl12 O8'
_cell_volume   3378.09023180
_cell_formula_units_Z   2
loop_
 _symmetry_equiv_pos_site_id
 _symmetry_equiv_pos_as_xyz
  1  'x, y, z'
loop_
 _atom_site_type_symbol
 _atom_site_label
 _atom_site_symmetry_multiplicity
 _atom_site_fract_x
 _atom_site_fract_y
 _atom_site_fract_z
 _atom_site_occupancy
 _atom_site_pbe_bader_charge
 _atom_site_pbe_bader_spin_density
 _atom_site_pbe_cm5_charge
 _atom_site_pbe_ddec_charge
 _atom_site_pbe_ddec_spin_density
 _atom_site_pbe_ddec_sum_bond_order
 _atom_site_pbe_magmom
Zn  Zn0  1  0.60379601  0.51260324  0.50766391  1  1.307781  0  0.666469  0.873643  0  2.297719  0
Zn  Zn1  1  0.39613079  0.51549489  0.49165410  1  1.293053  0  0.668149  0.877305  0  2.314701  0
H  H2  1  0.46519949  0.76569831  0.38067140  1  0.078138  0  0.097602  0.110548  0  1.019777  0
H  H3  1  0.37448854  0.37759523  0.92669526  1  0.086467  0  0.105429  0.131992  0  0.97851  0
H  H4  1  0.44959365  0.21101872  0.35408181  1  0.099194  0  0.104143  0.112963  0  0.993228  0
H  H5  1  0.51367767  0.26131958  0.62135718  1  0.066527  0  0.104246  0.115611  0  0.991201  0
H  H6  1  0.50331883  0.13524760  0.71013461  1  0.087536  0  0.104412  0.123097  0  0.992531  0
H  H7  1  0.48310929  0.70888477  0.68147673  1  0.067984  0  0.097068  0.10882  0  1.003414  0
H  H8  1  0.57641519  0.66065560  0.80042414  1  0.093636  0  0.078969  0.078394  0  1.086849  0
H  H9  1  0.72857965  0.73708190  0.84634697  1  0.070642  0  0.091943  0.092955  0  1.00815  0
H  H10  1  0.79060790  0.85945152  0.76774093  1  0.01843  0  0.09839  0.097122  0  0.992342  0
H  H11  1  0.69760757  0.90653305  0.64715997  1  0.05563  0  0.098881  0.101684  0  0.996517  0
H  H12  1  0.36704824  0.61475946  0.20542739  1  0.097289  0  0.098654  0.103915  0  1.01107  0
H  H13  1  0.43478608  0.05430677  0.28425983  1  0.115394  0  0.107211  0.125645  0  0.985682  0
H  H14  1  0.20925839  0.61785254  0.26745733  1  0.053751  0  0.100063  0.09924  0  0.989119  0
H  H15  1  0.07108747  0.54568573  0.18429932  1  0.066523  0  0.095554  0.090298  0  1.017996  0
H  H16  1  0.09551569  0.46956455  0.03904146  1  0.057433  0  0.098148  0.095113  0  0.997898  0
H  H17  1  0.25294657  0.46409843  0.97794655  1  0.061666  0  0.091963  0.088603  0  1.029217  0
H  H18  1  0.65756407  0.59332277  0.19049031  1  0.04648  0  0.101093  0.104608  0  0.992922  0
H  H19  1  0.80406378  0.57455750  0.27165963  1  0.064478  0  0.100226  0.098938  0  0.990228  0
H  H20  1  0.92026031  0.46050929  0.21693865  1  0.078105  0  0.09135  0.083214  0  1.03034  0
H  H21  1  0.88586149  0.36589278  0.08018199  1  0.049308  0  0.097948  0.094929  0  0.995021  0
H  H22  1  0.73867272  0.38276292  0.00084271  1  0.046477  0  0.092069  0.092393  0  1.027031  0
H  H23  1  0.07632206  0.35872111  0.31869573  1  0.088163  0  0.107171  0.110374  0  1.015272  0
H  H24  1  0.90273015  0.34559487  0.32919635  1  0.108041  0  0.107575  0.11022  0  1.019208  0
H  H25  1  0.58744421  0.57799625  0.05132613  1  0.046807  0  0.104418  0.093476  0  0.989868  0
H  H26  1  0.45375520  0.60464484  0.08200178  1  0.080856  0  0.105557  0.096101  0  0.988565  0
H  H27  1  0.35598854  0.52965460  0.92641166  1  0.113866  0  0.105029  0.086038  0  0.992731  0
H  H28  1  0.62476654  0.41101053  0.93306788  1  0.072611  0  0.100588  0.081588  0  0.998052  0
H  H29  1  0.48219612  0.32433197  0.90226925  1  0.105686  0  0.107398  0.140412  0  0.960854  0
C  C30  1  0.51750597  0.68402162  0.51310279  1  1.600958  0  0.221849  0.619935  0  4.151565  0
C  C31  1  0.49673621  0.12230015  0.57236443  1  -0.019313  0  -0.008467  0.096507  0  4.078557  0
C  C32  1  0.48262032  0.06041174  0.49826039  1  0.006044  0  -0.001468  -0.012609  0  3.928751  0
C  C33  1  0.50198849  0.51091193  0.33814552  1  1.729122  0  0.218745  0.672467  0  4.229869  0
C  C34  1  0.46455326  0.09299620  0.41870943  1  0.010046  0  -0.010579  0.091608  0  4.057179  0
C  C35  1  0.50455226  0.08875236  0.65240473  1  0.04195  0  -0.102414  -0.216369  0  4.009022  0
C  C36  1  0.50880497  0.99929648  0.65801704  1  0.026919  0  0.014797  0.109483  0  4.042335  0
C  C37  1  0.51097778  0.93465000  0.58328537  1  0.026964  0  -0.006022  -0.025645  0  3.952119  0
C  C38  1  0.48850047  0.96723551  0.50382124  1  -0.037463  0  0.004208  0.023332  0  3.923797  0
C  C39  1  0.47426245  0.90509192  0.42925873  1  0.038899  0  -0.013467  0.017993  0  4.029661  0
C  C40  1  0.45356351  0.94060963  0.35072770  1  0.005013  0  0.010619  0.106238  0  4.049094  0
C  C41  1  0.45070882  0.38123155  0.93980535  1  -0.053508  0  -0.15528  -0.290497  0  3.827361  0
C  C42  1  0.44925453  0.03011314  0.34515634  1  0.017368  0  -0.096774  -0.208348  0  3.990001  0
C  C43  1  0.53159644  0.84315459  0.58452444  1  -0.009089  0  0.000422  0.01534  0  3.926488  0
C  C44  1  0.51057772  0.78350463  0.51158615  1  -0.097729  0  -0.006481  -0.037462  0  3.932115  0
C  C45  1  0.49089807  0.34368103  0.48338155  1  1.574255  0  0.21714  0.609371  0  4.157412  0
C  C46  1  0.48047902  0.81364115  0.43606994  1  0.056298  0  -0.092034  -0.145904  0  3.959179  0
C  C47  1  0.79789142  0.43223847  0.45476242  1  0.670805  0  0.159719  0.254525  0  4.00797  0
C  C48  1  0.19352277  0.45673721  0.43367647  1  0.633334  0  0.159097  0.251562  0  4.013754  0
C  C49  1  0.80680506  0.53371068  0.57665457  1  0.62814  0  0.150747  0.242866  0  4.020762  0
C  C50  1  0.19925089  0.54873364  0.56191708  1  0.638609  0  0.152525  0.256303  0  4.003393  0
C  C51  1  0.90439357  0.52039438  0.58861730  1  0.063137  0  -0.011036  -0.071453  0  4.00485  0
C  C52  1  0.46948181  0.37602556  0.03521041  1  0.221657  0  0.070376  0.235735  0  3.705263  0
C  C53  1  0.10473942  0.52854469  0.58072288  1  0.022172  0  -0.007782  -0.0713  0  3.994528  0
C  C54  1  0.95069677  0.47460497  0.51825414  1  0.026591  0  0.015714  0.055377  0  3.930427  0
C  C55  1  0.05089942  0.47952411  0.51372032  1  0.100974  0  0.016472  0.057491  0  3.920553  0
C  C56  1  0.89726736  0.42843480  0.44984270  1  -0.042233  0  -0.005764  -0.024609  0  4.021557  0
C  C57  1  0.09536041  0.44101135  0.43921432  1  0.014886  0  -0.006181  -0.02151  0  4.020419  0
C  C58  1  0.96068130  0.54897708  0.66383500  1  0.094611  0  0.010687  0.052763  0  4.025651  0
C  C59  1  0.05806261  0.55243890  0.66009040  1  0.210705  0  0.009264  0.052431  0  4.020646  0
C  C60  1  0.04044794  0.39049749  0.37376446  1  0.010654  0  -0.081456  -0.100616  0  3.985852  0
C  C61  1  0.94467894  0.38337354  0.37945679  1  0.012431  0  -0.080338  -0.099744  0  3.990421  0
C  C62  1  0.48265284  0.49537808  0.65811925  1  1.704456  0  0.220776  0.673087  0  4.219476  0
C  C63  1  0.48533543  0.47050821  0.82153285  1  -0.506752  0  -0.046695  -0.064466  0  4.051926  0
C  C64  1  0.59436613  0.50505805  0.04345191  1  0.041978  0  -0.077566  -0.100189  0  3.782503  0
C  C65  1  0.42222342  0.54142525  0.05253943  1  0.008547  0  -0.076597  -0.1008  0  3.771651  0
C  C66  1  0.42597746  0.54333846  0.95561168  1  0.058973  0  -0.041617  0.026244  0  3.744772  0
C  C67  1  0.59467989  0.47717178  0.94791288  1  0.101564  0  -0.046081  0.021291  0  3.780231  0
C  C68  1  0.48091014  0.47828543  0.74628651  1  0.221686  0  -0.043617  -0.168061  0  3.93784  0
C  C69  1  0.49630705  0.47094859  0.07909232  1  0.106462  0  0.006625  0.06161  0  3.798218  0
C  C70  1  0.49130384  0.47042531  0.91283737  1  0.108999  0  -0.000323  0.118614  0  3.873177  0
C  C71  1  0.58349703  0.81182351  0.65694613  1  0.034361  0  -0.01826  0.062879  0  4.033236  0
C  C72  1  0.55049713  0.74189339  0.70012082  1  -0.033769  0  -0.09788  -0.122411  0  3.950703  0
C  C73  1  0.60265092  0.71532218  0.76772616  1  -0.132086  0  -0.10415  -0.075947  0  4.017493  0
C  C74  1  0.50041259  0.47603124  0.17025063  1  -0.252199  0  -0.039062  -0.049747  0  4.096927  0
C  C75  1  0.68848470  0.75796903  0.79306280  1  -0.022913  0  -0.106363  -0.098743  0  4.034931  0
C  C76  1  0.72308426  0.82650479  0.74920253  1  -0.013398  0  -0.103148  -0.092142  0  4.063347  0
C  C77  1  0.67109756  0.85293724  0.68151749  1  -0.058304  0  -0.099856  -0.137325  0  4.004041  0
C  C78  1  0.32302251  0.53885517  0.08718702  1  0.024685  0  -0.021285  0.079371  0  3.946316  0
C  C79  1  0.30791321  0.58216071  0.16868902  1  -0.042037  0  -0.090942  -0.121057  0  3.96236  0
C  C80  1  0.21846270  0.58388100  0.20387121  1  -0.066258  0  -0.096162  -0.081718  0  4.043642  0
C  C81  1  0.14150487  0.54329797  0.15767827  1  -0.038172  0  -0.099766  -0.096461  0  4.04721  0
C  C82  1  0.15515586  0.50090731  0.07611911  1  -0.033262  0  -0.099907  -0.085454  0  4.047894  0
C  C83  1  0.24494863  0.49867910  0.04147232  1  -0.152049  0  -0.104558  -0.14457  0  4.02651  0
C  C84  1  0.68523220  0.48806764  0.09065974  1  -0.065177  0  -0.020119  0.079996  0  3.949809  0
C  C85  1  0.50268882  0.49122508  0.24687854  1  -0.031489  0  -0.03766  -0.167015  0  3.934586  0
C  C86  1  0.70676525  0.54222925  0.16663444  1  0.016774  0  -0.088964  -0.115463  0  3.958538  0
C  C87  1  0.78994563  0.53206351  0.21235640  1  -0.045708  0  -0.096879  -0.082849  0  4.038747  0
C  C88  1  0.85472869  0.46831438  0.18178839  1  -0.13974  0  -0.102899  -0.100112  0  4.059267  0
C  C89  1  0.83537856  0.41527960  0.10531071  1  -0.073949  0  -0.101128  -0.086704  0  4.044919  0
C  C90  1  0.75146570  0.42510647  0.06035431  1  0.059353  0  -0.101272  -0.138203  0  4.016587  0
C  C91  1  0.46365976  0.18560831  0.41457545  1  -0.072332  0  -0.086043  -0.160095  0  3.929842  0
C  C92  1  0.48379977  0.24510923  0.48685596  1  0.025197  0  -0.014945  -0.00565  0  4.011594  0
C  C93  1  0.49948792  0.21391803  0.56521086  1  -0.040028  0  -0.086887  -0.155962  0  3.928266  0
N  N94  1  0.75493289  0.48827230  0.51298005  1  -1.1922  0  -0.302493  -0.302116  0  3.44168  0
N  N95  1  0.24293745  0.51027518  0.49247543  1  -1.181343  0  -0.306389  -0.309822  0  3.458864  0
Cl  Cl96  1  0.67153128  0.54946870  0.89749872  1  -0.243827  0  -0.034485  -0.110883  0  1.477599  0
Cl  Cl97  1  0.12275329  0.57314658  0.75265846  1  -0.14897  0  0.011737  -0.039665  0  1.621913  0
Cl  Cl98  1  0.56316125  0.29971748  0.04980165  1  -0.207782  0  -0.023445  -0.116384  0  1.436964  0
Cl  Cl99  1  0.36777395  0.33056465  0.08212414  1  -0.201312  0  -0.027241  -0.112014  0  1.435147  0
Cl  Cl100  1  0.45518995  0.65377849  0.93156362  1  -0.24241  0  -0.035376  -0.113388  0  1.417764  0
Cl  Cl101  1  0.50014040  0.96661615  0.75896237  1  -0.20885  0  -0.014303  -0.087661  0  1.522628  0
Cl  Cl102  1  0.43461747  0.86704887  0.25937827  1  -0.222623  0  -0.025755  -0.103019  0  1.443319  0
Cl  Cl103  1  0.73043205  0.36644891  0.38219544  1  -0.108209  0  0.08213  0.021447  0  1.611365  0
Cl  Cl104  1  0.25079541  0.41165727  0.34618042  1  -0.097459  0  0.083834  0.019538  0  1.638512  0
Cl  Cl105  1  0.75053475  0.61479743  0.63761993  1  -0.08024  0  0.08854  0.036557  0  1.834322  0
Cl  Cl106  1  0.26093672  0.63258462  0.62056865  1  -0.102264  0  0.066049  0.013623  0  1.675289  0
Cl  Cl107  1  0.90815221  0.56597589  0.76046085  1  -0.137346  0  0.017788  -0.035481  0  1.648481  0
O  O108  1  0.59704077  0.64774876  0.50245551  1  -1.145904  0  -0.314562  -0.542249  0  2.308604  0
O  O109  1  0.43911655  0.64503677  0.52411477  1  -1.171946  0  -0.321032  -0.575976  0  2.398842  0
O  O110  1  0.57812610  0.49796644  0.37770884  1  -1.149557  0  -0.311133  -0.552437  0  2.332351  0
O  O111  1  0.42445537  0.53911661  0.36911423  1  -1.145744  0  -0.314918  -0.54575  0  2.282656  0
O  O112  1  0.56809705  0.38077920  0.51175427  1  -1.158435  0  -0.319516  -0.560929  0  2.366381  0
O  O113  1  0.42026346  0.38217064  0.45458870  1  -1.164185  0  -0.324803  -0.568357  0  2.352108  0
O  O114  1  0.56136666  0.52296592  0.63333942  1  -1.134673  0  -0.306806  -0.544195  0  2.332586  0
O  O115  1  0.40600009  0.48249411  0.61504983  1  -1.149293  0  -0.319143  -0.557285  0  2.288522  0
