# generated using pymatgen
data_Zn2H10C24S3Br2O11
_symmetry_space_group_name_H-M   'P 1'
_cell_length_a   7.84651033
_cell_length_b   12.52076533
_cell_length_c   34.75399602
_cell_angle_alpha   89.70317669
_cell_angle_beta   91.25810311
_cell_angle_gamma   90.06563084
_symmetry_Int_Tables_number   1
_chemical_formula_structural   Zn2H10C24S3Br2O11
_chemical_formula_sum   'Zn4 H20 C48 S6 Br4 O22'
_cell_volume   3413.51179280
_cell_formula_units_Z   2
loop_
 _symmetry_equiv_pos_site_id
 _symmetry_equiv_pos_as_xyz
  1  'x, y, z'
loop_
 _atom_site_type_symbol
 _atom_site_label
 _atom_site_symmetry_multiplicity
 _atom_site_fract_x
 _atom_site_fract_y
 _atom_site_fract_z
 _atom_site_occupancy
 _atom_site_pbe_bader_charge
 _atom_site_pbe_bader_spin_density
 _atom_site_pbe_cm5_charge
 _atom_site_pbe_ddec_charge
 _atom_site_pbe_ddec_spin_density
 _atom_site_pbe_ddec_sum_bond_order
 _atom_site_pbe_magmom
Zn  Zn0  1  0.66256871  0.99567425  0.50063972  1  1.310471  0  0.729301  0.970363  0  2.124362  0
Zn  Zn1  1  0.31595741  0.99972675  0.49831725  1  1.30966  0  0.720688  0.95291  0  2.141486  0
Zn  Zn2  1  0.24704138  0.99105361  0.99922480  1  1.308849  0  0.728863  0.969453  0  2.123753  0
Zn  Zn3  1  0.59352356  0.99564208  0.00169313  1  1.308362  0  0.720433  0.952586  0  2.140134  0
H  H4  1  0.61713183  0.99579363  0.88527743  1  0.109817  0  0.097986  0.111779  0  1.031748  0
H  H5  1  0.65055566  0.99953074  0.81497748  1  0.062299  0  0.095334  0.090867  0  1.039371  0
H  H6  1  0.10148339  0.00832180  0.80143664  1  0.058295  0  0.099204  0.108258  0  1.010301  0
H  H7  1  0.80779525  0.00912974  0.69831587  1  0.061115  0  0.09896  0.108207  0  1.010067  0
H  H8  1  0.25871598  0.99972751  0.68484860  1  0.066278  0  0.095576  0.091201  0  1.038697  0
H  H9  1  0.29204504  0.99768371  0.61455087  1  0.113159  0  0.098111  0.112361  0  1.031302  0
H  H10  1  0.25899558  0.00518335  0.74565196  1  0.048679  0  0.101773  0.101168  0  1.001159  0
H  H11  1  0.65035473  0.00463202  0.75410409  1  0.054017  0  0.101758  0.101254  0  1.002007  0
H  H12  1  0.60931975  0.99334789  0.11613375  1  0.107547  0  0.097111  0.110197  0  1.038945  0
H  H13  1  0.64561872  0.99741096  0.18647405  1  0.079616  0  0.09846  0.094187  0  1.029866  0
H  H14  1  0.09685654  0.99651951  0.19591386  1  0.072146  0  0.100512  0.10984  0  1.007461  0
H  H15  1  0.81055997  0.99825919  0.30385724  1  0.074537  0  0.100975  0.110475  0  1.007774  0
H  H16  1  0.26195438  0.99930302  0.31370949  1  0.079788  0  0.098457  0.094  0  1.029835  0
H  H17  1  0.29938323  0.99675440  0.38407659  1  0.10664  0  0.097464  0.11127  0  1.037534  0
H  H18  1  0.25797180  0.99783828  0.25300662  1  0.046565  0  0.102842  0.101628  0  1.00071  0
H  H19  1  0.64890421  0.99966401  0.24697163  1  0.051714  0  0.102948  0.101628  0  1.001794  0
H  H20  1  0.12737537  0.63583486  0.49434003  1  0.144763  0  0.123561  0.155399  0  0.965153  0
H  H21  1  0.78262138  0.63214026  0.00560133  1  0.141866  0  0.123667  0.155354  0  0.965342  0
H  H22  1  0.82800430  0.33757361  0.56358892  1  0.611677  0  0.353444  0.40135  0  0.836997  0
H  H23  1  0.07997824  0.33536061  0.93649882  1  0.629181  0  0.353896  0.402155  0  0.836843  0
C  C24  1  0.39871507  0.79812944  0.50011124  1  1.494036  0  0.208729  0.604504  0  4.187473  0
C  C25  1  0.56083151  0.99996473  0.57278198  1  1.496249  0  0.217863  0.609946  0  4.127858  0
C  C26  1  0.42456918  0.19945919  0.49839215  1  1.586613  0  0.211545  0.604817  0  4.189995  0
C  C27  1  0.56969640  0.99459373  0.42766862  1  1.581257  0  0.220329  0.614931  0  4.114286  0
C  C28  1  0.51075269  0.79396961  0.00012855  1  1.606381  0  0.210085  0.606201  0  4.186442  0
C  C29  1  0.34840630  0.99667702  0.92704680  1  1.522128  0  0.21735  0.610572  0  4.125883  0
C  C30  1  0.48564677  0.19521781  0.00125688  1  1.602951  0  0.211252  0.603103  0  4.192256  0
C  C31  1  0.33983923  0.99033243  0.07230863  1  1.490165  0  0.219803  0.614244  0  4.115144  0
C  C32  1  0.34561542  0.00009348  0.88397942  1  0.078925  0  -0.019811  -0.083175  0  3.915862  0
C  C33  1  0.50549346  0.99886353  0.86617082  1  0.021588  0  -0.081027  -0.067818  0  3.972781  0
C  C34  1  0.52288869  0.00083795  0.82671160  1  -0.041607  0  -0.092147  -0.137432  0  3.970381  0
C  C35  1  0.37699324  0.00387490  0.80229166  1  -0.005672  0  -0.004342  0.13782  0  4.035938  0
C  C36  1  0.21660264  0.00561995  0.81957980  1  -0.018257  0  -0.097845  -0.197769  0  3.962284  0
C  C37  1  0.20041655  0.00415251  0.85947639  1  -0.149569  0  -0.006458  0.107441  0  3.938626  0
C  C38  1  0.38334376  0.00465763  0.76048731  1  -0.084133  0  -0.084412  -0.118259  0  3.971083  0
C  C39  1  0.52597210  0.00456186  0.73929380  1  0.008372  0  -0.084902  -0.118949  0  3.972422  0
C  C40  1  0.69264363  0.00656103  0.68019352  1  0.0514  0  -0.098047  -0.198135  0  3.962237  0
C  C41  1  0.53226900  0.00417448  0.69749439  1  0.008404  0  -0.004029  0.138098  0  4.036021  0
C  C42  1  0.38634924  0.00148327  0.67308277  1  -0.033587  0  -0.092206  -0.137534  0  3.970877  0
C  C43  1  0.40371970  0.00043625  0.63363323  1  0.007429  0  -0.081009  -0.069071  0  3.97348  0
C  C44  1  0.56356818  0.00246649  0.61582194  1  0.085385  0  -0.020103  -0.081196  0  3.915334  0
C  C45  1  0.70879851  0.00632886  0.64029557  1  -0.159156  0  -0.006313  0.106779  0  3.938584  0
C  C46  1  0.33754479  0.99223018  0.11523066  1  0.101088  0  -0.018999  -0.083546  0  3.916007  0
C  C47  1  0.49820459  0.99389639  0.13426790  1  -0.041303  0  -0.079947  -0.068017  0  3.978028  0
C  C48  1  0.51732656  0.99622979  0.17381397  1  -0.02448  0  -0.089007  -0.133483  0  3.968231  0
C  C49  1  0.37246840  0.99696949  0.19712378  1  0.056488  0  -0.002527  0.139501  0  4.03233  0
C  C50  1  0.21115213  0.99570280  0.17862121  1  0.019829  0  -0.094938  -0.195197  0  3.952423  0
C  C51  1  0.19302902  0.99340764  0.13859745  1  -0.152499  0  -0.002957  0.11176  0  3.933258  0
C  C52  1  0.38131161  0.99825668  0.23896736  1  -0.167881  0  -0.082357  -0.116841  0  3.967401  0
C  C53  1  0.52561116  0.99912979  0.26102700  1  0.035178  0  -0.08288  -0.1172  0  3.969396  0
C  C54  1  0.69652762  0.99779719  0.32123652  1  0.010217  0  -0.096128  -0.196272  0  3.953898  0
C  C55  1  0.53494431  0.99861864  0.30286759  1  0.06611  0  -0.001692  0.139559  0  4.031717  0
C  C56  1  0.39040829  0.99828008  0.32629030  1  -0.027594  0  -0.089719  -0.133349  0  3.966657  0
C  C57  1  0.41014569  0.99682888  0.36583251  1  -0.038555  0  -0.079794  -0.06865  0  3.975646  0
C  C58  1  0.57118609  0.99559794  0.38474313  1  -0.056533  0  -0.019239  -0.083884  0  3.916332  0
C  C59  1  0.71526902  0.99614481  0.36126303  1  -0.087238  0  -0.003064  0.111708  0  3.934288  0
C  C60  1  0.55663625  0.38903589  0.50143213  1  -0.152732  0  -0.027818  -0.157607  0  3.997706  0
C  C61  1  0.25987750  0.61085756  0.49682797  1  0.068069  0  -0.083628  -0.126009  0  3.937229  0
C  C62  1  0.42128104  0.31702913  0.49822267  1  -0.108651  0  -0.013228  -0.117474  0  3.937496  0
C  C63  1  0.39595098  0.68088436  0.49985938  1  -0.126071  0  -0.022064  -0.114856  0  3.971392  0
C  C64  1  0.31913136  0.50410378  0.49746844  1  -0.130681  0  -0.017271  -0.006106  0  4.036769  0
C  C65  1  0.49862543  0.49615413  0.50102097  1  -0.149311  0  -0.020336  -0.033481  0  4.083312  0
C  C66  1  0.35365277  0.38466416  0.99839353  1  -0.072479  0  -0.027592  -0.157261  0  3.997656  0
C  C67  1  0.65013224  0.60696908  0.00315423  1  0.054539  0  -0.0836  -0.126323  0  3.936959  0
C  C68  1  0.48909900  0.31279243  0.00146042  1  -0.136101  0  -0.012929  -0.116274  0  3.937141  0
C  C69  1  0.51383584  0.67677094  0.00029961  1  -0.234315  0  -0.02197  -0.114392  0  3.9715  0
C  C70  1  0.59104062  0.50010794  0.00238152  1  -0.131404  0  -0.016676  -0.004439  0  4.035082  0
C  C71  1  0.41151665  0.49188936  0.99888802  1  -0.188379  0  -0.020778  -0.034952  0  4.084005  0
S  S72  1  0.22550449  0.37981324  0.49475219  1  0.351086  0  0.130846  0.204164  0  2.862858  0
S  S73  1  0.59462411  0.61928272  0.50354111  1  0.316687  0  0.092766  0.161293  0  2.851656  0
S  S74  1  0.68477361  0.37587401  0.00493763  1  0.343396  0  0.130375  0.202892  0  2.863139  0
S  S75  1  0.31527494  0.61488969  0.99664439  1  0.324181  0  0.092675  0.161425  0  2.85353  0
S  S76  1  0.77744198  0.36138991  0.50390341  1  3.08412  0  0.539478  1.174247  0  5.992281  0
S  S77  1  0.13268905  0.35714240  0.99610032  1  3.062705  0  0.540506  1.176139  0  5.990383  0
Br  Br78  1  0.97238133  0.01016500  0.87709430  1  -0.040918  0  0.03241  -0.054082  0  1.482003  0
Br  Br79  1  0.93674498  0.01357357  0.62265493  1  -0.041757  0  0.032635  -0.053808  0  1.482569  0
Br  Br80  1  0.96444241  0.99255585  0.11915973  1  -0.032524  0  0.037363  -0.047657  0  1.469677  0
Br  Br81  1  0.94412895  0.99503865  0.38051883  1  -0.032912  0  0.037515  -0.04783  0  1.470322  0
O  O82  1  0.54539507  0.84170382  0.50176749  1  -1.173727  0  -0.313302  -0.57256  0  2.328579  0
O  O83  1  0.25587196  0.84948087  0.49867021  1  -1.121973  0  -0.319048  -0.518437  0  2.209819  0
O  O84  1  0.41562806  0.00299293  0.55587837  1  -1.1738  0  -0.31156  -0.570073  0  2.313534  0
O  O85  1  0.70397940  0.99452569  0.55544897  1  -1.114312  0  -0.31565  -0.525847  0  2.341736  0
O  O86  1  0.27754060  0.15240891  0.49705847  1  -1.127632  0  -0.318149  -0.522724  0  2.253457  0
O  O87  1  0.56761000  0.15329168  0.50005372  1  -1.157856  0  -0.297851  -0.536953  0  2.359389  0
O  O88  1  0.71237257  0.99038575  0.44675506  1  -1.124019  0  -0.313653  -0.523965  0  2.322825  0
O  O89  1  0.42460159  0.99811414  0.44331587  1  -1.177563  0  -0.313852  -0.574979  0  2.328383  0
O  O90  1  0.36399526  0.83726799  0.99854821  1  -1.172802  0  -0.313584  -0.572897  0  2.328455  0
O  O91  1  0.65351056  0.84555704  0.00152899  1  -1.130713  0  -0.319793  -0.519321  0  2.210424  0
O  O92  1  0.49355568  0.99947830  0.94397316  1  -1.175669  0  -0.311152  -0.569723  0  2.310505  0
O  O93  1  0.20524479  0.99076114  0.94440615  1  -1.130286  0  -0.315842  -0.526489  0  2.338586  0
O  O94  1  0.63258894  0.14823845  0.00261040  1  -1.124405  0  -0.318263  -0.522611  0  2.254466  0
O  O95  1  0.34256199  0.14893360  0.99956863  1  -1.15258  0  -0.297435  -0.535515  0  2.357746  0
O  O96  1  0.19742194  0.98578159  0.05313957  1  -1.121104  0  -0.313818  -0.523999  0  2.323242  0
O  O97  1  0.48519810  0.99351292  0.05676220  1  -1.179836  0  -0.313291  -0.574124  0  2.327326  0
O  O98  1  0.80204965  0.28894503  0.54226018  1  -1.154541  0  -0.354692  -0.522515  0  2.156487  0
O  O99  1  0.82800647  0.29714743  0.47232208  1  -1.267494  0  -0.29265  -0.486391  0  2.137178  0
O  O100  1  0.85951529  0.46304201  0.51175011  1  -1.3054  0  -0.319452  -0.565095  0  2.202082  0
O  O101  1  0.10665711  0.28597801  0.95773607  1  -1.171836  0  -0.35539  -0.523733  0  2.155425  0
O  O102  1  0.08255828  0.29192640  0.02772431  1  -1.265256  0  -0.292984  -0.487133  0  2.135657  0
O  O103  1  0.05098113  0.45908529  0.98837490  1  -1.30291  0  -0.319649  -0.565625  0  2.203385  0
