# generated using pymatgen
data_MgH9C18O5
_symmetry_space_group_name_H-M   'P 1'
_cell_length_a   6.91732385
_cell_length_b   43.61599709
_cell_length_c   43.61882534
_cell_angle_alpha   119.72687139
_cell_angle_beta   93.03489979
_cell_angle_gamma   93.02714898
_symmetry_Int_Tables_number   1
_chemical_formula_structural   MgH9C18O5
_chemical_formula_sum   'Mg6 H54 C108 O30'
_cell_volume   11364.62604035
_cell_formula_units_Z   6
loop_
 _symmetry_equiv_pos_site_id
 _symmetry_equiv_pos_as_xyz
  1  'x, y, z'
loop_
 _atom_site_type_symbol
 _atom_site_label
 _atom_site_symmetry_multiplicity
 _atom_site_fract_x
 _atom_site_fract_y
 _atom_site_fract_z
 _atom_site_occupancy
 _atom_site_pbe_bader_charge
 _atom_site_pbe_bader_spin_density
 _atom_site_pbe_cm5_charge
 _atom_site_pbe_ddec_charge
 _atom_site_pbe_ddec_spin_density
 _atom_site_pbe_ddec_sum_bond_order
 _atom_site_pbe_magmom
Mg  Mg0  1  0.98699568  0.67029616  0.31142081  1  1.684842  0  0.905589  1.409684  0  1.320978  0
Mg  Mg1  1  0.67563415  0.68858274  0.35887959  1  1.684513  0  0.905462  1.409677  0  1.320588  0
Mg  Mg2  1  0.31660454  0.64111424  0.32971335  1  1.685236  0  0.905292  1.409759  0  1.320368  0
Mg  Mg3  1  0.70553389  0.33745160  0.69235028  1  1.683968  0  0.908703  1.411528  0  1.324281  0
Mg  Mg4  1  0.01330408  0.30767717  0.64508852  1  1.682509  0  0.908704  1.411854  0  1.323556  0
Mg  Mg5  1  0.36817560  0.35495826  0.66258056  1  1.684034  0  0.908764  1.411403  0  1.324644  0
H  H6  1  0.87721362  0.98785025  0.62444765  1  0.636382  0  0.308884  0.360418  0  0.97385  0
H  H7  1  0.25360020  0.37554008  0.36341370  1  0.637169  0  0.308541  0.358898  0  0.97484  0
H  H8  1  0.89000988  0.63656190  0.01217509  1  0.650492  0  0.308383  0.35885  0  0.975493  0
H  H9  1  0.30101314  0.97233732  0.55396841  1  0.104542  0  0.1137  0.11826  0  1.007026  0
H  H10  1  0.74748474  0.44593941  0.41826212  1  0.112671  0  0.113631  0.117967  0  1.006566  0
H  H11  1  0.32895282  0.58170998  0.02769571  1  0.1142  0  0.113954  0.118012  0  1.00697  0
H  H12  1  0.38678917  0.84997697  0.46557513  1  0.048348  0  0.103703  0.100516  0  1.040786  0
H  H13  1  0.92187472  0.53444839  0.38436269  1  0.056409  0  0.103882  0.101021  0  1.040282  0
H  H14  1  0.53738573  0.61560565  0.15006486  1  0.084787  0  0.10378  0.100685  0  1.040837  0
H  H15  1  0.68180977  0.83455757  0.42509233  1  0.054127  0  0.102438  0.105636  0  1.002187  0
H  H16  1  0.25722442  0.57489308  0.40952776  1  0.047371  0  0.102579  0.105451  0  1.002615  0
H  H17  1  0.84763503  0.59043357  0.16535063  1  0.052032  0  0.102557  0.105681  0  1.002296  0
H  H18  1  0.82354796  0.89020695  0.47843235  1  0.111475  0  0.108525  0.114452  0  1.016393  0
H  H19  1  0.34590278  0.52155047  0.41178595  1  0.103669  0  0.108534  0.11426  0  1.017006  0
H  H20  1  0.93401890  0.58811090  0.10972069  1  0.137712  0  0.108485  0.114435  0  1.015998  0
H  H21  1  0.71611017  0.77210984  0.37977310  1  0.07725  0  0.107029  0.129731  0  1.010383  0
H  H22  1  0.33654160  0.62021735  0.39239933  1  0.064165  0  0.10714  0.129822  0  1.009999  0
H  H23  1  0.94375030  0.60766910  0.22781833  1  0.096368  0  0.107247  0.129672  0  1.010749  0
H  H24  1  0.41764183  0.78717823  0.42042200  1  0.083485  0  0.10776  0.111006  0  1.010796  0
H  H25  1  0.99734868  0.57962763  0.36675893  1  0.101289  0  0.107467  0.110696  0  1.011407  0
H  H26  1  0.63057094  0.63321951  0.21289819  1  0.093654  0  0.107503  0.110527  0  1.011257  0
H  H27  1  0.46975050  0.86640522  0.51490629  1  0.085788  0  0.100926  0.096986  0  1.019949  0
H  H28  1  0.95563496  0.48511829  0.35154099  1  0.023963  0  0.101  0.097123  0  1.019751  0
H  H29  1  0.60351303  0.64850666  0.13360750  1  0.024519  0  0.1011  0.097271  0  1.019626  0
H  H30  1  0.79540914  0.89194996  0.54700946  1  0.071439  0  0.10931  0.123409  0  0.981944  0
H  H31  1  0.24914088  0.45299309  0.34496884  1  0.07348  0  0.109048  0.122961  0  0.982055  0
H  H32  1  0.90377482  0.65502496  0.10806969  1  0.063144  0  0.109213  0.123197  0  0.981964  0
H  H33  1  0.00411771  0.94919509  0.56256821  1  0.651252  0  0.307971  0.363179  0  0.974157  0
H  H34  1  0.44216862  0.43739577  0.38657872  1  0.653033  0  0.307934  0.362857  0  0.973561  0
H  H35  1  0.05528223  0.61337425  0.05085205  1  0.639609  0  0.307842  0.363431  0  0.974109  0
H  H36  1  0.45801800  0.01897725  0.55860632  1  0.077986  0  0.106711  0.109825  0  1.003173  0
H  H37  1  0.89967237  0.44135262  0.46030091  1  0.069213  0  0.106385  0.109355  0  1.003864  0
H  H38  1  0.43895953  0.53969792  0.98106725  1  0.094571  0  0.106394  0.109345  0  1.00382  0
H  H39  1  0.28751920  0.14583854  0.59976056  1  0.059402  0  0.106234  0.110495  0  1.008907  0
H  H40  1  0.68754479  0.40020482  0.54601406  1  0.086814  0  0.106407  0.110994  0  1.008702  0
H  H41  1  0.14123248  0.45403223  0.85418959  1  0.099446  0  0.10648  0.109165  0  1.010589  0
H  H42  1  0.00498885  0.17087260  0.63180479  1  0.047401  0  0.100433  0.102019  0  1.012515  0
H  H43  1  0.37298618  0.36816327  0.53900459  1  0.057277  0  0.100397  0.102001  0  1.012632  0
H  H44  1  0.83378149  0.46094862  0.82915303  1  0.050928  0  0.100732  0.102406  0  1.012324  0
H  H45  1  0.84602702  0.11069316  0.60932160  1  0.097504  0  0.107738  0.112121  0  0.997697  0
H  H46  1  0.23654053  0.39064549  0.50131051  1  0.097838  0  0.107908  0.112546  0  0.997514  0
H  H47  1  0.73514816  0.49860136  0.88935444  1  0.10145  0  0.107953  0.112528  0  0.997848  0
H  H48  1  0.97893140  0.23463659  0.65220979  1  0.062417  0  0.105259  0.126385  0  1.01405  0
H  H49  1  0.32659804  0.34776983  0.58237265  1  0.07778  0  0.105452  0.126988  0  1.014097  0
H  H50  1  0.74401527  0.41761247  0.76539556  1  0.07565  0  0.105216  0.126484  0  1.014253  0
H  H51  1  0.26727966  0.21005642  0.61704133  1  0.106853  0  0.108306  0.112423  0  1.008583  0
H  H52  1  0.65033661  0.38302443  0.59303420  1  0.095032  0  0.108043  0.112158  0  1.008686  0
H  H53  1  0.05684637  0.40705940  0.78998208  1  0.106874  0  0.1083  0.112698  0  1.008089  0
H  H54  1  0.64822321  0.11178094  0.65822622  1  0.052005  0  0.104196  0.101786  0  1.001979  0
H  H55  1  0.98989852  0.34172269  0.45348367  1  0.050547  0  0.103986  0.101705  0  1.001399  0
H  H56  1  0.53667845  0.54645327  0.88824586  1  0.105573  0  0.103872  0.101608  0  1.002409  0
H  H57  1  0.80426377  0.07408758  0.67878293  1  0.115902  0  0.111137  0.128246  0  0.976045  0
H  H58  1  0.12592825  0.32120316  0.39529785  1  0.067344  0  0.110938  0.128076  0  0.97611  0
H  H59  1  0.73094802  0.60464369  0.92592360  1  0.075863  0  0.11093  0.127786  0  0.97632  0
C  C60  1  0.72635966  0.02564629  0.63002092  1  0.448113  0  0.093274  0.294241  0  4.037541  0
C  C61  1  0.09699695  0.36996577  0.39561778  1  0.489386  0  0.093113  0.294394  0  4.036207  0
C  C62  1  0.70144194  0.60432949  0.97435685  1  0.490972  0  0.093526  0.295073  0  4.036234  0
C  C63  1  0.62278292  0.00886258  0.59575666  1  0.006281  0  -0.023384  -0.055777  0  3.982925  0
C  C64  1  0.02754335  0.40421531  0.41307133  1  0.017606  0  -0.023154  -0.056537  0  3.984022  0
C  C65  1  0.61428523  0.58690360  0.99115650  1  0.026231  0  -0.023702  -0.057399  0  3.984406  0
C  C66  1  0.58964540  0.96985649  0.57260227  1  0.035493  0  -0.005933  -0.0039  0  3.964471  0
C  C67  1  0.01774615  0.42738256  0.39724012  1  0.051132  0  -0.006363  -0.003616  0  3.96504  0
C  C68  1  0.62013323  0.60276356  0.03016084  1  0.09932  0  -0.00518  -0.002267  0  3.964232  0
C  C69  1  0.41089179  0.95481211  0.55261484  1  -0.008344  0  -0.071605  -0.114934  0  3.904301  0
C  C70  1  0.85895124  0.44734483  0.40216026  1  -0.080976  0  -0.071592  -0.115145  0  3.904148  0
C  C71  1  0.45646001  0.59783873  0.04521012  1  -0.075218  0  -0.072486  -0.116001  0  3.90499  0
C  C72  1  0.36614522  0.91805542  0.52997664  1  -0.03993  0  -0.033006  -0.044681  0  4.047244  0
C  C73  1  0.83681724  0.46999807  0.38806199  1  0.006374  0  -0.032154  -0.042351  0  4.045488  0
C  C74  1  0.44840263  0.61192932  0.08195479  1  0.00947  0  -0.032428  -0.042448  0  4.045161  0
C  C75  1  0.17260852  0.90753085  0.51012663  1  0.840929  0  0.159399  0.347531  0  3.959561  0
C  C76  1  0.66303614  0.48982983  0.39735122  1  0.832808  0  0.159217  0.345669  0  3.960713  0
C  C77  1  0.26542769  0.60260024  0.09248122  1  0.839324  0  0.159184  0.345519  0  3.961286  0
C  C78  1  0.11305432  0.87343392  0.47680944  1  -0.040926  0  -0.01956  -0.01494  0  3.9748  0
C  C79  1  0.63687521  0.52314464  0.39656715  1  -0.009287  0  -0.01962  -0.01472  0  3.973835  0
C  C80  1  0.24017676  0.60336266  0.12656613  1  -0.009431  0  -0.020429  -0.015175  0  3.975203  0
C  C81  1  0.23120734  0.84656285  0.45809618  1  -0.052351  0  -0.069372  -0.127586  0  3.913151  0
C  C82  1  0.77372092  0.54189887  0.38845177  1  -0.085997  0  -0.06993  -0.129279  0  3.913178  0
C  C83  1  0.38517754  0.61152417  0.15345260  1  -0.036507  0  -0.069608  -0.128498  0  3.914079  0
C  C84  1  0.15243321  0.81365112  0.42874401  1  0.020368  0  -0.014677  0.048344  0  4.018682  0
C  C85  1  0.72410241  0.57127981  0.38494414  1  -0.000343  0  -0.01406  0.050065  0  4.01815  0
C  C86  1  0.33909615  0.61505579  0.18634658  1  -0.063749  0  -0.014877  0.048024  0  4.017981  0
C  C87  1  0.94965882  0.80881879  0.41680809  1  0.047157  0  0.001584  0.118206  0  4.029811  0
C  C88  1  0.53326392  0.58320963  0.39206010  1  -0.018131  0  0.001412  0.118354  0  4.029136  0
C  C89  1  0.14105361  0.60794701  0.19114236  1  -0.032489  0  0.001848  0.119334  0  4.027848  0
C  C90  1  0.83454740  0.83764802  0.43469802  1  -0.116742  0  -0.091593  -0.142082  0  3.991483  0
C  C91  1  0.40038989  0.56530171  0.40299439  1  0.011211  0  -0.092119  -0.142942  0  3.993395  0
C  C92  1  0.99728607  0.59699128  0.16229435  1  -0.080028  0  -0.091872  -0.143071  0  3.994025  0
C  C93  1  0.91240535  0.86844727  0.46394742  1  0.056252  0  -0.078884  -0.083191  0  3.966354  0
C  C94  1  0.44909168  0.53602626  0.40448886  1  -0.045467  0  -0.07857  -0.082078  0  3.966979  0
C  C95  1  0.04450150  0.59544394  0.13151098  1  -0.019212  0  -0.077951  -0.081826  0  3.96652  0
C  C96  1  0.87010152  0.77584240  0.38873649  1  -0.04681  0  -0.110656  -0.283197  0  3.950892  0
C  C97  1  0.48158153  0.61126627  0.38714683  1  0.017645  0  -0.110408  -0.28315  0  3.949973  0
C  C98  1  0.09410738  0.61287051  0.22410672  1  -0.007064  0  -0.110983  -0.283189  0  3.949768  0
C  C99  1  0.97799107  0.74664709  0.37276196  1  0.554056  0  0.091409  0.362203  0  4.092916  0
C  C100  1  0.60520225  0.62724991  0.37389766  1  0.556912  0  0.091229  0.363107  0  4.092309  0
C  C101  1  0.23100621  0.62610118  0.25334043  1  0.571199  0  0.091348  0.362322  0  4.091387  0
C  C102  1  0.18343224  0.75135560  0.38458328  1  0.003429  0  -0.034809  -0.190187  0  3.940219  0
C  C103  1  0.79881300  0.61543912  0.36678473  1  0.014655  0  -0.034781  -0.191396  0  3.942305  0
C  C104  1  0.43182242  0.63323541  0.24867163  1  0.010205  0  -0.035133  -0.191611  0  3.940644  0
C  C105  1  0.26395643  0.78451146  0.41157858  1  -0.036728  0  -0.070672  -0.099833  0  3.938459  0
C  C106  1  0.85256218  0.58846658  0.37296371  1  -0.053072  0  -0.070286  -0.099682  0  3.939535  0
C  C107  1  0.47951005  0.62704755  0.21552393  1  -0.031857  0  -0.069605  -0.097841  0  3.937599  0
C  C108  1  0.30985288  0.72178595  0.37074471  1  1.520066  0  0.240704  0.677783  0  4.113174  0
C  C109  1  0.93904219  0.62927786  0.35106679  1  1.505051  0  0.240469  0.678682  0  4.113726  0
C  C110  1  0.58787297  0.64894229  0.27823539  1  1.501295  0  0.240595  0.678318  0  4.113022  0
C  C111  1  0.50416887  0.89500374  0.52898391  1  -0.054289  0  -0.089997  -0.096465  0  4.029044  0
C  C112  1  0.97598255  0.47104118  0.36606222  1  0.004651  0  -0.090719  -0.097808  0  4.029403  0
C  C113  1  0.60951884  0.63396129  0.10500905  1  -0.033233  0  -0.090246  -0.097667  0  4.029166  0
C  C114  1  0.68468412  0.90912811  0.54773959  1  -0.051906  0  -0.101627  -0.201186  0  4.020611  0
C  C115  1  0.13770277  0.45226982  0.36142156  1  -0.040331  0  -0.101212  -0.200383  0  4.021073  0
C  C116  1  0.77590638  0.63858231  0.09088266  1  0.011358  0  -0.102186  -0.20128  0  4.021154  0
C  C117  1  0.73078220  0.94594308  0.56785666  1  0.513509  0  0.095391  0.287606  0  4.007478  0
C  C118  1  0.16364615  0.43212440  0.37808328  1  0.48056  0  0.095357  0.286807  0  4.008719  0
C  C119  1  0.78523502  0.62190309  0.05406700  1  0.472462  0  0.095503  0.287123  0  4.006717  0
C  C120  1  0.53521278  0.03068670  0.58493443  1  0.070468  0  -0.077233  -0.116625  0  3.94924  0
C  C121  1  0.95053166  0.41502657  0.44568959  1  0.012239  0  -0.077049  -0.116146  0  3.950368  0
C  C122  1  0.50465089  0.55427947  0.96934110  1  -0.062997  0  -0.077069  -0.115958  0  3.949333  0
C  C123  1  0.54652016  0.06751368  0.60631165  1  -0.072694  0  -0.031886  -0.037053  0  4.031722  0
C  C124  1  0.94040990  0.39365659  0.46114422  1  -0.023513  0  -0.032024  -0.036669  0  4.032141  0
C  C125  1  0.47916840  0.53880872  0.93251253  1  -0.023762  0  -0.031843  -0.037493  0  4.032466  0
C  C126  1  0.45505265  0.08904452  0.59257189  1  0.947059  0  0.151654  0.352348  0  4.00669  0
C  C127  1  0.86248035  0.40739174  0.49639755  1  0.954822  0  0.15166  0.35233  0  4.008609  0
C  C128  1  0.36584524  0.50357581  0.91097765  1  0.946613  0  0.151304  0.351701  0  4.010161  0
C  C129  1  0.55335322  0.12503419  0.60457758  1  -0.019026  0  -0.024192  -0.021507  0  4.000931  0
C  C130  1  0.94862369  0.39540863  0.52040599  1  -0.034834  0  -0.024403  -0.021931  0  3.999659  0
C  C131  1  0.42799230  0.47958767  0.87498812  1  0.007299  0  -0.024394  -0.021509  0  3.999235  0
C  C132  1  0.44378329  0.15184527  0.60735487  1  -0.013302  0  -0.069801  -0.124618  0  3.916775  0
C  C133  1  0.83626550  0.39264728  0.54444707  1  -0.069843  0  -0.069955  -0.124876  0  3.915566  0
C  C134  1  0.29150461  0.45559182  0.84817574  1  -0.103517  0  -0.070286  -0.12397  0  3.915245  0
C  C135  1  0.53094884  0.18670343  0.62045897  1  0.003987  0  -0.015292  0.048158  0  4.02534  0
C  C136  1  0.91038226  0.37954455  0.56620611  1  0.023128  0  -0.01477  0.047401  0  4.026269  0
C  C137  1  0.34384902  0.43383471  0.81332681  1  -0.053513  0  -0.014915  0.050271  0  4.022966  0
C  C138  1  0.73726693  0.19398270  0.63019258  1  -0.048723  0  -0.000859  0.115331  0  4.027317  0
C  C139  1  0.10690114  0.36978198  0.56372719  1  -0.007229  0  -0.000972  0.115905  0  4.028138  0
C  C140  1  0.54290316  0.43629057  0.80605004  1  -0.011948  0  -0.001172  0.113927  0  4.028491  0
C  C141  1  0.84788039  0.16559437  0.62525809  1  -0.04719  0  -0.093925  -0.142728  0  3.991865  0
C  C142  1  0.22239431  0.37468737  0.54025173  1  -0.03791  0  -0.093977  -0.142334  0  3.992485  0
C  C143  1  0.68193425  0.45972068  0.83443877  1  -0.029234  0  -0.094327  -0.142607  0  3.993079  0
C  C144  1  0.75875294  0.13218537  0.61303551  1  -0.05103  0  -0.080572  -0.09728  0  3.996229  0
C  C145  1  0.14554368  0.38692636  0.51907971  1  -0.073542  0  -0.080756  -0.097973  0  3.996393  0
C  C146  1  0.62629662  0.48086719  0.86785614  1  -0.051283  0  -0.080845  -0.098124  0  3.997089  0
C  C147  1  0.82292176  0.22884408  0.64460208  1  0.037457  0  -0.112414  -0.284665  0  3.956095  0
C  C148  1  0.17826751  0.35541168  0.58421075  1  0.020698  0  -0.112656  -0.286025  0  3.95706  0
C  C149  1  0.59380101  0.41581585  0.77119813  1  0.021408  0  -0.111917  -0.284172  0  3.955973  0
C  C150  1  0.71566076  0.25693283  0.65009799  1  0.545373  0  0.089528  0.363081  0  4.101418  0
C  C151  1  0.06561336  0.34994209  0.60682601  1  0.561767  0  0.089371  0.362994  0  4.099817  0
C  C152  1  0.45846579  0.39322618  0.74310241  1  0.545057  0  0.089006  0.362373  0  4.100639  0
C  C153  1  0.50815156  0.24955439  0.63944854  1  -0.002077  0  -0.035725  -0.191987  0  3.950644  0
C  C154  1  0.86874655  0.36059654  0.61011085  1  -0.025059  0  -0.035447  -0.190968  0  3.948651  0
C  C155  1  0.25831641  0.38995242  0.75047712  1  -0.04251  0  -0.035446  -0.191787  0  3.950648  0
C  C156  1  0.42308002  0.21503237  0.62505398  1  -0.066095  0  -0.071211  -0.099817  0  3.944695  0
C  C157  1  0.79804719  0.37498753  0.58998104  1  -0.064732  0  -0.071626  -0.099798  0  3.944154  0
C  C158  1  0.20767235  0.41007850  0.78499595  1  -0.024952  0  -0.071419  -0.101002  0  3.943433  0
C  C159  1  0.38211351  0.27726639  0.64270936  1  1.522495  0  0.240007  0.677549  0  4.117318  0
C  C160  1  0.73948093  0.35735032  0.63458130  1  1.512488  0  0.239729  0.676755  0  4.117934  0
C  C161  1  0.10465507  0.36548468  0.72276220  1  1.532811  0  0.23927  0.676804  0  4.117484  0
C  C162  1  0.64203647  0.08317939  0.64066442  1  -0.038623  0  -0.083083  -0.087148  0  4.028973  0
C  C163  1  0.00150601  0.35929949  0.44245885  1  -0.10699  0  -0.082803  -0.087411  0  4.030656  0
C  C164  1  0.55916873  0.55748150  0.91684422  1  -0.092955  0  -0.082803  -0.086667  0  4.029617  0
C  C165  1  0.72851706  0.06245793  0.65234849  1  0.000888  0  -0.102399  -0.199606  0  3.994348  0
C  C166  1  0.07655598  0.34763340  0.41008418  1  0.069156  0  -0.102126  -0.199213  0  3.995379  0
C  C167  1  0.66671213  0.58985190  0.93755395  1  -0.009918  0  -0.101848  -0.198753  0  3.993646  0
O  O168  1  0.48819179  0.72646580  0.38219640  1  -1.241996  0  -0.348454  -0.639796  0  2.16057  0
O  O169  1  0.10589028  0.61780761  0.34427924  1  -1.238197  0  -0.348527  -0.640256  0  2.160266  0
O  O170  1  0.76151808  0.65572183  0.27356462  1  -1.241548  0  -0.348441  -0.640457  0  2.161121  0
O  O171  1  0.23362877  0.69065700  0.34666516  1  -1.299841  0  -0.399644  -0.765592  0  2.406651  0
O  O172  1  0.88705722  0.65337408  0.34403706  1  -1.294079  0  -0.399915  -0.765881  0  2.406869  0
O  O173  1  0.54284803  0.65595728  0.30935385  1  -1.29093  0  -0.399864  -0.765543  0  2.405686  0
O  O174  1  0.88497579  0.71545823  0.34793805  1  -1.313668  0  -0.45133  -0.776466  0  2.301111  0
O  O175  1  0.53689813  0.65207737  0.36754780  1  -1.297138  0  -0.450853  -0.776676  0  2.300834  0
O  O176  1  0.16905376  0.63244493  0.28451323  1  -1.302864  0  -0.450978  -0.776482  0  2.299816  0
O  O177  1  0.20289182  0.26975612  0.63137028  1  -1.245527  0  -0.350713  -0.641941  0  2.150296  0
O  O178  1  0.57171248  0.36873734  0.63845494  1  -1.241273  0  -0.350394  -0.641605  0  2.150303  0
O  O179  1  0.93296345  0.36160950  0.73026027  1  -1.233197  0  -0.350596  -0.641819  0  2.149908  0
O  O180  1  0.45982433  0.30959457  0.65772419  1  -1.29693  0  -0.397842  -0.76169  0  2.41055  0
O  O181  1  0.80214701  0.34230286  0.65185872  1  -1.298594  0  -0.397768  -0.761123  0  2.41131  0
O  O182  1  0.15009661  0.34819862  0.69044229  1  -1.300144  0  -0.397627  -0.760826  0  2.409828  0
O  O183  1  0.80903537  0.28957647  0.66484678  1  -1.315292  0  -0.457418  -0.785162  0  2.323145  0
O  O184  1  0.14431732  0.33518068  0.62470489  1  -1.312507  0  -0.457337  -0.785213  0  2.322094  0
O  O185  1  0.51928018  0.37533853  0.71046877  1  -1.313432  0  -0.456653  -0.78419  0  2.322249  0
O  O186  1  0.81958880  0.00798753  0.64380029  1  -1.1542  0  -0.370189  -0.468225  0  2.260083  0
O  O187  1  0.17671588  0.35618483  0.36420843  1  -1.151099  0  -0.369799  -0.466831  0  2.259517  0
O  O188  1  0.81254104  0.63574379  0.99199505  1  -1.167388  0  -0.37001  -0.467169  0  2.260279  0
O  O189  1  0.04512127  0.92903894  0.52182330  1  -1.123261  0  -0.261833  -0.42732  0  2.246035  0
O  O190  1  0.52374304  0.47813977  0.40714425  1  -1.112217  0  -0.261773  -0.426558  0  2.247093  0
O  O191  1  0.11635687  0.59280120  0.07098975  1  -1.119915  0  -0.261423  -0.426139  0  2.247165  0
O  O192  1  0.91694648  0.95899681  0.58269307  1  -1.18519  0  -0.354353  -0.485464  0  2.354897  0
O  O193  1  0.33488756  0.41726355  0.37627958  1  -1.178835  0  -0.354266  -0.48442  0  2.354185  0
O  O194  1  0.95835073  0.62369289  0.04103097  1  -1.167351  0  -0.354265  -0.485243  0  2.353972  0
O  O195  1  0.30450242  0.07770728  0.57216535  1  -1.103729  0  -0.291234  -0.428056  0  2.03686  0
O  O196  1  0.73230458  0.42778097  0.50541978  1  -1.081144  0  -0.290957  -0.427803  0  2.03889  0
O  O197  1  0.22646860  0.49455236  0.92230292  1  -1.090385  0  -0.290751  -0.427399  0  2.038656  0
