# generated using pymatgen
data_CdH11C6NCl2O
_symmetry_space_group_name_H-M   'P 1'
_cell_length_a   6.60467467
_cell_length_b   10.02333982
_cell_length_c   14.85129142
_cell_angle_alpha   90.00055869
_cell_angle_beta   90.00023993
_cell_angle_gamma   108.29184007
_symmetry_Int_Tables_number   1
_chemical_formula_structural   CdH11C6NCl2O
_chemical_formula_sum   'Cd4 H44 C24 N4 Cl8 O4'
_cell_volume   933.48949928
_cell_formula_units_Z   4
loop_
 _symmetry_equiv_pos_site_id
 _symmetry_equiv_pos_as_xyz
  1  'x, y, z'
loop_
 _atom_site_type_symbol
 _atom_site_label
 _atom_site_symmetry_multiplicity
 _atom_site_fract_x
 _atom_site_fract_y
 _atom_site_fract_z
 _atom_site_occupancy
 _atom_site_hle17_bader_spin_density
 _atom_site_hle17_ddec_charge
 _atom_site_hle17_ddec_spin_density
 _atom_site_hle17_ddec_sum_bond_order
 _atom_site_hle17_magmom
 _atom_site_hse06_10hf_bader_spin_density
 _atom_site_hse06_10hf_ddec_charge
 _atom_site_hse06_10hf_ddec_spin_density
 _atom_site_hse06_10hf_ddec_sum_bond_order
 _atom_site_hse06_10hf_magmom
 _atom_site_hse06_bader_spin_density
 _atom_site_hse06_ddec_charge
 _atom_site_hse06_ddec_spin_density
 _atom_site_hse06_ddec_sum_bond_order
 _atom_site_hse06_magmom
 _atom_site_pbe_bader_spin_density
 _atom_site_pbe_cm5_charge
 _atom_site_pbe_ddec_charge
 _atom_site_pbe_ddec_spin_density
 _atom_site_pbe_ddec_sum_bond_order
 _atom_site_pbe_magmom
Cd  Cd0  1  0.55771722  0.78290019  0.25057186  1  0  1.005214  0  1.948406  0  0  0.854285  0  2.410465  0  0  0.904024  0  2.362527  0  0  0.582986  0.818771  0  2.443158  0
Cd  Cd1  1  0.94228541  0.21710179  0.75057199  1  0  1.005171  0  1.948436  0  0  0.854236  0  2.410481  0  0  0.903976  0  2.362543  0  0  0.58296  0.818722  0  2.443173  0
Cd  Cd2  1  0.44228744  0.21710247  0.74943089  1  0  1.005154  0  1.948536  0  0  0.854212  0  2.410591  0  0  0.903952  0  2.362653  0  0  0.58298  0.818697  0  2.443284  0
Cd  Cd3  1  0.05771522  0.78289878  0.24942807  1  0  1.005202  0  1.94845  0  0  0.854276  0  2.410506  0  0  0.904015  0  2.362568  0  0  0.582981  0.818762  0  2.443197  0
H  H4  1  0.71265869  0.01402800  0.10703583  1  0  0.277704  0  0.935458  0  0  0.259783  0  1.004741  0  0  0.267306  0  0.999062  0  0  0.285318  0.254291  0  1.009348  0
H  H5  1  0.78733627  0.98596716  0.60703534  1  0  0.277788  0  0.935426  0  0  0.25986  0  1.004684  0  0  0.267381  0  0.999004  0  0  0.285337  0.254365  0  1.009294  0
H  H6  1  0.28732429  0.98596417  0.89296423  1  0  0.277768  0  0.935403  0  0  0.259855  0  1.004646  0  0  0.267375  0  0.998968  0  0  0.285362  0.254367  0  1.009247  0
H  H7  1  0.21267747  0.01403865  0.39296472  1  0  0.27771  0  0.935491  0  0  0.259862  0  1.004656  0  0  0.267382  0  0.998977  0  0  0.285358  0.254373  0  1.009259  0
H  H8  1  0.16872333  0.10311291  0.17711304  1  0  0.10237  0  0.946987  0  0  0.114156  0  1.010719  0  0  0.116301  0  1.010127  0  0  0.093304  0.112514  0  1.011337  0
H  H9  1  0.33127295  0.89688597  0.67711339  1  0  0.102388  0  0.947011  0  0  0.11417  0  1.010749  0  0  0.116306  0  1.010154  0  0  0.093309  0.112526  0  1.011366  0
H  H10  1  0.83126419  0.89688241  0.82289039  1  0  0.102306  0  0.947119  0  0  0.114097  0  1.01085  0  0  0.116246  0  1.01026  0  0  0.09329  0.112453  0  1.011467  0
H  H11  1  0.66873776  0.10312299  0.32288869  1  0  0.102306  0  0.947152  0  0  0.114114  0  1.010829  0  0  0.116264  0  1.01024  0  0  0.093298  0.11247  0  1.011447  0
H  H12  1  0.25894058  0.14959550  0.06553644  1  0  0.110096  0  0.942761  0  0  0.123759  0  1.004804  0  0  0.126299  0  1.003852  0  0  0.094433  0.121835  0  1.005692  0
H  H13  1  0.24105769  0.85040029  0.56553632  1  0  0.110088  0  0.942798  0  0  0.123754  0  1.00483  0  0  0.126287  0  1.003874  0  0  0.094434  0.121828  0  1.005719  0
H  H14  1  0.74103786  0.85039669  0.93446564  1  0  0.110051  0  0.942714  0  0  0.123727  0  1.00476  0  0  0.126268  0  1.003812  0  0  0.094399  0.121803  0  1.00565  0
H  H15  1  0.75896462  0.14960761  0.43446575  1  0  0.110062  0  0.942677  0  0  0.123713  0  1.004731  0  0  0.126256  0  1.003783  0  0  0.09439  0.12179  0  1.005624  0
H  H16  1  0.30158310  0.35298510  0.17966729  1  0  0.072703  0  0.953744  0  0  0.08963  0  1.017177  0  0  0.091008  0  1.017058  0  0  0.084591  0.088658  0  1.017491  0
H  H17  1  0.19841222  0.64701488  0.67966845  1  0  0.072665  0  0.95374  0  0  0.089614  0  1.017173  0  0  0.090993  0  1.017052  0  0  0.084581  0.08864  0  1.01749  0
H  H18  1  0.69840341  0.64701128  0.82033277  1  0  0.072736  0  0.953743  0  0  0.089675  0  1.017178  0  0  0.091056  0  1.017053  0  0  0.084604  0.088701  0  1.017494  0
H  H19  1  0.80160706  0.35299302  0.32033363  1  0  0.072775  0  0.953678  0  0  0.089683  0  1.017165  0  0  0.091063  0  1.017038  0  0  0.084612  0.088709  0  1.017483  0
H  H20  1  0.50884958  0.30377241  0.22953167  1  0  0.058347  0  0.949829  0  0  0.076796  0  1.013479  0  0  0.077552  0  1.01376  0  0  0.083733  0.076126  0  1.013403  0
H  H21  1  0.99114662  0.69622919  0.72953099  1  0  0.058336  0  0.949847  0  0  0.076775  0  1.013533  0  0  0.07753  0  1.013818  0  0  0.08374  0.076108  0  1.013453  0
H  H22  1  0.49113744  0.69622502  0.77046570  1  0  0.058382  0  0.949916  0  0  0.07684  0  1.013558  0  0  0.077598  0  1.013836  0  0  0.083751  0.076168  0  1.013478  0
H  H23  1  0.00887165  0.30377661  0.27046839  1  0  0.058355  0  0.949884  0  0  0.076809  0  1.013551  0  0  0.077567  0  1.013828  0  0  0.08375  0.076136  0  1.013472  0
H  H24  1  0.48741344  0.39267070  0.03290863  1  0  0.064572  0  0.943873  0  0  0.084489  0  1.004432  0  0  0.085015  0  1.005243  0  0  0.084624  0.084108  0  1.003908  0
H  H25  1  0.01258322  0.60732554  0.53290853  1  0  0.064588  0  0.943846  0  0  0.084497  0  1.004401  0  0  0.085015  0  1.005223  0  0  0.084611  0.084116  0  1.003878  0
H  H26  1  0.51256047  0.60731834  0.96708873  1  0  0.064534  0  0.944007  0  0  0.084498  0  1.00443  0  0  0.084984  0  1.00529  0  0  0.084631  0.084125  0  1.003897  0
H  H27  1  0.98744513  0.39268865  0.46709221  1  0  0.064508  0  0.943919  0  0  0.084471  0  1.004413  0  0  0.084965  0  1.005259  0  0  0.084607  0.084085  0  1.003895  0
H  H28  1  0.63448675  0.50183004  0.11918176  1  0  0.066957  0  0.956974  0  0  0.07829  0  1.031234  0  0  0.079156  0  1.031734  0  0  0.077613  0.077483  0  1.031372  0
H  H29  1  0.86551297  0.49816533  0.61918023  1  0  0.066964  0  0.956956  0  0  0.078294  0  1.031211  0  0  0.079162  0  1.031707  0  0  0.077646  0.077487  0  1.031346  0
H  H30  1  0.36549522  0.49816319  0.88081291  1  0  0.067027  0  0.956872  0  0  0.078273  0  1.031205  0  0  0.079143  0  1.031695  0  0  0.077578  0.077465  0  1.031344  0
H  H31  1  0.13451439  0.50184045  0.38081714  1  0  0.067029  0  0.956907  0  0  0.078321  0  1.031205  0  0  0.07919  0  1.031696  0  0  0.077613  0.077513  0  1.031343  0
H  H32  1  0.87105414  0.35092942  0.13239178  1  0  0.068702  0  0.950833  0  0  0.085973  0  1.014608  0  0  0.086734  0  1.015178  0  0  0.083778  0.08539  0  1.014176  0
H  H33  1  0.62893726  0.64906095  0.63238811  1  0  0.068706  0  0.950802  0  0  0.08599  0  1.01455  0  0  0.086755  0  1.015119  0  0  0.083774  0.085403  0  1.014125  0
H  H34  1  0.12892229  0.64906171  0.86760626  1  0  0.068639  0  0.95079  0  0  0.085935  0  1.014509  0  0  0.086701  0  1.015082  0  0  0.083757  0.085332  0  1.0141  0
H  H35  1  0.37109060  0.35094589  0.36761599  1  0  0.068615  0  0.950888  0  0  0.08597  0  1.014543  0  0  0.08674  0  1.015113  0  0  0.083778  0.085375  0  1.014124  0
H  H36  1  0.86771408  0.41644885  0.02239684  1  0  0.07971  0  0.948949  0  0  0.096982  0  1.009517  0  0  0.098156  0  1.009374  0  0  0.089085  0.095885  0  1.01016  0
H  H37  1  0.63228336  0.58354371  0.52239343  1  0  0.079809  0  0.948924  0  0  0.09707  0  1.009476  0  0  0.098248  0  1.00933  0  0  0.089099  0.095973  0  1.010119  0
H  H38  1  0.13226386  0.58354228  0.97760052  1  0  0.079872  0  0.948858  0  0  0.09709  0  1.009426  0  0  0.098273  0  1.009278  0  0  0.089115  0.095993  0  1.010065  0
H  H39  1  0.36773542  0.41645999  0.47761135  1  0  0.07988  0  0.94878  0  0  0.097111  0  1.009363  0  0  0.098295  0  1.009214  0  0  0.089113  0.096014  0  1.010005  0
H  H40  1  0.59303617  0.18646148  0.97845545  1  0  0.056379  0  0.952347  0  0  0.0672  0  1.028809  0  0  0.066905  0  1.029923  0  0  0.093079  0.067106  0  1.028259  0
H  H41  1  0.90695654  0.81353101  0.47845414  1  0  0.056405  0  0.952319  0  0  0.067237  0  1.028777  0  0  0.066942  0  1.029892  0  0  0.093095  0.067144  0  1.028228  0
H  H42  1  0.40695136  0.81352753  0.02154191  1  0  0.056443  0  0.952322  0  0  0.067279  0  1.028777  0  0  0.066985  0  1.029889  0  0  0.093122  0.067185  0  1.028227  0
H  H43  1  0.09304963  0.18647480  0.52154389  1  0  0.056409  0  0.952341  0  0  0.067256  0  1.028789  0  0  0.066962  0  1.0299  0  0  0.093108  0.067162  0  1.02824  0
H  H44  1  0.85133095  0.17932557  0.00220656  1  0  0.069537  0  0.939365  0  0  0.085944  0  1.001271  0  0  0.086646  0  1.00097  0  0  0.097674  0.085023  0  1.00201  0
H  H45  1  0.64866158  0.82066663  0.50220675  1  0  0.069587  0  0.939448  0  0  0.085991  0  1.00134  0  0  0.086693  0  1.001038  0  0  0.09769  0.085071  0  1.002077  0
H  H46  1  0.14865203  0.82066661  0.99779417  1  0  0.069555  0  0.939443  0  0  0.085951  0  1.001364  0  0  0.086655  0  1.001059  0  0  0.097659  0.08503  0  1.002102  0
H  H47  1  0.35134863  0.17933497  0.49779735  1  0  0.069537  0  0.939403  0  0  0.085934  0  1.001334  0  0  0.086636  0  1.001032  0  0  0.097629  0.085014  0  1.002073  0
C  C48  1  0.44845795  0.05683315  0.14513612  1  0  0.620984  0  3.72101  0  0  0.575328  0  4.003526  0  0  0.606313  0  4.002846  0  0  0.250984  0.553976  0  4.003561  0
C  C49  1  0.05154077  0.94316514  0.64513492  1  0  0.621092  0  3.721026  0  0  0.5754  0  4.0036  0  0  0.606378  0  4.002913  0  0  0.250931  0.554045  0  4.003642  0
C  C50  1  0.55152150  0.94316113  0.85486326  1  0  0.621152  0  3.720857  0  0  0.575402  0  4.003523  0  0  0.606388  0  4.002849  0  0  0.250853  0.554047  0  4.003566  0
C  C51  1  0.94847801  0.05684171  0.35486244  1  0  0.621019  0  3.72089  0  0  0.575247  0  4.003579  0  0  0.606235  0  4.002903  0  0  0.250809  0.553892  0  4.003624  0
C  C52  1  0.31127596  0.15052316  0.13612901  1  0  -0.257816  0  3.65877  0  0  -0.289121  0  3.899784  0  0  -0.295385  0  3.90891  0  0  -0.164304  -0.2847  0  3.893583  0
C  C53  1  0.18872209  0.84947391  0.63612879  1  0  -0.257874  0  3.658828  0  0  -0.289154  0  3.899871  0  0  -0.295375  0  3.908938  0  0  -0.164292  -0.284722  0  3.893659  0
C  C54  1  0.68870903  0.84947637  0.86387307  1  0  -0.257747  0  3.658754  0  0  -0.289057  0  3.899814  0  0  -0.295338  0  3.90896  0  0  -0.164285  -0.28463  0  3.893603  0
C  C55  1  0.81129467  0.15053189  0.36387127  1  0  -0.257717  0  3.658794  0  0  -0.288947  0  3.899764  0  0  -0.295235  0  3.908919  0  0  -0.16423  -0.28452  0  3.893553  0
C  C56  1  0.42465924  0.30330572  0.16543279  1  0  -0.08228  0  3.662724  0  0  -0.122554  0  3.921353  0  0  -0.123124  0  3.935424  0  0  -0.164596  -0.121704  0  3.911467  0
C  C57  1  0.07533329  0.69669190  0.66543271  1  0  -0.08212  0  3.662724  0  0  -0.122455  0  3.921411  0  0  -0.123036  0  3.935474  0  0  -0.164577  -0.121609  0  3.911518  0
C  C58  1  0.57532776  0.69669486  0.83456525  1  0  -0.082285  0  3.662933  0  0  -0.122629  0  3.921523  0  0  -0.12318  0  3.935567  0  0  -0.164582  -0.121775  0  3.911629  0
C  C59  1  0.92468246  0.30331180  0.33456803  1  0  -0.082286  0  3.663026  0  0  -0.122648  0  3.921721  0  0  -0.123204  0  3.935782  0  0  -0.164601  -0.121793  0  3.911825  0
C  C60  1  0.57749443  0.39246292  0.09537130  1  0  -0.11108  0  3.686356  0  0  -0.149285  0  3.943914  0  0  -0.150393  0  3.959011  0  0  -0.173294  -0.14851  0  3.933613  0
C  C61  1  0.92249931  0.60753309  0.59536991  1  0  -0.111127  0  3.686437  0  0  -0.149291  0  3.943954  0  0  -0.150395  0  3.959059  0  0  -0.173324  -0.148516  0  3.933648  0
C  C62  1  0.42249461  0.60753241  0.90462270  1  0  -0.111176  0  3.686448  0  0  -0.149267  0  3.943804  0  0  -0.150351  0  3.958916  0  0  -0.1733  -0.148496  0  3.933487  0
C  C63  1  0.07751493  0.39247377  0.40462611  1  0  -0.111112  0  3.686444  0  0  -0.149247  0  3.943872  0  0  -0.150334  0  3.958982  0  0  -0.173322  -0.14847  0  3.933562  0
C  C64  1  0.76946406  0.34444861  0.07277530  1  0  -0.137436  0  3.680896  0  0  -0.176041  0  3.938765  0  0  -0.178178  0  3.952865  0  0  -0.171269  -0.174398  0  3.929056  0
C  C65  1  0.73053128  0.65554487  0.57277321  1  0  -0.137585  0  3.680983  0  0  -0.176163  0  3.938794  0  0  -0.17831  0  3.952905  0  0  -0.171266  -0.174518  0  3.929087  0
C  C66  1  0.23051438  0.65554042  0.92722207  1  0  -0.137537  0  3.680727  0  0  -0.176057  0  3.938398  0  0  -0.178213  0  3.952519  0  0  -0.17123  -0.1744  0  3.928689  0
C  C67  1  0.26949204  0.34446197  0.42722954  1  0  -0.137558  0  3.680762  0  0  -0.17614  0  3.938553  0  0  -0.1783  0  3.952681  0  0  -0.171251  -0.174483  0  3.928841  0
C  C68  1  0.71067180  0.19713849  0.03267657  1  0  0.058457  0  3.631906  0  0  -0.000711  0  3.896241  0  0  0.004448  0  3.908459  0  0  -0.066188  -0.003723  0  3.887889  0
C  C69  1  0.78931827  0.80285427  0.53267622  1  0  0.058407  0  3.631936  0  0  -0.000783  0  3.89626  0  0  0.004378  0  3.90848  0  0  -0.066259  -0.003794  0  3.887909  0
C  C70  1  0.28930766  0.80284949  0.96732282  1  0  0.058436  0  3.631781  0  0  -0.000801  0  3.896156  0  0  0.004364  0  3.908374  0  0  -0.066243  -0.003811  0  3.887797  0
C  C71  1  0.21069446  0.19715259  0.46732586  1  0  0.058469  0  3.631772  0  0  -0.000777  0  3.89618  0  0  0.004384  0  3.908406  0  0  -0.066213  -0.003788  0  3.887825  0
N  N72  1  0.62847461  0.08365575  0.09837949  1  0  -0.401507  0  3.2873  0  0  -0.337037  0  3.525736  0  0  -0.359176  0  3.535998  0  0  -0.410573  -0.322783  0  3.519243  0
N  N73  1  0.87151968  0.91633821  0.59837937  1  0  -0.401717  0  3.287366  0  0  -0.337223  0  3.525837  0  0  -0.359363  0  3.536096  0  0  -0.410578  -0.322963  0  3.51936  0
N  N74  1  0.37150887  0.91633748  0.90162056  1  0  -0.401702  0  3.287286  0  0  -0.337205  0  3.5258  0  0  -0.359339  0  3.536053  0  0  -0.410555  -0.322954  0  3.519315  0
N  N75  1  0.12849052  0.08366655  0.40162068  1  0  -0.401579  0  3.28727  0  0  -0.337133  0  3.525762  0  0  -0.359266  0  3.536012  0  0  -0.410516  -0.322883  0  3.51928  0
Cl  Cl76  1  0.22455356  0.61174500  0.17630742  1  0  -0.513396  0  1.027296  0  0  -0.443361  0  1.304679  0  0  -0.465888  0  1.285795  0  0  -0.252321  -0.426692  0  1.317591  0
Cl  Cl77  1  0.27545380  0.38825805  0.67631241  1  0  -0.513356  0  1.027311  0  0  -0.443335  0  1.304739  0  0  -0.465863  0  1.285857  0  0  -0.252313  -0.426665  0  1.317649  0
Cl  Cl78  1  0.77545060  0.38825661  0.82369466  1  0  -0.513363  0  1.027317  0  0  -0.443325  0  1.30472  0  0  -0.465854  0  1.285838  0  0  -0.252306  -0.426654  0  1.317628  0
Cl  Cl79  1  0.72455439  0.61174566  0.32369034  1  0  -0.513369  0  1.027301  0  0  -0.443358  0  1.30472  0  0  -0.465886  0  1.285837  0  0  -0.252319  -0.426687  0  1.317631  0
Cl  Cl80  1  0.82497971  0.81898028  0.11105169  1  0  -0.550295  0  0.978271  0  0  -0.489871  0  1.246144  0  0  -0.508296  0  1.223602  0  0  -0.2682  -0.476291  0  1.262178  0
Cl  Cl81  1  0.67502289  0.18102125  0.61105446  1  0  -0.550308  0  0.978316  0  0  -0.489854  0  1.246158  0  0  -0.508279  0  1.223615  0  0  -0.268197  -0.476275  0  1.262189  0
Cl  Cl82  1  0.17501336  0.18101714  0.88894769  1  0  -0.550307  0  0.97831  0  0  -0.489869  0  1.246173  0  0  -0.508295  0  1.223636  0  0  -0.268199  -0.476288  0  1.262205  0
Cl  Cl83  1  0.32498681  0.81898561  0.38894694  1  0  -0.550322  0  0.978315  0  0  -0.489897  0  1.246153  0  0  -0.508322  0  1.223614  0  0  -0.268198  -0.476318  0  1.262186  0
O  O84  1  0.39504501  0.95334913  0.20012414  1  0  -0.657903  0  2.141701  0  0  -0.584636  0  2.412853  0  0  -0.615425  0  2.402785  0  0  -0.330447  -0.562366  0  2.418763  0
O  O85  1  0.10495522  0.04665122  0.70012253  1  0  -0.657875  0  2.141629  0  0  -0.584598  0  2.412797  0  0  -0.615389  0  2.402735  0  0  -0.33041  -0.56233  0  2.418714  0
O  O86  1  0.60494704  0.04664934  0.79987727  1  0  -0.657976  0  2.141597  0  0  -0.584654  0  2.412775  0  0  -0.615443  0  2.402708  0  0  -0.330403  -0.562384  0  2.41869  0
O  O87  1  0.89505448  0.95335249  0.29987686  1  0  -0.65794  0  2.141667  0  0  -0.584627  0  2.412871  0  0  -0.615415  0  2.402802  0  0  -0.330397  -0.562357  0  2.418786  0
