# generated using pymatgen
data_ZnH15C12SN3O4
_symmetry_space_group_name_H-M   'P 1'
_cell_length_a   7.56974349
_cell_length_b   11.61730008
_cell_length_c   15.77722681
_cell_angle_alpha   90.00008679
_cell_angle_beta   89.99995667
_cell_angle_gamma   89.99999182
_symmetry_Int_Tables_number   1
_chemical_formula_structural   ZnH15C12SN3O4
_chemical_formula_sum   'Zn4 H60 C48 S4 N12 O16'
_cell_volume   1387.44903548
_cell_formula_units_Z   4
loop_
 _symmetry_equiv_pos_site_id
 _symmetry_equiv_pos_as_xyz
  1  'x, y, z'
loop_
 _atom_site_type_symbol
 _atom_site_label
 _atom_site_symmetry_multiplicity
 _atom_site_fract_x
 _atom_site_fract_y
 _atom_site_fract_z
 _atom_site_occupancy
 _atom_site_hle17_bader_spin_density
 _atom_site_hle17_ddec_charge
 _atom_site_hle17_ddec_spin_density
 _atom_site_hle17_ddec_sum_bond_order
 _atom_site_hle17_magmom
 _atom_site_hse06_10hf_bader_spin_density
 _atom_site_hse06_10hf_ddec_charge
 _atom_site_hse06_10hf_ddec_spin_density
 _atom_site_hse06_10hf_ddec_sum_bond_order
 _atom_site_hse06_10hf_magmom
 _atom_site_hse06_bader_spin_density
 _atom_site_hse06_ddec_charge
 _atom_site_hse06_ddec_spin_density
 _atom_site_hse06_ddec_sum_bond_order
 _atom_site_hse06_magmom
 _atom_site_pbe_bader_spin_density
 _atom_site_pbe_cm5_charge
 _atom_site_pbe_ddec_charge
 _atom_site_pbe_ddec_spin_density
 _atom_site_pbe_ddec_sum_bond_order
 _atom_site_pbe_magmom
Zn  Zn0  1  0.15059289  0.26691058  0.03283479  1  0  0.916122  0  1.927518  0  0  0.738111  0  2.397348  0  0  0.784861  0  2.344524  0  0  0.630196  0.705431  0  2.433687  0
Zn  Zn1  1  0.65059320  0.73308696  0.96716519  1  0  0.916097  0  1.927518  0  0  0.738081  0  2.397335  0  0  0.784832  0  2.344518  0  0  0.630221  0.705419  0  2.43367  0
Zn  Zn2  1  0.15058854  0.23308568  0.53283265  1  0  0.916164  0  1.927501  0  0  0.738129  0  2.397348  0  0  0.784889  0  2.344529  0  0  0.630229  0.705448  0  2.433704  0
Zn  Zn3  1  0.65059359  0.76691272  0.46716733  1  0  0.916132  0  1.927509  0  0  0.738134  0  2.397339  0  0  0.784888  0  2.344519  0  0  0.630215  0.705458  0  2.433684  0
H  H4  1  0.24336953  0.35932871  0.79940047  1  0  0.303579  0  0.921211  0  0  0.28429  0  0.985064  0  0  0.293151  0  0.977801  0  0  0.314713  0.277954  0  0.990369  0
H  H5  1  0.74337106  0.64067141  0.20060011  1  0  0.30355  0  0.921224  0  0  0.284258  0  0.985074  0  0  0.293117  0  0.977815  0  0  0.314702  0.277919  0  0.990378  0
H  H6  1  0.24336731  0.14066981  0.29939866  1  0  0.303543  0  0.921239  0  0  0.28424  0  0.985092  0  0  0.293099  0  0.977833  0  0  0.314693  0.277906  0  0.990397  0
H  H7  1  0.74336800  0.85932944  0.70060129  1  0  0.303541  0  0.921233  0  0  0.284249  0  0.985083  0  0  0.293108  0  0.977824  0  0  0.314694  0.277915  0  0.990381  0
H  H8  1  0.02735039  0.30580330  0.72759318  1  0  0.297408  0  0.915681  0  0  0.278547  0  0.980291  0  0  0.286597  0  0.974289  0  0  0.311644  0.272815  0  0.984695  0
H  H9  1  0.52735708  0.69419684  0.27240875  1  0  0.297429  0  0.915688  0  0  0.27856  0  0.98028  0  0  0.28661  0  0.974282  0  0  0.311694  0.272828  0  0.984683  0
H  H10  1  0.02735079  0.19419510  0.22759207  1  0  0.297434  0  0.915662  0  0  0.278548  0  0.980301  0  0  0.2866  0  0.974295  0  0  0.311673  0.272817  0  0.984705  0
H  H11  1  0.52735667  0.80580160  0.77240859  1  0  0.297406  0  0.915707  0  0  0.27853  0  0.980302  0  0  0.286578  0  0.974309  0  0  0.311696  0.2728  0  0.984702  0
H  H12  1  0.34288536  0.52996484  0.89910564  1  0  0.107408  0  0.959533  0  0  0.125803  0  1.023947  0  0  0.127482  0  1.022776  0  0  0.098942  0.124499  0  1.024894  0
H  H13  1  0.84288444  0.47003441  0.10089490  1  0  0.107418  0  0.959569  0  0  0.125809  0  1.023978  0  0  0.127489  0  1.022804  0  0  0.098935  0.124504  0  1.024922  0
H  H14  1  0.34288570  0.97003301  0.39910611  1  0  0.107422  0  0.959561  0  0  0.125811  0  1.023975  0  0  0.127491  0  1.022802  0  0  0.098947  0.124505  0  1.024923  0
H  H15  1  0.84288410  0.02996623  0.60089571  1  0  0.107385  0  0.959597  0  0  0.125775  0  1.024009  0  0  0.127454  0  1.022837  0  0  0.098927  0.124481  0  1.024945  0
H  H16  1  0.31180971  0.50287932  0.00954056  1  0  0.106788  0  0.964017  0  0  0.121956  0  1.033853  0  0  0.122722  0  1.034674  0  0  0.101069  0.121318  0  1.033368  0
H  H17  1  0.81181003  0.49711907  0.99045936  1  0  0.106787  0  0.96402  0  0  0.121953  0  1.033852  0  0  0.122719  0  1.034675  0  0  0.10105  0.121313  0  1.033371  0
H  H18  1  0.31181058  0.99711773  0.50954125  1  0  0.106777  0  0.96401  0  0  0.121942  0  1.033851  0  0  0.122708  0  1.034671  0  0  0.101041  0.121305  0  1.033364  0
H  H19  1  0.81181048  0.00288238  0.49046057  1  0  0.106796  0  0.964029  0  0  0.121966  0  1.03385  0  0  0.122732  0  1.034671  0  0  0.10106  0.121322  0  1.03337  0
H  H20  1  0.12409060  0.50779020  0.93950504  1  0  0.118512  0  0.95967  0  0  0.135594  0  1.024388  0  0  0.137075  0  1.023942  0  0  0.105394  0.134435  0  1.024841  0
H  H21  1  0.62409106  0.49220906  0.06049495  1  0  0.118491  0  0.959692  0  0  0.135568  0  1.024412  0  0  0.13705  0  1.023966  0  0  0.105378  0.134406  0  1.024863  0
H  H22  1  0.12409226  0.99220689  0.43950489  1  0  0.118505  0  0.95965  0  0  0.135593  0  1.02436  0  0  0.137069  0  1.023918  0  0  0.105381  0.134434  0  1.024812  0
H  H23  1  0.62409072  0.00779237  0.56049636  1  0  0.118489  0  0.959681  0  0  0.135567  0  1.024399  0  0  0.137049  0  1.023951  0  0  0.105388  0.134408  0  1.02485  0
H  H24  1  0.54002153  0.37228274  0.88340251  1  0  0.092527  0  0.955475  0  0  0.110811  0  1.022821  0  0  0.111476  0  1.023063  0  0  0.095823  0.110237  0  1.022729  0
H  H25  1  0.04001969  0.62771912  0.11659815  1  0  0.092508  0  0.955515  0  0  0.110785  0  1.022862  0  0  0.111451  0  1.023102  0  0  0.095832  0.11021  0  1.022772  0
H  H26  1  0.54002195  0.12771937  0.38340259  1  0  0.092515  0  0.955467  0  0  0.110786  0  1.022821  0  0  0.111451  0  1.023062  0  0  0.095837  0.110214  0  1.022727  0
H  H27  1  0.04002059  0.87228076  0.61659807  1  0  0.092504  0  0.955493  0  0  0.110783  0  1.022838  0  0  0.111448  0  1.02308  0  0  0.095834  0.110218  0  1.022738  0
H  H28  1  0.47251064  0.22939243  0.91396231  1  0  0.113877  0  0.944377  0  0  0.131021  0  1.01076  0  0  0.13192  0  1.010782  0  0  0.106996  0.13028  0  1.010879  0
H  H29  1  0.97250836  0.77060681  0.08603882  1  0  0.113902  0  0.944387  0  0  0.13102  0  1.010785  0  0  0.131918  0  1.010808  0  0  0.107006  0.130276  0  1.010907  0
H  H30  1  0.47251103  0.27060803  0.41396128  1  0  0.113832  0  0.944383  0  0  0.130974  0  1.010766  0  0  0.131873  0  1.010786  0  0  0.106961  0.130223  0  1.010895  0
H  H31  1  0.97250665  0.72939206  0.58603985  1  0  0.113898  0  0.944394  0  0  0.131016  0  1.010787  0  0  0.131915  0  1.01081  0  0  0.107004  0.130266  0  1.010916  0
H  H32  1  0.52159678  0.33417847  0.99308209  1  0  0.118034  0  0.950075  0  0  0.136557  0  1.012536  0  0  0.137747  0  1.012118  0  0  0.10843  0.135579  0  1.013018  0
H  H33  1  0.02159643  0.66582252  0.00691857  1  0  0.118005  0  0.950096  0  0  0.136521  0  1.012564  0  0  0.13771  0  1.012147  0  0  0.108435  0.13555  0  1.013039  0
H  H34  1  0.52159587  0.16582042  0.49308285  1  0  0.11796  0  0.950108  0  0  0.136498  0  1.012545  0  0  0.137688  0  1.012127  0  0  0.108421  0.135526  0  1.013025  0
H  H35  1  0.02159601  0.83417885  0.50691845  1  0  0.11802  0  0.950046  0  0  0.136538  0  1.012513  0  0  0.137729  0  1.012094  0  0  0.10842  0.135561  0  1.012993  0
H  H36  1  0.77428459  0.20810927  0.69186428  1  0  0.108792  0  0.925441  0  0  0.132188  0  0.982107  0  0  0.132995  0  0.981954  0  0  0.110983  0.131483  0  0.982364  0
H  H37  1  0.27428505  0.79189084  0.30813503  1  0  0.108806  0  0.925447  0  0  0.132199  0  0.982123  0  0  0.133001  0  0.981969  0  0  0.110986  0.131491  0  0.982385  0
H  H38  1  0.77428365  0.29189156  0.19186200  1  0  0.108827  0  0.925426  0  0  0.13221  0  0.982104  0  0  0.133013  0  0.981949  0  0  0.110991  0.131504  0  0.982362  0
H  H39  1  0.27428599  0.70810855  0.80813540  1  0  0.108839  0  0.925481  0  0  0.132228  0  0.982156  0  0  0.13303  0  0.982002  0  0  0.110999  0.13152  0  0.982416  0
H  H40  1  0.67427055  0.28329551  0.77721013  1  0  0.083353  0  0.96406  0  0  0.102642  0  1.031851  0  0  0.10225  0  1.033706  0  0  0.094962  0.102766  0  1.030692  0
H  H41  1  0.17427778  0.71670375  0.22279111  1  0  0.083399  0  0.964034  0  0  0.102676  0  1.031842  0  0  0.102285  0  1.033696  0  0  0.094978  0.102819  0  1.03066  0
H  H42  1  0.67427360  0.21670293  0.27720841  1  0  0.083414  0  0.964029  0  0  0.102689  0  1.03183  0  0  0.102298  0  1.033683  0  0  0.09496  0.102823  0  1.03066  0
H  H43  1  0.17427870  0.78329633  0.72279156  1  0  0.083449  0  0.964042  0  0  0.102728  0  1.031838  0  0  0.102337  0  1.033693  0  0  0.094987  0.102872  0  1.03066  0
H  H44  1  0.76694345  0.14375707  0.79434486  1  0  0.090546  0  0.957461  0  0  0.108742  0  1.025698  0  0  0.109095  0  1.02575  0  0  0.09879  0.108349  0  1.025792  0
H  H45  1  0.26694670  0.85624304  0.20565571  1  0  0.090568  0  0.95747  0  0  0.108768  0  1.025704  0  0  0.10912  0  1.025753  0  0  0.098783  0.108362  0  1.025812  0
H  H46  1  0.76694382  0.35624225  0.29434330  1  0  0.090561  0  0.957458  0  0  0.108745  0  1.025699  0  0  0.109098  0  1.025749  0  0  0.098774  0.108341  0  1.025813  0
H  H47  1  0.26694501  0.64375700  0.70565728  1  0  0.090569  0  0.957502  0  0  0.108772  0  1.025731  0  0  0.109124  0  1.025776  0  0  0.098777  0.10836  0  1.025853  0
H  H48  1  0.63774284  0.10460606  0.02796874  1  0  0.096691  0  0.957491  0  0  0.107665  0  1.019574  0  0  0.110788  0  1.017524  0  0  0.099852  0.105397  0  1.021094  0
H  H49  1  0.13773828  0.89539406  0.97203062  1  0  0.096696  0  0.957535  0  0  0.107697  0  1.019553  0  0  0.11082  0  1.017502  0  0  0.099833  0.105391  0  1.021099  0
H  H50  1  0.63774242  0.39539187  0.52796425  1  0  0.09678  0  0.95731  0  0  0.107695  0  1.01944  0  0  0.110816  0  1.01739  0  0  0.099867  0.105429  0  1.020949  0
H  H51  1  0.13774003  0.60460654  0.47203320  1  0  0.096755  0  0.957368  0  0  0.107679  0  1.019503  0  0  0.110801  0  1.017453  0  0  0.099862  0.105403  0  1.021033  0
H  H52  1  0.93695112  0.02870893  0.06293866  1  0  0.091076  0  0.961887  0  0  0.099118  0  1.028244  0  0  0.102324  0  1.026598  0  0  0.096524  0.096825  0  1.029561  0
H  H53  1  0.43694791  0.97128945  0.93705931  1  0  0.091088  0  0.961912  0  0  0.09916  0  1.028225  0  0  0.102365  0  1.026579  0  0  0.0965  0.096822  0  1.029551  0
H  H54  1  0.93694935  0.47129593  0.56293616  1  0  0.091067  0  0.961963  0  0  0.099143  0  1.028275  0  0  0.10235  0  1.026627  0  0  0.096537  0.096843  0  1.029602  0
H  H55  1  0.43694968  0.52870589  0.43706245  1  0  0.091054  0  0.961997  0  0  0.099132  0  1.028315  0  0  0.102338  0  1.026668  0  0  0.096521  0.096825  0  1.029639  0
H  H56  1  0.99226586  0.93948868  0.20466686  1  0  0.097593  0  0.957506  0  0  0.108254  0  1.020416  0  0  0.111663  0  1.017733  0  0  0.102912  0.105775  0  1.02236  0
H  H57  1  0.49226440  0.06051572  0.79533300  1  0  0.097611  0  0.957523  0  0  0.108258  0  1.020444  0  0  0.111664  0  1.017762  0  0  0.102913  0.105754  0  1.022395  0
H  H58  1  0.99226418  0.56051646  0.70466263  1  0  0.097647  0  0.957453  0  0  0.108295  0  1.020383  0  0  0.1117  0  1.017701  0  0  0.102969  0.105817  0  1.022328  0
H  H59  1  0.49226211  0.43948363  0.29533533  1  0  0.097615  0  0.9575  0  0  0.108265  0  1.020427  0  0  0.11167  0  1.017745  0  0  0.102949  0.105782  0  1.022371  0
H  H60  1  0.44932666  0.99313721  0.27126297  1  0  0.089725  0  0.981326  0  0  0.097566  0  1.053673  0  0  0.10142  0  1.049888  0  0  0.101858  0.094786  0  1.056428  0
H  H61  1  0.94932486  0.00686288  0.72873753  1  0  0.089733  0  0.981314  0  0  0.097581  0  1.053674  0  0  0.101442  0  1.049871  0  0  0.101801  0.094748  0  1.05643  0
H  H62  1  0.44932368  0.50686209  0.77126058  1  0  0.089753  0  0.981301  0  0  0.097618  0  1.053625  0  0  0.101466  0  1.049852  0  0  0.101855  0.094837  0  1.056382  0
H  H63  1  0.94932256  0.49313715  0.22873865  1  0  0.089717  0  0.98129  0  0  0.097583  0  1.053627  0  0  0.101434  0  1.049851  0  0  0.101828  0.094796  0  1.056379  0
C  C64  1  0.02749428  0.28302361  0.85409068  1  0  0.440982  0  3.804936  0  0  0.384389  0  4.113818  0  0  0.412723  0  4.11988  0  0  0.251691  0.365386  0  4.109035  0
C  C65  1  0.52749721  0.71697653  0.14590998  1  0  0.441065  0  3.804847  0  0  0.384359  0  4.113822  0  0  0.412694  0  4.119885  0  0  0.251667  0.365346  0  4.109049  0
C  C66  1  0.02749468  0.21697246  0.35408833  1  0  0.441102  0  3.80476  0  0  0.384356  0  4.113791  0  0  0.412688  0  4.119859  0  0  0.25176  0.365351  0  4.109004  0
C  C67  1  0.52749813  0.78302251  0.64591107  1  0  0.441037  0  3.804824  0  0  0.384333  0  4.11379  0  0  0.412666  0  4.119856  0  0  0.251701  0.365327  0  4.109005  0
C  C68  1  0.26284695  0.48292556  0.94584769  1  0  -0.219074  0  3.589972  0  0  -0.315526  0  3.837229  0  0  -0.313847  0  3.84531  0  0  -0.153387  -0.316398  0  3.831774  0
C  C69  1  0.76284741  0.51707283  0.05415225  1  0  -0.219075  0  3.58998  0  0  -0.315514  0  3.83719  0  0  -0.313836  0  3.845271  0  0  -0.153354  -0.316385  0  3.831734  0
C  C70  1  0.26284871  0.01707326  0.44584828  1  0  -0.219043  0  3.590079  0  0  -0.315512  0  3.837272  0  0  -0.313829  0  3.845359  0  0  -0.153367  -0.316387  0  3.831813  0
C  C71  1  0.76284829  0.98292857  0.55415293  1  0  -0.219001  0  3.590016  0  0  -0.315445  0  3.837218  0  0  -0.313764  0  3.845296  0  0  -0.153346  -0.31632  0  3.831756  0
C  C72  1  0.46577988  0.32084226  0.92983271  1  0  -0.209556  0  3.62202  0  0  -0.31117  0  3.879002  0  0  -0.308575  0  3.887127  0  0  -0.150717  -0.312654  0  3.873447  0
C  C73  1  0.96577896  0.67915783  0.07016906  1  0  -0.209532  0  3.622051  0  0  -0.311121  0  3.879035  0  0  -0.308526  0  3.887161  0  0  -0.150699  -0.312606  0  3.873482  0
C  C74  1  0.46577764  0.17915737  0.42983221  1  0  -0.209411  0  3.62205  0  0  -0.311037  0  3.878972  0  0  -0.308442  0  3.887099  0  0  -0.150691  -0.31252  0  3.873418  0
C  C75  1  0.96577723  0.82084187  0.57016893  1  0  -0.209566  0  3.622119  0  0  -0.311144  0  3.879055  0  0  -0.308551  0  3.887184  0  0  -0.150731  -0.312627  0  3.873497  0
C  C76  1  0.78264413  0.22515117  0.75990603  1  0  -0.10675  0  3.667473  0  0  -0.210388  0  3.927614  0  0  -0.205865  0  3.937141  0  0  -0.136388  -0.213145  0  3.921147  0
C  C77  1  0.28264999  0.77484981  0.24009517  1  0  -0.106861  0  3.667567  0  0  -0.210531  0  3.927719  0  0  -0.205998  0  3.937235  0  0  -0.136434  -0.2133  0  3.921252  0
C  C78  1  0.78264452  0.27484636  0.25990373  1  0  -0.106906  0  3.66755  0  0  -0.210533  0  3.927675  0  0  -0.206002  0  3.937191  0  0  -0.136394  -0.213294  0  3.921207  0
C  C79  1  0.28264432  0.72515116  0.74009556  1  0  -0.106943  0  3.667631  0  0  -0.210627  0  3.927766  0  0  -0.206093  0  3.937282  0  0  -0.136428  -0.213396  0  3.921303  0
C  C80  1  0.34731681  0.10728408  0.13075808  1  0  0.663835  0  3.884385  0  0  0.610789  0  4.175768  0  0  0.645997  0  4.167532  0  0  0.21414  0.586874  0  4.180644  0
C  C81  1  0.84731459  0.89271861  0.86924183  1  0  0.663804  0  3.88456  0  0  0.61076  0  4.175945  0  0  0.645972  0  4.167716  0  0  0.214144  0.586846  0  4.180821  0
C  C82  1  0.34731110  0.39271667  0.63075613  1  0  0.663824  0  3.884625  0  0  0.610831  0  4.175944  0  0  0.64604  0  4.167708  0  0  0.214155  0.586926  0  4.180816  0
C  C83  1  0.84731369  0.60728516  0.36924125  1  0  0.663943  0  3.884347  0  0  0.610896  0  4.175737  0  0  0.646109  0  4.167492  0  0  0.214142  0.586985  0  4.180613  0
C  C84  1  0.52529641  0.05626966  0.14829976  1  0  -0.084908  0  3.779443  0  0  -0.059151  0  4.013459  0  0  -0.069287  0  4.037657  0  0  -0.023128  -0.052669  0  3.99717  0
C  C85  1  0.02529467  0.94373134  0.85169900  1  0  -0.084712  0  3.779402  0  0  -0.058984  0  4.013424  0  0  -0.069122  0  4.037627  0  0  -0.02307  -0.052536  0  3.997157  0
C  C86  1  0.52529333  0.44373283  0.64829723  1  0  -0.08485  0  3.779354  0  0  -0.059133  0  4.013373  0  0  -0.069267  0  4.037571  0  0  -0.02318  -0.052654  0  3.997086  0
C  C87  1  0.02529510  0.55626989  0.35170090  1  0  -0.084846  0  3.779301  0  0  -0.0591  0  4.013323  0  0  -0.069234  0  4.03752  0  0  -0.023129  -0.052628  0  3.997037  0
C  C88  1  0.66297880  0.06428866  0.08912965  1  0  -0.0503  0  3.702593  0  0  -0.075658  0  3.946598  0  0  -0.073398  0  3.965838  0  0  -0.079015  -0.076796  0  3.933433  0
C  C89  1  0.16297432  0.93571060  0.91086843  1  0  -0.050403  0  3.702845  0  0  -0.075739  0  3.946819  0  0  -0.073478  0  3.96606  0  0  -0.079075  -0.076899  0  3.933679  0
C  C90  1  0.66297176  0.43571455  0.58912584  1  0  -0.050353  0  3.702388  0  0  -0.075636  0  3.946381  0  0  -0.073369  0  3.96561  0  0  -0.07896  -0.076772  0  3.933231  0
C  C91  1  0.16297343  0.56428901  0.41087097  1  0  -0.050282  0  3.702435  0  0  -0.07559  0  3.946448  0  0  -0.073329  0  3.965683  0  0  -0.078964  -0.076731  0  3.933287  0
C  C92  1  0.83040057  0.02186574  0.10907923  1  0  -0.073215  0  3.746635  0  0  -0.083246  0  4.001471  0  0  -0.087394  0  4.021493  0  0  -0.0928  -0.080696  0  3.988003  0
C  C93  1  0.33039744  0.97813695  0.89092068  1  0  -0.073245  0  3.746699  0  0  -0.08332  0  4.001554  0  0  -0.087467  0  4.021572  0  0  -0.092843  -0.080791  0  3.9881  0
C  C94  1  0.83039881  0.47813664  0.60907610  1  0  -0.073245  0  3.746762  0  0  -0.083305  0  4.001595  0  0  -0.087451  0  4.021612  0  0  -0.092805  -0.080757  0  3.988139  0
C  C95  1  0.33039921  0.52186261  0.39092445  1  0  -0.073278  0  3.746712  0  0  -0.083344  0  4.00156  0  0  -0.087488  0  4.021574  0  0  -0.092818  -0.080797  0  3.988095  0
C  C96  1  0.86132616  0.97056301  0.18766264  1  0  -0.045915  0  3.698681  0  0  -0.075198  0  3.948936  0  0  -0.072125  0  3.966468  0  0  -0.079261  -0.07684  0  3.936864  0
C  C97  1  0.36132600  0.02943795  0.81233790  1  0  -0.045901  0  3.698653  0  0  -0.075176  0  3.948939  0  0  -0.072098  0  3.966465  0  0  -0.079303  -0.076831  0  3.936878  0
C  C98  1  0.86132581  0.52943866  0.68765711  1  0  -0.045968  0  3.698559  0  0  -0.075279  0  3.948887  0  0  -0.072198  0  3.966405  0  0  -0.079344  -0.076912  0  3.936811  0
C  C99  1  0.36132238  0.47056145  0.31234153  1  0  -0.045897  0  3.698684  0  0  -0.075205  0  3.948994  0  0  -0.072125  0  3.966514  0  0  -0.079328  -0.07684  0  3.936914  0
C  C100  1  0.72356847  0.95899585  0.24639542  1  0  -0.070232  0  3.752555  0  0  -0.044692  0  3.987835  0  0  -0.054083  0  4.01082  0  0  -0.02222  -0.038713  0  3.972378  0
C  C101  1  0.22356841  0.04100427  0.75360517  1  0  -0.070308  0  3.752532  0  0  -0.044779  0  3.987818  0  0  -0.054169  0  4.010803  0  0  -0.022276  -0.038815  0  3.972363  0
C  C102  1  0.72356548  0.54100509  0.74639053  1  0  -0.070157  0  3.752344  0  0  -0.044599  0  3.987597  0  0  -0.053986  0  4.010582  0  0  -0.022249  -0.038619  0  3.972134  0
C  C103  1  0.22356347  0.45899330  0.25360942  1  0  -0.070292  0  3.752545  0  0  -0.044725  0  3.987799  0  0  -0.054112  0  4.010785  0  0  -0.022253  -0.038745  0  3.972331  0
C  C104  1  0.55672675  0.00236392  0.22606244  1  0  -0.080971  0  3.735487  0  0  -0.118134  0  3.98616  0  0  -0.11502  0  4.004678  0  0  -0.084597  -0.11985  0  3.973585  0
C  C105  1  0.05672643  0.99763793  0.77393694  1  0  -0.080992  0  3.735463  0  0  -0.118166  0  3.986137  0  0  -0.115048  0  4.004648  0  0  -0.084631  -0.119898  0  3.973559  0
C  C106  1  0.55672498  0.49763786  0.72606124  1  0  -0.08108  0  3.735494  0  0  -0.118263  0  3.986177  0  0  -0.115155  0  4.004699  0  0  -0.084606  -0.119977  0  3.973603  0
C  C107  1  0.05672292  0.50235969  0.27393878  1  0  -0.081006  0  3.735483  0  0  -0.118198  0  3.986161  0  0  -0.115087  0  4.004677  0  0  -0.084622  -0.11992  0  3.973586  0
C  C108  1  0.75591561  0.90052193  0.32994999  1  0  0.636501  0  3.907768  0  0  0.586492  0  4.200393  0  0  0.620638  0  4.193222  0  0  0.198903  0.56332  0  4.204589  0
C  C109  1  0.25591038  0.09948420  0.67005249  1  0  0.636553  0  3.907562  0  0  0.586535  0  4.200182  0  0  0.620676  0  4.193011  0  0  0.198883  0.56336  0  4.204381  0
C  C110  1  0.75591261  0.59948176  0.82994453  1  0  0.636446  0  3.907655  0  0  0.586403  0  4.200308  0  0  0.620545  0  4.193148  0  0  0.198864  0.563228  0  4.204504  0
C  C111  1  0.25591074  0.40051663  0.17005288  1  0  0.636565  0  3.907826  0  0  0.586522  0  4.200478  0  0  0.620665  0  4.193306  0  0  0.198922  0.563348  0  4.204672  0
S  S112  1  0.91616370  0.23784449  0.94277021  1  0  -0.397936  0  2.063905  0  0  -0.355867  0  2.428324  0  0  -0.374743  0  2.415412  0  0  -0.141594  -0.342891  0  2.437017  0
S  S113  1  0.41616721  0.76215820  0.05723094  1  0  -0.397929  0  2.063864  0  0  -0.355839  0  2.428323  0  0  -0.374722  0  2.415422  0  0  -0.141573  -0.342856  0  2.437016  0
S  S114  1  0.91616013  0.26215341  0.44276791  1  0  -0.398046  0  2.063795  0  0  -0.355945  0  2.428279  0  0  -0.374821  0  2.415365  0  0  -0.141666  -0.342985  0  2.436981  0
S  S115  1  0.41616418  0.73784239  0.55723261  1  0  -0.397991  0  2.063856  0  0  -0.355907  0  2.428312  0  0  -0.374785  0  2.415405  0  0  -0.14162  -0.342942  0  2.437013  0
N  N116  1  0.27833495  0.35668623  0.93235412  1  0  -0.005373  0  3.309051  0  0  0.090606  0  3.548166  0  0  0.07802  0  3.568123  0  0  -0.24248  0.099287  0  3.534224  0
N  N117  1  0.77833669  0.64331388  0.06764582  1  0  -0.005345  0  3.308922  0  0  0.090637  0  3.548033  0  0  0.07805  0  3.567993  0  0  -0.242527  0.099311  0  3.534099  0
N  N118  1  0.27833536  0.14331170  0.43235421  1  0  -0.005425  0  3.309143  0  0  0.090632  0  3.548131  0  0  0.078045  0  3.568087  0  0  -0.242442  0.099313  0  3.534186  0
N  N119  1  0.77833627  0.85668669  0.56764699  1  0  -0.005374  0  3.309081  0  0  0.090633  0  3.548154  0  0  0.078049  0  3.568108  0  0  -0.242479  0.099301  0  3.534216  0
N  N120  1  0.19488568  0.32476566  0.85575637  1  0  -0.358184  0  3.283052  0  0  -0.305224  0  3.528179  0  0  -0.323523  0  3.539383  0  0  -0.327565  -0.29279  0  3.52034  0
N  N121  1  0.69488730  0.67523188  0.14424487  1  0  -0.358201  0  3.282955  0  0  -0.305189  0  3.528069  0  0  -0.323487  0  3.539272  0  0  -0.327555  -0.292758  0  3.520237  0
N  N122  1  0.19488741  0.17523126  0.35575523  1  0  -0.358211  0  3.282995  0  0  -0.305179  0  3.528066  0  0  -0.323479  0  3.539273  0  0  -0.327593  -0.292747  0  3.520229  0
N  N123  1  0.69488821  0.82476800  0.64424473  1  0  -0.358186  0  3.28301  0  0  -0.305197  0  3.528126  0  0  -0.323496  0  3.539333  0  0  -0.327582  -0.292769  0  3.520285  0
N  N124  1  0.95320735  0.27621295  0.77767657  1  0  -0.341419  0  3.370901  0  0  -0.270103  0  3.62192  0  0  -0.29071  0  3.633965  0  0  -0.412306  -0.256297  0  3.613589  0
N  N125  1  0.45321193  0.72378800  0.22232583  1  0  -0.341461  0  3.370962  0  0  -0.270027  0  3.621907  0  0  -0.290635  0  3.633952  0  0  -0.412342  -0.256226  0  3.613584  0
N  N126  1  0.95320907  0.22378718  0.27767423  1  0  -0.34138  0  3.370936  0  0  -0.269969  0  3.621929  0  0  -0.290572  0  3.633974  0  0  -0.412336  -0.256161  0  3.613594  0
N  N127  1  0.45321021  0.77621292  0.72232628  1  0  -0.341383  0  3.370883  0  0  -0.269933  0  3.621823  0  0  -0.290542  0  3.633873  0  0  -0.412346  -0.25612  0  3.613485  0
O  O128  1  0.31949426  0.14236272  0.05453115  1  0  -0.63011  0  2.108184  0  0  -0.55168  0  2.387939  0  0  -0.581458  0  2.374242  0  0  -0.322245  -0.530878  0  2.396634  0
O  O129  1  0.81949589  0.85763566  0.94546687  1  0  -0.630086  0  2.108276  0  0  -0.551672  0  2.388066  0  0  -0.581435  0  2.374314  0  0  -0.322242  -0.530883  0  2.396765  0
O  O130  1  0.31948855  0.35764045  0.55452915  1  0  -0.630071  0  2.108165  0  0  -0.55166  0  2.387872  0  0  -0.581453  0  2.374194  0  0  -0.322217  -0.530877  0  2.396572  0
O  O131  1  0.81949234  0.64236224  0.44546823  1  0  -0.6302  0  2.108275  0  0  -0.551742  0  2.387994  0  0  -0.581527  0  2.374301  0  0  -0.322247  -0.530955  0  2.396697  0
O  O132  1  0.23533674  0.11401032  0.18999602  1  0  -0.637541  0  2.013233  0  0  -0.583991  0  2.245034  0  0  -0.608263  0  2.235716  0  0  -0.314265  -0.566998  0  2.250886  0
O  O133  1  0.73533330  0.88599065  0.81000393  1  0  -0.637583  0  2.013314  0  0  -0.584032  0  2.245101  0  0  -0.608309  0  2.235784  0  0  -0.314288  -0.567009  0  2.250932  0
O  O134  1  0.23533764  0.38598711  0.68999469  1  0  -0.637589  0  2.013462  0  0  -0.584051  0  2.245219  0  0  -0.608323  0  2.235902  0  0  -0.314298  -0.567031  0  2.251036  0
O  O135  1  0.73533504  0.61401128  0.31000336  1  0  -0.637577  0  2.013235  0  0  -0.584048  0  2.245053  0  0  -0.608323  0  2.235736  0  0  -0.314267  -0.567035  0  2.25088  0
O  O136  1  0.61249065  0.86769508  0.36973962  1  0  -0.658952  0  2.076726  0  0  -0.578423  0  2.355288  0  0  -0.607677  0  2.339602  0  0  -0.340351  -0.557892  0  2.365345  0
O  O137  1  0.11248679  0.13230935  0.63026164  1  0  -0.659005  0  2.076767  0  0  -0.578396  0  2.355247  0  0  -0.607661  0  2.339588  0  0  -0.340383  -0.557876  0  2.365312  0
O  O138  1  0.61248764  0.63230527  0.86973674  1  0  -0.658966  0  2.076654  0  0  -0.5784  0  2.355215  0  0  -0.607634  0  2.339488  0  0  -0.340375  -0.557866  0  2.365272  0
O  O139  1  0.11248451  0.36769486  0.13026135  1  0  -0.659022  0  2.076688  0  0  -0.57843  0  2.355193  0  0  -0.607695  0  2.339535  0  0  -0.34039  -0.557903  0  2.365254  0
O  O140  1  0.90926953  0.88604097  0.35692554  1  0  -0.602881  0  1.895591  0  0  -0.552699  0  2.109565  0  0  -0.57499  0  2.102065  0  0  -0.321406  -0.537205  0  2.114252  0
O  O141  1  0.40926698  0.11396946  0.64307815  1  0  -0.602874  0  1.895429  0  0  -0.552696  0  2.109396  0  0  -0.574988  0  2.101906  0  0  -0.321343  -0.537221  0  2.114088  0
O  O142  1  0.90926785  0.61396277  0.85692200  1  0  -0.602873  0  1.895569  0  0  -0.552642  0  2.109492  0  0  -0.574938  0  2.102004  0  0  -0.321322  -0.537136  0  2.114174  0
O  O143  1  0.40926470  0.38603475  0.14307979  1  0  -0.602895  0  1.895799  0  0  -0.552681  0  2.109735  0  0  -0.574972  0  2.102243  0  0  -0.32135  -0.537184  0  2.114419  0
