# generated using pymatgen
data_CdH3C7NO4
_symmetry_space_group_name_H-M   'P 1'
_cell_length_a   7.86564526
_cell_length_b   8.81099833
_cell_length_c   10.14529561
_cell_angle_alpha   89.33519724
_cell_angle_beta   89.99955074
_cell_angle_gamma   90.00030751
_symmetry_Int_Tables_number   1
_chemical_formula_structural   CdH3C7NO4
_chemical_formula_sum   'Cd4 H12 C28 N4 O16'
_cell_volume   703.06413701
_cell_formula_units_Z   4
loop_
 _symmetry_equiv_pos_site_id
 _symmetry_equiv_pos_as_xyz
  1  'x, y, z'
loop_
 _atom_site_type_symbol
 _atom_site_label
 _atom_site_symmetry_multiplicity
 _atom_site_fract_x
 _atom_site_fract_y
 _atom_site_fract_z
 _atom_site_occupancy
 _atom_site_hle17_bader_spin_density
 _atom_site_hle17_ddec_charge
 _atom_site_hle17_ddec_spin_density
 _atom_site_hle17_ddec_sum_bond_order
 _atom_site_hle17_magmom
 _atom_site_hse06_10hf_bader_spin_density
 _atom_site_hse06_10hf_ddec_charge
 _atom_site_hse06_10hf_ddec_spin_density
 _atom_site_hse06_10hf_ddec_sum_bond_order
 _atom_site_hse06_10hf_magmom
 _atom_site_hse06_bader_spin_density
 _atom_site_hse06_ddec_charge
 _atom_site_hse06_ddec_spin_density
 _atom_site_hse06_ddec_sum_bond_order
 _atom_site_hse06_magmom
 _atom_site_pbe_bader_spin_density
 _atom_site_pbe_cm5_charge
 _atom_site_pbe_ddec_charge
 _atom_site_pbe_ddec_spin_density
 _atom_site_pbe_ddec_sum_bond_order
 _atom_site_pbe_magmom
Cd  Cd0  1  0.13730787  0.40398704  0.36379353  1  0  1.242175  0  1.602338  0  0  1.060194  0  2.052274  0  0  1.116879  0  1.995748  0  0  0.799051  1.019281  0  2.091593  0
Cd  Cd1  1  0.63730905  0.09601537  0.63620621  1  0  1.242175  0  1.602231  0  0  1.060193  0  2.052152  0  0  1.116878  0  1.995629  0  0  0.79911  1.019279  0  2.091471  0
Cd  Cd2  1  0.86269192  0.59601357  0.63620717  1  0  1.242155  0  1.602364  0  0  1.060162  0  2.052306  0  0  1.116845  0  1.995781  0  0  0.799052  1.019248  0  2.091626  0
Cd  Cd3  1  0.36269074  0.90398641  0.36379152  1  0  1.242105  0  1.602258  0  0  1.060125  0  2.052195  0  0  1.116812  0  1.99567  0  0  0.799079  1.01921  0  2.091513  0
H  H4  1  0.87391718  0.05996199  0.97594588  1  0  0.109585  0  0.966219  0  0  0.120911  0  1.024978  0  0  0.123596  0  1.025032  0  0  0.109866  0.119013  0  1.0251  0
H  H5  1  0.37392601  0.44003477  0.02405341  1  0  0.109548  0  0.966246  0  0  0.120866  0  1.025023  0  0  0.12355  0  1.02508  0  0  0.109846  0.118968  0  1.025145  0
H  H6  1  0.12608261  0.94003519  0.02405778  1  0  0.109614  0  0.966196  0  0  0.120909  0  1.024988  0  0  0.123595  0  1.025043  0  0  0.109865  0.119013  0  1.025107  0
H  H7  1  0.62607505  0.55996360  0.97594532  1  0  0.109583  0  0.966142  0  0  0.120855  0  1.024977  0  0  0.12354  0  1.025034  0  0  0.109843  0.118957  0  1.025098  0
H  H8  1  0.10232463  0.17480007  0.12101023  1  0  0.083109  0  0.964029  0  0  0.090119  0  1.032198  0  0  0.093032  0  1.029246  0  0  0.114325  0.08793  0  1.034503  0
H  H9  1  0.60233108  0.32519764  0.87898973  1  0  0.083101  0  0.964039  0  0  0.090105  0  1.032215  0  0  0.093016  0  1.029269  0  0  0.114301  0.087917  0  1.034518  0
H  H10  1  0.89767897  0.82520054  0.87899145  1  0  0.083053  0  0.964125  0  0  0.090061  0  1.032296  0  0  0.092973  0  1.029342  0  0  0.114291  0.087873  0  1.034601  0
H  H11  1  0.39767125  0.67479731  0.12101097  1  0  0.083116  0  0.964043  0  0  0.090107  0  1.032236  0  0  0.093019  0  1.029286  0  0  0.114313  0.087919  0  1.03454  0
H  H12  1  0.57035121  0.09011862  0.04522951  1  0  0.092482  0  0.956439  0  0  0.103712  0  1.018733  0  0  0.106395  0  1.016887  0  0  0.106488  0.101753  0  1.020149  0
H  H13  1  0.07036061  0.40988125  0.95476572  1  0  0.09253  0  0.956487  0  0  0.103746  0  1.018794  0  0  0.106435  0  1.016927  0  0  0.106522  0.101788  0  1.020208  0
H  H14  1  0.42964731  0.90988084  0.95477316  1  0  0.092509  0  0.956429  0  0  0.103728  0  1.018731  0  0  0.10641  0  1.016885  0  0  0.106496  0.10177  0  1.020146  0
H  H15  1  0.92964300  0.59011713  0.04523203  1  0  0.092555  0  0.956399  0  0  0.103749  0  1.018729  0  0  0.10644  0  1.016859  0  0  0.106512  0.10179  0  1.020144  0
C  C16  1  0.63275758  0.22152762  0.21534218  1  0  -0.09244  0  3.695029  0  0  -0.075348  0  3.930918  0  0  -0.084651  0  3.951481  0  0  -0.000451  -0.069524  0  3.917406  0
C  C17  1  0.13276918  0.27848053  0.78464970  1  0  -0.092573  0  3.69516  0  0  -0.075451  0  3.931102  0  0  -0.084755  0  3.951663  0  0  -0.00052  -0.069629  0  3.917593  0
C  C18  1  0.36723840  0.77847981  0.78465752  1  0  -0.092529  0  3.695076  0  0  -0.075336  0  3.930866  0  0  -0.08464  0  3.951429  0  0  -0.000443  -0.069515  0  3.917356  0
C  C19  1  0.86723442  0.72151669  0.21535002  1  0  -0.092497  0  3.695173  0  0  -0.075383  0  3.931052  0  0  -0.084687  0  3.951617  0  0  -0.000452  -0.06956  0  3.917541  0
C  C20  1  0.84151396  0.12188214  0.06465807  1  0  -0.110114  0  3.713282  0  0  -0.12504  0  3.968886  0  0  -0.131551  0  3.989655  0  0  -0.083395  -0.12098  0  3.955189  0
C  C21  1  0.34152209  0.37811674  0.93534043  1  0  -0.109997  0  3.713172  0  0  -0.124918  0  3.968772  0  0  -0.131427  0  3.989537  0  0  -0.083377  -0.120859  0  3.955078  0
C  C22  1  0.15848456  0.87811960  0.93534362  1  0  -0.110144  0  3.713324  0  0  -0.125055  0  3.968925  0  0  -0.131566  0  3.989692  0  0  -0.083412  -0.120995  0  3.955229  0
C  C23  1  0.65848279  0.62187706  0.06466028  1  0  -0.110089  0  3.713189  0  0  -0.124995  0  3.968814  0  0  -0.131506  0  3.989582  0  0  -0.08339  -0.120935  0  3.955118  0
C  C24  1  0.76690914  0.28436545  0.28771043  1  0  0.113204  0  3.664405  0  0  0.108893  0  3.900221  0  0  0.113297  0  3.917162  0  0  0.126327  0.105811  0  3.888925  0
C  C25  1  0.26691475  0.21563200  0.71228261  1  0  0.113294  0  3.664146  0  0  0.108903  0  3.900123  0  0  0.113308  0  3.917061  0  0  0.126317  0.105825  0  3.88883  0
C  C26  1  0.23308684  0.71563629  0.71229125  1  0  0.113286  0  3.664295  0  0  0.108883  0  3.900143  0  0  0.113287  0  3.917085  0  0  0.126322  0.105805  0  3.888847  0
C  C27  1  0.73308632  0.78436525  0.28771513  1  0  0.113332  0  3.664235  0  0  0.109006  0  3.900098  0  0  0.113411  0  3.917039  0  0  0.126324  0.105927  0  3.888803  0
C  C28  1  0.96723390  0.18785113  0.14174654  1  0  0.143784  0  3.699358  0  0  0.107388  0  3.962456  0  0  0.116032  0  3.977474  0  0  0.05028  0.10169  0  3.952385  0
C  C29  1  0.46723988  0.31214492  0.85825514  1  0  0.143773  0  3.699286  0  0  0.107379  0  3.962418  0  0  0.116025  0  3.977432  0  0  0.05026  0.101682  0  3.952348  0
C  C30  1  0.03276462  0.81215173  0.85825612  1  0  0.143818  0  3.699448  0  0  0.107437  0  3.962516  0  0  0.116084  0  3.97753  0  0  0.050271  0.101738  0  3.952446  0
C  C31  1  0.53276373  0.68785003  0.14174459  1  0  0.143768  0  3.699379  0  0  0.107399  0  3.962451  0  0  0.116045  0  3.977465  0  0  0.050258  0.1017  0  3.95238  0
C  C32  1  0.67307754  0.13934451  0.10258988  1  0  -0.020986  0  3.712548  0  0  -0.049759  0  3.964274  0  0  -0.046397  0  3.982877  0  0  -0.065185  -0.051706  0  3.9517  0
C  C33  1  0.17308596  0.36065585  0.89740570  1  0  -0.021011  0  3.712597  0  0  -0.049787  0  3.964328  0  0  -0.04642  0  3.982934  0  0  -0.065189  -0.051737  0  3.951758  0
C  C34  1  0.32692098  0.86065837  0.89741082  1  0  -0.020985  0  3.712623  0  0  -0.049774  0  3.964323  0  0  -0.04641  0  3.982925  0  0  -0.065184  -0.051722  0  3.951751  0
C  C35  1  0.82692019  0.63934250  0.10259401  1  0  -0.021055  0  3.712629  0  0  -0.049804  0  3.964346  0  0  -0.046439  0  3.982954  0  0  -0.065233  -0.051753  0  3.951775  0
C  C36  1  0.44774404  0.24167176  0.24867498  1  0  0.669111  0  3.925858  0  0  0.611027  0  4.23055  0  0  0.647295  0  4.22208  0  0  0.209097  0.58619  0  4.236126  0
C  C37  1  0.94775138  0.25832656  0.75131794  1  0  0.669151  0  3.925395  0  0  0.61106  0  4.230095  0  0  0.647326  0  4.22163  0  0  0.209206  0.586224  0  4.235671  0
C  C38  1  0.55225321  0.75833113  0.75132571  1  0  0.669016  0  3.925901  0  0  0.610913  0  4.230595  0  0  0.647179  0  4.22213  0  0  0.209016  0.586077  0  4.23617  0
C  C39  1  0.05224968  0.74166954  0.24868080  1  0  0.66904  0  3.925651  0  0  0.610962  0  4.230322  0  0  0.647229  0  4.221858  0  0  0.209127  0.586126  0  4.235896  0
C  C40  1  0.74099221  0.36246502  0.41868587  1  0  0.661386  0  3.878201  0  0  0.605849  0  4.17349  0  0  0.641457  0  4.163723  0  0  0.220584  0.581456  0  4.179394  0
C  C41  1  0.24099740  0.13753115  0.58130832  1  0  0.66137  0  3.878181  0  0  0.605758  0  4.173627  0  0  0.641368  0  4.163857  0  0  0.220526  0.581358  0  4.179535  0
C  C42  1  0.25900504  0.63754014  0.58131482  1  0  0.661417  0  3.878332  0  0  0.605955  0  4.173514  0  0  0.64156  0  4.163745  0  0  0.220669  0.581559  0  4.179422  0
C  C43  1  0.75899985  0.86246836  0.41868942  1  0  0.661316  0  3.878239  0  0  0.605679  0  4.173678  0  0  0.641288  0  4.163914  0  0  0.220497  0.581282  0  4.179581  0
N  N44  1  0.92990164  0.26932029  0.24877398  1  0  -0.339017  0  3.243288  0  0  -0.269217  0  3.506586  0  0  -0.28789  0  3.522513  0  0  -0.31553  -0.256379  0  3.495747  0
N  N45  1  0.42990821  0.23068019  0.75122200  1  0  -0.339082  0  3.243073  0  0  -0.269228  0  3.506377  0  0  -0.2879  0  3.522299  0  0  -0.315491  -0.256389  0  3.495536  0
N  N46  1  0.07009307  0.73068374  0.75122671  1  0  -0.339021  0  3.243192  0  0  -0.269219  0  3.506531  0  0  -0.28789  0  3.522458  0  0  -0.315495  -0.256382  0  3.495694  0
N  N47  1  0.57009412  0.76931592  0.24877575  1  0  -0.339024  0  3.243173  0  0  -0.269197  0  3.506449  0  0  -0.287871  0  3.522375  0  0  -0.315452  -0.256359  0  3.49561  0
O  O48  1  0.39873751  0.37520894  0.27554876  1  0  -0.615933  0  2.007968  0  0  -0.547938  0  2.261195  0  0  -0.578461  0  2.250528  0  0  -0.31122  -0.526742  0  2.26814  0
O  O49  1  0.89873925  0.12479479  0.72444741  1  0  -0.615867  0  2.007985  0  0  -0.547874  0  2.261233  0  0  -0.578395  0  2.250565  0  0  -0.311244  -0.52668  0  2.26818  0
O  O50  1  0.60126228  0.62479620  0.72445390  1  0  -0.615881  0  2.00805  0  0  -0.547878  0  2.261277  0  0  -0.578401  0  2.250613  0  0  -0.311175  -0.526682  0  2.268221  0
O  O51  1  0.10125928  0.87520356  0.27555329  1  0  -0.615778  0  2.008006  0  0  -0.54779  0  2.261246  0  0  -0.578312  0  2.25058  0  0  -0.31117  -0.526596  0  2.268191  0
O  O52  1  0.62915723  0.31378987  0.49600211  1  0  -0.602227  0  2.009064  0  0  -0.547699  0  2.260099  0  0  -0.574026  0  2.247924  0  0  -0.311109  -0.52903  0  2.26794  0
O  O53  1  0.12915460  0.18622284  0.50398682  1  0  -0.602316  0  2.008849  0  0  -0.547699  0  2.259874  0  0  -0.574032  0  2.247703  0  0  -0.31105  -0.529024  0  2.267716  0
O  O54  1  0.37084002  0.68621640  0.50400055  1  0  -0.602208  0  2.009006  0  0  -0.547753  0  2.26008  0  0  -0.574072  0  2.247893  0  0  -0.311212  -0.529083  0  2.267923  0
O  O55  1  0.87084392  0.81377666  0.49601191  1  0  -0.602284  0  2.008825  0  0  -0.547667  0  2.259859  0  0  -0.573997  0  2.247683  0  0  -0.31104  -0.528992  0  2.267697  0
O  O56  1  0.84394393  0.47241863  0.44031414  1  0  -0.668838  0  2.110407  0  0  -0.589975  0  2.375466  0  0  -0.623696  0  2.365097  0  0  -0.318705  -0.565779  0  2.381591  0
O  O57  1  0.34393979  0.02758482  0.55968236  1  0  -0.668693  0  2.110593  0  0  -0.5898  0  2.375679  0  0  -0.62353  0  2.365342  0  0  -0.31864  -0.565609  0  2.381812  0
O  O58  1  0.15605460  0.52758767  0.55968556  1  0  -0.668837  0  2.110463  0  0  -0.589973  0  2.375471  0  0  -0.623715  0  2.365147  0  0  -0.318671  -0.565775  0  2.381593  0
O  O59  1  0.65606128  0.97241470  0.44031440  1  0  -0.668727  0  2.110645  0  0  -0.589821  0  2.375728  0  0  -0.623552  0  2.365394  0  0  -0.318647  -0.56563  0  2.38186  0
O  O60  1  0.35130919  0.12687602  0.23834744  1  0  -0.665315  0  2.020627  0  0  -0.60315  0  2.285306  0  0  -0.63134  0  2.271361  0  0  -0.33045  -0.583015  0  2.294598  0
O  O61  1  0.85131076  0.37312296  0.76164607  1  0  -0.665363  0  2.02022  0  0  -0.603182  0  2.284861  0  0  -0.631372  0  2.270919  0  0  -0.330522  -0.583046  0  2.294153  0
O  O62  1  0.64869314  0.87312465  0.76164833  1  0  -0.665263  0  2.020522  0  0  -0.603109  0  2.285215  0  0  -0.631297  0  2.271272  0  0  -0.330441  -0.582974  0  2.294508  0
O  O63  1  0.14869158  0.62687430  0.23834971  1  0  -0.665367  0  2.020362  0  0  -0.603215  0  2.285045  0  0  -0.631406  0  2.271104  0  0  -0.330547  -0.583079  0  2.294336  0
