# generated using pymatgen
data_GaH5C8O5
_symmetry_space_group_name_H-M   'P 1'
_cell_length_a   6.82318722
_cell_length_b   11.72634396
_cell_length_c   17.95390855
_cell_angle_alpha   90.00017848
_cell_angle_beta   89.99989533
_cell_angle_gamma   89.99929806
_symmetry_Int_Tables_number   1
_chemical_formula_structural   GaH5C8O5
_chemical_formula_sum   'Ga4 H20 C32 O20'
_cell_volume   1436.51089840
_cell_formula_units_Z   4
loop_
 _symmetry_equiv_pos_site_id
 _symmetry_equiv_pos_as_xyz
  1  'x, y, z'
loop_
 _atom_site_type_symbol
 _atom_site_label
 _atom_site_symmetry_multiplicity
 _atom_site_fract_x
 _atom_site_fract_y
 _atom_site_fract_z
 _atom_site_occupancy
 _atom_site_pbe_bader_charge
 _atom_site_pbe_bader_spin_density
 _atom_site_pbe_cm5_charge
 _atom_site_pbe_ddec_charge
 _atom_site_pbe_ddec_spin_density
 _atom_site_pbe_ddec_sum_bond_order
 _atom_site_pbe_magmom
Ga  Ga0  1  0.00000041  0.00000755  0.00000185  1  1.969008  0  0.584254  1.442575  0  2.799727  0
Ga  Ga1  1  0.00000092  0.49998824  0.49999804  1  1.96907  0  0.584263  1.442663  0  2.799829  0
Ga  Ga2  1  0.50000165  0.00000319  0.99999989  1  1.969043  0  0.584266  1.4426  0  2.799852  0
Ga  Ga3  1  0.49999453  0.49998477  0.50000064  1  1.969146  0  0.584234  1.442603  0  2.799775  0
H  H4  1  0.56435956  0.78325433  0.82044756  1  0.08253  0  0.105269  0.105848  0  1.014007  0
H  H5  1  0.43559984  0.28321454  0.67954575  1  0.079491  0  0.105247  0.105797  0  1.013636  0
H  H6  1  0.06439683  0.21677962  0.17953993  1  0.079428  0  0.105253  0.105862  0  1.01369  0
H  H7  1  0.93563361  0.71676477  0.32045372  1  0.082707  0  0.105205  0.105787  0  1.013965  0
H  H8  1  0.43563389  0.21681071  0.17953255  1  0.083007  0  0.105242  0.105895  0  1.013718  0
H  H9  1  0.56441267  0.71678058  0.32046332  1  0.079693  0  0.10526  0.105829  0  1.013456  0
H  H10  1  0.93557464  0.78321976  0.82047415  1  0.079231  0  0.105232  0.105797  0  1.013213  0
H  H11  1  0.06437303  0.28319879  0.67953920  1  0.082812  0  0.105245  0.105811  0  1.01388  0
H  H12  1  0.56425100  0.68070630  0.69714060  1  0.129021  0  0.109543  0.114948  0  1.002625  0
H  H13  1  0.43575454  0.18068074  0.80285250  1  0.132078  0  0.109568  0.114983  0  1.002903  0
H  H14  1  0.06425477  0.31929525  0.30285413  1  0.128871  0  0.109567  0.11502  0  1.002838  0
H  H15  1  0.93574272  0.81930538  0.19714529  1  0.128957  0  0.109551  0.11495  0  1.002669  0
H  H16  1  0.43575271  0.31934339  0.30284452  1  0.131112  0  0.109501  0.115001  0  1.002753  0
H  H17  1  0.56424478  0.81930670  0.19714989  1  0.131982  0  0.109572  0.115013  0  1.00298  0
H  H18  1  0.93575920  0.68069134  0.69716441  1  0.131543  0  0.1096  0.115084  0  1.00316  0
H  H19  1  0.06425660  0.18066500  0.80284985  1  0.128262  0  0.109519  0.114965  0  1.00283  0
H  H20  1  0.74999201  0.64818773  0.47739559  1  0.601894  0  0.337228  0.41503  0  0.871199  0
H  H21  1  0.24999592  0.14819711  0.02261129  1  0.601714  0  0.337194  0.41499  0  0.871217  0
H  H22  1  0.25000144  0.35180823  0.52261126  1  0.601765  0  0.337218  0.414974  0  0.871202  0
H  H23  1  0.75000487  0.85181506  0.97739778  1  0.601951  0  0.337253  0.41504  0  0.871209  0
C  C24  1  0.42774044  0.75941526  0.79329138  1  -0.097655  0  -0.079879  -0.091007  0  3.975266  0
C  C25  1  0.57227223  0.25939595  0.70670856  1  -0.097261  0  -0.079749  -0.090884  0  3.974389  0
C  C26  1  0.92773498  0.24060247  0.20670586  1  -0.097427  0  -0.079901  -0.091254  0  3.974611  0
C  C27  1  0.07227297  0.74059275  0.29329730  1  -0.097615  0  -0.079858  -0.090989  0  3.974969  0
C  C28  1  0.57228379  0.24061652  0.20669820  1  -0.097306  0  -0.079887  -0.091181  0  3.974993  0
C  C29  1  0.42772269  0.74060343  0.29329383  1  -0.097884  0  -0.079963  -0.09115  0  3.974146  0
C  C30  1  0.07226433  0.75938412  0.79328817  1  -0.097639  0  -0.079842  -0.09102  0  3.973696  0
C  C31  1  0.92772928  0.25939640  0.70669896  1  -0.097598  0  -0.079764  -0.090851  0  3.974864  0
C  C32  1  0.42786429  0.70317592  0.72511341  1  -0.007677  0  -0.078136  -0.089587  0  3.960821  0
C  C33  1  0.57209241  0.20313050  0.77488085  1  -0.007564  0  -0.078453  -0.089799  0  3.961731  0
C  C34  1  0.92791011  0.29684352  0.27488940  1  -0.007782  0  -0.078281  -0.089656  0  3.961696  0
C  C35  1  0.07212157  0.79684370  0.22511610  1  -0.007344  0  -0.078299  -0.089789  0  3.960942  0
C  C36  1  0.57211597  0.29687207  0.27487561  1  -0.007201  0  -0.078302  -0.089802  0  3.961204  0
C  C37  1  0.42790691  0.79685524  0.22511096  1  -0.007757  0  -0.078338  -0.089831  0  3.961554  0
C  C38  1  0.07208481  0.70314307  0.72510686  1  -0.00751  0  -0.078371  -0.089849  0  3.962041  0
C  C39  1  0.92789680  0.20312497  0.77487236  1  -0.007064  0  -0.078404  -0.089887  0  3.961125  0
C  C40  1  0.25001373  0.78801995  0.82782546  1  0.093096  0  -0.013064  -0.036668  0  3.963701  0
C  C41  1  0.75000712  0.28799239  0.67216396  1  0.092736  0  -0.01296  -0.036504  0  3.964236  0
C  C42  1  0.74999731  0.21199819  0.17216467  1  0.092075  0  -0.012831  -0.036172  0  3.964228  0
C  C43  1  0.24998780  0.71198652  0.32783676  1  0.092392  0  -0.012782  -0.036345  0  3.96419  0
C  C44  1  0.24999968  0.85396480  0.89902896  1  1.558529  0  0.255351  0.628086  0  4.112812  0
C  C45  1  0.75000218  0.35393775  0.60098119  1  1.558992  0  0.255307  0.628135  0  4.113615  0
C  C46  1  0.75000110  0.14605164  0.10097899  1  1.560045  0  0.255313  0.627956  0  4.113771  0
C  C47  1  0.25000153  0.64604031  0.39901785  1  1.558932  0  0.255261  0.628023  0  4.113258  0
C  C48  1  0.24996393  0.67515835  0.69054883  1  -0.101643  0  -0.007849  -0.024014  0  3.950362  0
C  C49  1  0.74998603  0.17514681  0.80944537  1  -0.102475  0  -0.007624  -0.02393  0  3.949992  0
C  C50  1  0.75002366  0.32484529  0.30944632  1  -0.102005  0  -0.007798  -0.024009  0  3.950398  0
C  C51  1  0.25001622  0.82484490  0.19054922  1  -0.102174  0  -0.007738  -0.023804  0  3.950233  0
C  C52  1  0.24998378  0.61545159  0.61678712  1  1.574364  0  0.248038  0.608986  0  4.145727  0
C  C53  1  0.74999236  0.11543016  0.88322980  1  1.573143  0  0.248156  0.608988  0  4.145354  0
C  C54  1  0.75001260  0.38456058  0.38322585  1  1.573684  0  0.248156  0.608912  0  4.14553  0
C  C55  1  0.25000256  0.88455984  0.11678094  1  1.574008  0  0.248159  0.609027  0  4.145561  0
O  O56  1  0.08336754  0.88008528  0.92640248  1  -1.179699  0  -0.261942  -0.56701  0  2.34037  0
O  O57  1  0.91658980  0.38008165  0.57360272  1  -1.180009  0  -0.261993  -0.567139  0  2.341097  0
O  O58  1  0.58339894  0.11993063  0.07360449  1  -1.180416  0  -0.26203  -0.567066  0  2.340954  0
O  O59  1  0.41661889  0.61990973  0.42639119  1  -1.179935  0  -0.261993  -0.567053  0  2.340298  0
O  O60  1  0.91662591  0.11991922  0.07360715  1  -1.180313  0  -0.262012  -0.567078  0  2.340446  0
O  O61  1  0.08338753  0.61991262  0.42639466  1  -1.179923  0  -0.262021  -0.567138  0  2.340361  0
O  O62  1  0.41662822  0.88009092  0.92640013  1  -1.179735  0  -0.261926  -0.567012  0  2.340397  0
O  O63  1  0.58339508  0.38008538  0.57360507  1  -1.180169  0  -0.262036  -0.567204  0  2.340518  0
O  O64  1  0.08275725  0.59304445  0.58881219  1  -1.176216  0  -0.260817  -0.559712  0  2.359771  0
O  O65  1  0.91726627  0.09303647  0.91119020  1  -1.175646  0  -0.260762  -0.559635  0  2.359972  0
O  O66  1  0.58274443  0.40695441  0.41118865  1  -1.175985  0  -0.260757  -0.559605  0  2.359933  0
O  O67  1  0.41726146  0.90695661  0.08881373  1  -1.175694  0  -0.260821  -0.559706  0  2.359791  0
O  O68  1  0.91726991  0.40695664  0.41118741  1  -1.175891  0  -0.260759  -0.559613  0  2.360117  0
O  O69  1  0.08274770  0.90694842  0.08881664  1  -1.176458  0  -0.260784  -0.559681  0  2.359743  0
O  O70  1  0.41721238  0.59305094  0.58881095  1  -1.176669  0  -0.260727  -0.559649  0  2.35961  0
O  O71  1  0.58272467  0.09304277  0.91118754  1  -1.175729  0  -0.260761  -0.559631  0  2.360087  0
O  O72  1  0.24999890  0.07817506  0.99363265  1  -1.194719  0  -0.471931  -0.860827  0  2.185249  0
O  O73  1  0.75000441  0.57816513  0.50637305  1  -1.194781  0  -0.471942  -0.860813  0  2.185068  0
O  O74  1  0.74998283  0.92183455  0.00637753  1  -1.194937  0  -0.472054  -0.860897  0  2.185188  0
O  O75  1  0.24999783  0.42182828  0.49363324  1  -1.194808  0  -0.471883  -0.860725  0  2.185418  0
