# generated using pymatgen
data_Zn2H25C22NO9
_symmetry_space_group_name_H-M   'P 1'
_cell_length_a   10.36829618
_cell_length_b   11.63322535
_cell_length_c   20.45140495
_cell_angle_alpha   90.00008484
_cell_angle_beta   90.00003282
_cell_angle_gamma   90.00007981
_symmetry_Int_Tables_number   1
_chemical_formula_structural   Zn2H25C22NO9
_chemical_formula_sum   'Zn8 H100 C88 N4 O36'
_cell_volume   2466.78150593
_cell_formula_units_Z   4
loop_
 _symmetry_equiv_pos_site_id
 _symmetry_equiv_pos_as_xyz
  1  'x, y, z'
loop_
 _atom_site_type_symbol
 _atom_site_label
 _atom_site_symmetry_multiplicity
 _atom_site_fract_x
 _atom_site_fract_y
 _atom_site_fract_z
 _atom_site_occupancy
 _atom_site_pbe_bader_charge
 _atom_site_pbe_bader_spin_density
 _atom_site_pbe_cm5_charge
 _atom_site_pbe_ddec_charge
 _atom_site_pbe_ddec_spin_density
 _atom_site_pbe_ddec_sum_bond_order
 _atom_site_pbe_magmom
Zn  Zn0  1  0.84551485  0.32693436  0.98756029  1  1.359874  0  0.684509  0.96198  0  2.300447  0
Zn  Zn1  1  0.65448538  0.67306374  0.48756248  1  1.359941  0  0.684502  0.961966  0  2.300466  0
Zn  Zn2  1  0.15448533  0.82693738  0.51243900  1  1.359755  0  0.68446  0.961876  0  2.300521  0
Zn  Zn3  1  0.34551496  0.17306316  0.01244034  1  1.359935  0  0.684484  0.961928  0  2.300447  0
Zn  Zn4  1  0.53395940  0.41903073  0.99231497  1  1.351021  0  0.682699  0.961942  0  2.283473  0
Zn  Zn5  1  0.96603891  0.58096910  0.49231620  1  1.351011  0  0.68269  0.961982  0  2.283417  0
Zn  Zn6  1  0.46603997  0.91903068  0.50768391  1  1.351044  0  0.682686  0.961915  0  2.283479  0
Zn  Zn7  1  0.03395936  0.08096898  0.00768313  1  1.351138  0  0.682698  0.961949  0  2.283483  0
H  H8  1  0.94481334  0.43389939  0.17163792  1  0.102684  0  0.105462  0.109969  0  1.022197  0
H  H9  1  0.55518654  0.56609960  0.67163877  1  0.102691  0  0.105472  0.109987  0  1.022155  0
H  H10  1  0.05518838  0.93390139  0.32836171  1  0.102702  0  0.105429  0.109925  0  1.022208  0
H  H11  1  0.44481420  0.06610168  0.82836225  1  0.102663  0  0.105471  0.109977  0  1.022166  0
H  H12  1  0.54614329  0.53034878  0.18972077  1  0.06333  0  0.100227  0.091105  0  1.061499  0
H  H13  1  0.95385661  0.46965026  0.68972166  1  0.063354  0  0.100249  0.091119  0  1.061528  0
H  H14  1  0.45385780  0.03035082  0.31027901  1  0.063302  0  0.100234  0.091115  0  1.061549  0
H  H15  1  0.04614380  0.96965134  0.81027922  1  0.063337  0  0.100231  0.091123  0  1.061486  0
H  H16  1  0.97961569  0.48139199  0.28991001  1  0.097867  0  0.107026  0.108501  0  1.013976  0
H  H17  1  0.52038240  0.51860645  0.78991131  1  0.097947  0  0.107056  0.108542  0  1.013926  0
H  H18  1  0.02038225  0.98139450  0.21008965  1  0.09796  0  0.107024  0.108484  0  1.013981  0
H  H19  1  0.47961731  0.01860655  0.71008968  1  0.097853  0  0.107031  0.108511  0  1.01399  0
H  H20  1  0.58180692  0.57778206  0.30800802  1  0.103761  0  0.108961  0.115476  0  1.011417  0
H  H21  1  0.91819504  0.42221901  0.80800935  1  0.10373  0  0.108961  0.115463  0  1.011409  0
H  H22  1  0.41819424  0.07778375  0.19199130  1  0.103729  0  0.108955  0.115491  0  1.011378  0
H  H23  1  0.08180626  0.92221725  0.69199198  1  0.103759  0  0.108959  0.115484  0  1.011398  0
H  H24  1  0.75412585  0.01665365  0.01125753  1  0.071899  0  0.102734  0.059005  0  0.99814  0
H  H25  1  0.74587288  0.98334665  0.51125684  1  0.071976  0  0.102726  0.05901  0  0.998158  0
H  H26  1  0.24587136  0.51665458  0.48874320  1  0.071991  0  0.102705  0.058972  0  0.998151  0
H  H27  1  0.25412755  0.48334547  0.98874307  1  0.071913  0  0.102708  0.058971  0  0.998119  0
H  H28  1  0.85412887  0.04672290  0.12103388  1  0.057248  0  0.090708  0.137515  0  1.024335  0
H  H29  1  0.64587096  0.95327768  0.62103314  1  0.057242  0  0.090732  0.137532  0  1.024378  0
H  H30  1  0.14586935  0.54672170  0.37896688  1  0.057211  0  0.090719  0.137514  0  1.024365  0
H  H31  1  0.35413039  0.45327806  0.87896724  1  0.057224  0  0.090722  0.137517  0  1.024383  0
H  H32  1  0.68174279  0.04817295  0.12608779  1  0.041903  0  0.087091  0.121262  0  1.027216  0
H  H33  1  0.81825704  0.95182936  0.62608709  1  0.041916  0  0.08712  0.121287  0  1.027192  0
H  H34  1  0.31825544  0.54817024  0.37391249  1  0.041926  0  0.087125  0.121306  0  1.027168  0
H  H35  1  0.18174430  0.45182951  0.87391279  1  0.041921  0  0.087116  0.121291  0  1.027187  0
H  H36  1  0.77088965  0.17951578  0.12963382  1  0.024  0  0.08808  0.130771  0  0.99828  0
H  H37  1  0.72910922  0.82048482  0.62963348  1  0.024  0  0.088077  0.13078  0  0.998282  0
H  H38  1  0.22910685  0.67951381  0.37036656  1  0.024032  0  0.08809  0.1308  0  0.99827  0
H  H39  1  0.27089289  0.32048508  0.87036630  1  0.024006  0  0.088078  0.130782  0  0.998258  0
H  H40  1  0.55476576  0.64115282  0.07927901  1  0.109849  0  0.120609  0.045813  0  1.016535  0
H  H41  1  0.94523595  0.35884765  0.57927932  1  0.109737  0  0.120606  0.045822  0  1.016588  0
H  H42  1  0.44523744  0.14115256  0.42072085  1  0.109731  0  0.120581  0.045799  0  1.016583  0
H  H43  1  0.05476429  0.85884731  0.92072049  1  0.109724  0  0.120614  0.045819  0  1.016518  0
H  H44  1  0.55644314  0.80783150  0.12259249  1  0.044792  0  0.107257  0.118248  0  1.000224  0
H  H45  1  0.94355669  0.19216822  0.62259265  1  0.044781  0  0.107256  0.118246  0  1.000223  0
H  H46  1  0.44355838  0.30783199  0.37740703  1  0.044807  0  0.107269  0.118282  0  1.000205  0
H  H47  1  0.05644329  0.69216777  0.87740750  1  0.044791  0  0.107269  0.118276  0  1.000195  0
H  H48  1  0.39782021  0.86720445  0.12633698  1  0.064953  0  0.100674  0.115758  0  1.02805  0
H  H49  1  0.10217925  0.13279552  0.62633699  1  0.064951  0  0.100678  0.115751  0  1.02808  0
H  H50  1  0.60218044  0.36720513  0.37366259  1  0.064924  0  0.100681  0.115763  0  1.028099  0
H  H51  1  0.89781967  0.63279439  0.87366262  1  0.064933  0  0.100687  0.115755  0  1.028098  0
H  H52  1  0.51295776  0.92833539  0.07192755  1  0.096438  0  0.106173  0.132622  0  1.019977  0
H  H53  1  0.98704298  0.07166592  0.57192714  1  0.096463  0  0.106189  0.132632  0  1.019968  0
H  H54  1  0.48704299  0.42833349  0.42807304  1  0.09645  0  0.106196  0.132646  0  1.019947  0
H  H55  1  0.01295585  0.57166555  0.92807291  1  0.096435  0  0.106193  0.13264  0  1.019965  0
H  H56  1  0.32318055  0.73952895  0.96095194  1  0.101878  0  0.111826  0.132716  0  0.991813  0
H  H57  1  0.17681929  0.26047275  0.46095282  1  0.101878  0  0.111822  0.132699  0  0.991823  0
H  H58  1  0.67682047  0.23952713  0.53904727  1  0.101881  0  0.111789  0.132643  0  0.991865  0
H  H59  1  0.82318023  0.76047324  0.03904715  1  0.101886  0  0.111762  0.132623  0  0.99187  0
H  H60  1  0.37442631  0.88609110  0.97175029  1  0.102688  0  0.106077  0.128475  0  1.016362  0
H  H61  1  0.12557354  0.11391063  0.47175103  1  0.102713  0  0.106073  0.128489  0  1.016386  0
H  H62  1  0.62557397  0.38608919  0.52824905  1  0.10272  0  0.106069  0.128468  0  1.016394  0
H  H63  1  0.87442575  0.61391115  0.02824832  1  0.102726  0  0.106063  0.128483  0  1.016404  0
H  H64  1  0.25175948  0.82818925  0.02309073  1  0.060752  0  0.103225  0.115339  0  1.007641  0
H  H65  1  0.24824179  0.17181217  0.52309131  1  0.06074  0  0.103222  0.11533  0  1.007663  0
H  H66  1  0.74824304  0.32818866  0.47690880  1  0.060718  0  0.103207  0.115319  0  1.007655  0
H  H67  1  0.75175815  0.67181199  0.97690834  1  0.06073  0  0.103199  0.115335  0  1.007629  0
H  H68  1  0.95582398  0.13641615  0.85350635  1  0.609656  0  0.293733  0.331341  0  0.974057  0
H  H69  1  0.54417707  0.86358245  0.35350623  1  0.609662  0  0.293756  0.331331  0  0.974075  0
H  H70  1  0.04417688  0.63641766  0.64649376  1  0.609667  0  0.29377  0.331346  0  0.974036  0
H  H71  1  0.45582164  0.36358064  0.14649382  1  0.609695  0  0.293787  0.331391  0  0.973981  0
H  H72  1  0.85271402  0.88308419  0.73891110  1  0.057654  0  0.098482  0.097483  0  1.023055  0
H  H73  1  0.64728594  0.11691326  0.23891136  1  0.057658  0  0.098482  0.097517  0  1.02299  0
H  H74  1  0.14728433  0.38308659  0.76108873  1  0.057653  0  0.098481  0.097514  0  1.022979  0
H  H75  1  0.35271528  0.61691545  0.26108800  1  0.05767  0  0.098457  0.097476  0  1.023067  0
H  H76  1  0.74313660  0.71178517  0.78449517  1  0.073025  0  0.09187  0.085934  0  1.054564  0
H  H77  1  0.75686437  0.28821240  0.28449511  1  0.073084  0  0.09188  0.085945  0  1.054551  0
H  H78  1  0.25686244  0.21178758  0.71550500  1  0.073079  0  0.091861  0.08591  0  1.054575  0
H  H79  1  0.24313615  0.78821348  0.21550439  1  0.073051  0  0.091873  0.085951  0  1.054562  0
H  H80  1  0.60453337  0.72971317  0.88355925  1  0.058025  0  0.096497  0.09712  0  1.012649  0
H  H81  1  0.89546771  0.27028551  0.38355873  1  0.058043  0  0.096502  0.097122  0  1.012665  0
H  H82  1  0.39546473  0.22971464  0.61644093  1  0.058167  0  0.096502  0.097127  0  1.012636  0
H  H83  1  0.10453279  0.77028616  0.11644124  1  0.058037  0  0.096542  0.097188  0  1.01268  0
H  H84  1  0.57991717  0.92206830  0.93739524  1  0.044674  0  0.096694  0.092528  0  1.031837  0
H  H85  1  0.92008398  0.07793052  0.43739554  1  0.044642  0  0.096698  0.092503  0  1.031825  0
H  H86  1  0.42008124  0.42206795  0.56260364  1  0.044631  0  0.096661  0.092515  0  1.031714  0
H  H87  1  0.07991622  0.57793186  0.06260427  1  0.04464  0  0.096707  0.092522  0  1.031782  0
H  H88  1  0.68917553  0.09334199  0.89056976  1  0.087296  0  0.10263  0.108005  0  1.015858  0
H  H89  1  0.81082364  0.90665671  0.39057073  1  0.087265  0  0.102623  0.107994  0  1.015883  0
H  H90  1  0.31082430  0.59334288  0.60942933  1  0.087264  0  0.102623  0.108013  0  1.015863  0
H  H91  1  0.18917418  0.40665704  0.10942936  1  0.087254  0  0.102628  0.108  0  1.015872  0
H  H92  1  0.90865508  0.07742116  0.74434463  1  0.026803  0  0.088802  0.019057  0  0.996448  0
H  H93  1  0.59134585  0.92257888  0.24434457  1  0.026808  0  0.088799  0.019043  0  0.996496  0
H  H94  1  0.09134665  0.57742216  0.75565494  1  0.02683  0  0.088785  0.019016  0  0.996503  0
H  H95  1  0.40865392  0.42257815  0.25565456  1  0.026833  0  0.088791  0.01904  0  0.996472  0
H  H96  1  0.77631909  0.25145619  0.72084214  1  0.025016  0  0.08356  0.122484  0  1.030621  0
H  H97  1  0.72368181  0.74854293  0.22084246  1  0.025003  0  0.083563  0.122498  0  1.030647  0
H  H98  1  0.22368291  0.75145483  0.77915758  1  0.025031  0  0.083568  0.122516  0  1.030609  0
H  H99  1  0.27631673  0.24854382  0.27915798  1  0.025014  0  0.083566  0.122501  0  1.030642  0
H  H100  1  0.65787436  0.20475805  0.77787144  1  0.045943  0  0.091909  0.134277  0  0.991731  0
H  H101  1  0.84212564  0.79524122  0.27787232  1  0.045886  0  0.091924  0.13432  0  0.991745  0
H  H102  1  0.34212660  0.70475927  0.72212775  1  0.0459  0  0.091924  0.134297  0  0.991724  0
H  H103  1  0.15787297  0.29524095  0.22212816  1  0.0459  0  0.091924  0.134302  0  0.991728  0
H  H104  1  0.68797081  0.12224517  0.70599126  1  0.024859  0  0.08751  0.121102  0  1.019901  0
H  H105  1  0.81203104  0.87775476  0.20599220  1  0.024863  0  0.087511  0.121106  0  1.019939  0
H  H106  1  0.31203195  0.62224483  0.79400786  1  0.02486  0  0.087518  0.1211  0  1.019907  0
H  H107  1  0.18796770  0.37775386  0.29400835  1  0.024855  0  0.08751  0.121094  0  1.01992  0
C  C108  1  0.72003481  0.44250211  0.10450411  1  1.553198  0  0.220723  0.592427  0  4.175533  0
C  C109  1  0.77996403  0.55749326  0.60450552  1  1.553106  0  0.22074  0.592469  0  4.17551  0
C  C110  1  0.27996596  0.94250800  0.39549552  1  1.553284  0  0.220735  0.592382  0  4.175654  0
C  C111  1  0.22003574  0.05749696  0.89549599  1  1.553186  0  0.220748  0.59245  0  4.175562  0
C  C112  1  0.74234037  0.47535983  0.17426755  1  -0.09918  0  -0.019575  -0.044829  0  3.981764  0
C  C113  1  0.75765951  0.52463745  0.67426892  1  -0.099167  0  -0.019578  -0.044857  0  3.981909  0
C  C114  1  0.25766045  0.97536379  0.32573162  1  -0.099546  0  -0.019585  -0.044808  0  3.981942  0
C  C115  1  0.24234117  0.02463928  0.82573305  1  -0.099193  0  -0.019561  -0.044772  0  3.981678  0
C  C116  1  0.86548405  0.46403032  0.20201383  1  -0.018676  0  -0.079085  -0.086298  0  3.950429  0
C  C117  1  0.63451587  0.53597047  0.70201419  1  -0.018657  0  -0.079067  -0.08628  0  3.950283  0
C  C118  1  0.13451772  0.96402890  0.29798631  1  -0.018302  0  -0.079067  -0.086299  0  3.950274  0
C  C119  1  0.36548386  0.03597065  0.79798681  1  -0.018673  0  -0.079087  -0.086318  0  3.9503  0
C  C120  1  0.64012498  0.51731980  0.21227375  1  -0.029198  0  -0.087911  -0.111379  0  4.00358  0
C  C121  1  0.85987591  0.48267843  0.71227560  1  -0.029075  0  -0.087933  -0.111393  0  4.003681  0
C  C122  1  0.35987608  0.01732425  0.28772504  1  -0.028834  0  -0.087948  -0.111442  0  4.003711  0
C  C123  1  0.14012549  0.98268043  0.78772627  1  -0.02917  0  -0.087933  -0.11143  0  4.003559  0
C  C124  1  0.88473413  0.49055617  0.26766801  1  -0.013627  0  -0.07523  -0.083916  0  3.94718  0
C  C125  1  0.61526586  0.50944479  0.76766932  1  -0.013722  0  -0.075261  -0.083964  0  3.947058  0
C  C126  1  0.11526575  0.99055713  0.23233117  1  -0.014067  0  -0.075181  -0.083849  0  3.946986  0
C  C127  1  0.38473480  0.00944397  0.73233165  1  -0.01359  0  -0.07525  -0.08397  0  3.947152  0
C  C128  1  0.65918025  0.54328432  0.27782916  1  -0.034417  0  -0.078339  -0.089339  0  3.970176  0
C  C129  1  0.84082072  0.45671666  0.77783001  1  -0.03437  0  -0.078369  -0.089328  0  3.970205  0
C  C130  1  0.34081990  0.04328600  0.22217013  1  -0.034423  0  -0.078346  -0.089418  0  3.970104  0
C  C131  1  0.15918064  0.95671594  0.72217135  1  -0.034375  0  -0.078346  -0.089378  0  3.9702  0
C  C132  1  0.78114532  0.52813730  0.30617099  1  -0.030378  0  -0.011079  -0.033202  0  3.954361  0
C  C133  1  0.71885471  0.47186118  0.80617132  1  -0.030434  0  -0.01107  -0.033212  0  3.954391  0
C  C134  1  0.21885287  0.02813962  0.19382927  1  -0.030388  0  -0.01105  -0.033046  0  3.954339  0
C  C135  1  0.28114474  0.97186225  0.69382907  1  -0.030229  0  -0.011064  -0.03311  0  3.954437  0
C  C136  1  0.79741131  0.55246600  0.37757685  1  1.587292  0  0.223068  0.594729  0  4.18032  0
C  C137  1  0.70258880  0.44753696  0.87757716  1  1.587298  0  0.223122  0.594718  0  4.180417  0
C  C138  1  0.20259077  0.05246639  0.12242391  1  1.587361  0  0.223041  0.594587  0  4.180596  0
C  C139  1  0.29740965  0.94753271  0.62242516  1  1.587037  0  0.223017  0.59453  0  4.180556  0
C  C140  1  0.63575358  0.16585467  0.01341098  1  1.552284  0  0.222695  0.589654  0  4.09641  0
C  C141  1  0.86424998  0.83414562  0.51341019  1  1.552272  0  0.222693  0.589851  0  4.096234  0
C  C142  1  0.36424868  0.66585489  0.48659038  1  1.552246  0  0.222664  0.589737  0  4.096266  0
C  C143  1  0.13575311  0.33414344  0.98658959  1  1.552295  0  0.222606  0.589602  0  4.096498  0
C  C144  1  0.75983468  0.10374045  0.03241749  1  0.501434  0  -0.021053  0.132176  0  3.969723  0
C  C145  1  0.74016504  0.89625990  0.53241721  1  0.501399  0  -0.021062  0.132068  0  3.96977  0
C  C146  1  0.24016363  0.60374132  0.46758332  1  0.501411  0  -0.021055  0.132136  0  3.969725  0
C  C147  1  0.25983525  0.39625782  0.96758263  1  0.501454  0  -0.020997  0.13223  0  3.969607  0
C  C148  1  0.76657064  0.09375879  0.10716540  1  -0.07765  0  -0.250274  -0.420646  0  3.907924  0
C  C149  1  0.73342724  0.90624089  0.60716513  1  -0.077657  0  -0.250327  -0.42069  0  3.908  0
C  C150  1  0.23342669  0.59375774  0.39283540  1  -0.077674  0  -0.250315  -0.420704  0  3.907922  0
C  C151  1  0.26657307  0.40624206  0.89283471  1  -0.077676  0  -0.250327  -0.42072  0  3.907939  0
C  C152  1  0.48520466  0.66155119  0.04018928  1  1.364809  0  0.176003  0.29602  0  4.109047  0
C  C153  1  0.01479760  0.33845027  0.54018993  1  1.364915  0  0.176013  0.296011  0  4.109174  0
C  C154  1  0.51479664  0.16154769  0.45980914  1  1.364883  0  0.176045  0.296064  0  4.109012  0
C  C155  1  0.98520357  0.83845033  0.95980937  1  1.364893  0  0.176041  0.296038  0  4.10887  0
C  C156  1  0.47905628  0.84750657  0.09379838  1  0.280097  0  -0.134326  -0.284491  0  3.892663  0
C  C157  1  0.02094411  0.15249332  0.59379839  1  0.280098  0  -0.134347  -0.284492  0  3.892701  0
C  C158  1  0.52094627  0.34750551  0.40620166  1  0.280119  0  -0.13438  -0.284579  0  3.892765  0
C  C159  1  0.97905484  0.65249323  0.90620173  1  0.280123  0  -0.134357  -0.284527  0  3.892715  0
C  C160  1  0.34122794  0.80785055  0.99662434  1  0.217613  0  -0.133028  -0.272113  0  3.868704  0
C  C161  1  0.15877290  0.19215038  0.49662515  1  0.217605  0  -0.13302  -0.272122  0  3.868829  0
C  C162  1  0.65877414  0.30785034  0.50337444  1  0.217453  0  -0.132966  -0.272013  0  3.868813  0
C  C163  1  0.84122651  0.69214907  0.00337427  1  0.217461  0  -0.13294  -0.272042  0  3.868793  0
C  C164  1  0.77675471  0.99991942  0.81136875  1  -0.018355  0  -0.02024  0.027849  0  3.962436  0
C  C165  1  0.72324437  0.00007908  0.31136991  1  -0.018342  0  -0.020219  0.027931  0  3.962407  0
C  C166  1  0.22324479  0.49992000  0.68862971  1  -0.018334  0  -0.020186  0.027929  0  3.962457  0
C  C167  1  0.27675282  0.50007927  0.18862983  1  -0.018327  0  -0.020191  0.027933  0  3.96245  0
C  C168  1  0.79265211  0.89170434  0.78250174  1  -0.094045  0  -0.097529  -0.138986  0  3.992047  0
C  C169  1  0.70734694  0.10829236  0.28250201  1  -0.094092  0  -0.09759  -0.139082  0  3.991979  0
C  C170  1  0.20734625  0.39170584  0.71749760  1  -0.09408  0  -0.097561  -0.139043  0  3.99195  0
C  C171  1  0.29265235  0.60829436  0.21749734  1  -0.094051  0  -0.097561  -0.139024  0  3.992093  0
C  C172  1  0.73117521  0.79491605  0.80826912  1  -0.076531  0  -0.098639  -0.080143  0  4.031061  0
C  C173  1  0.76882482  0.20508158  0.30826900  1  -0.076487  0  -0.098595  -0.080131  0  4.030979  0
C  C174  1  0.26882300  0.29491756  0.69173015  1  -0.076522  0  -0.098614  -0.080138  0  4.031014  0
C  C175  1  0.23117558  0.70508344  0.19172995  1  -0.07651  0  -0.098642  -0.08022  0  4.031159  0
C  C176  1  0.65390894  0.80510671  0.86392934  1  -0.039541  0  -0.10022  -0.098872  0  4.018947  0
C  C177  1  0.84609212  0.19489192  0.36392924  1  -0.039515  0  -0.100215  -0.098853  0  4.018895  0
C  C178  1  0.34608928  0.30510731  0.63606993  1  -0.039665  0  -0.100214  -0.09883  0  4.018871  0
C  C179  1  0.15390730  0.69489268  0.13607018  1  -0.039554  0  -0.100229  -0.098895  0  4.019012  0
C  C180  1  0.63978522  0.91250860  0.89389359  1  -0.075626  0  -0.09641  -0.08565  0  4.024109  0
C  C181  1  0.86021395  0.08748925  0.39389437  1  -0.07561  0  -0.096426  -0.08562  0  4.024021  0
C  C182  1  0.36021125  0.41250914  0.60610577  1  -0.075591  0  -0.096394  -0.085635  0  4.023999  0
C  C183  1  0.13978433  0.58748992  0.10610594  1  -0.07552  0  -0.096434  -0.085616  0  4.024003  0
C  C184  1  0.70049167  0.00920365  0.86771115  1  -0.046793  0  -0.092198  -0.121777  0  3.960189  0
C  C185  1  0.79950746  0.99079499  0.36771170  1  -0.046839  0  -0.092205  -0.12182  0  3.960227  0
C  C186  1  0.29950705  0.50920287  0.63228787  1  -0.046806  0  -0.09221  -0.121855  0  3.960341  0
C  C187  1  0.20049049  0.49079626  0.13228846  1  -0.046925  0  -0.092197  -0.121805  0  3.960174  0
C  C188  1  0.83551485  0.10613547  0.78026441  1  0.477317  0  -0.005126  0.225696  0  3.934667  0
C  C189  1  0.66448323  0.89386380  0.28026484  1  0.477318  0  -0.005149  0.22566  0  3.934666  0
C  C190  1  0.16448499  0.60613560  0.71973518  1  0.477321  0  -0.005162  0.225674  0  3.934671  0
C  C191  1  0.33551361  0.39386461  0.21973524  1  0.477137  0  -0.00514  0.225677  0  3.934745  0
C  C192  1  0.73320299  0.17549532  0.74393733  1  -0.053539  0  -0.245719  -0.417655  0  3.911542  0
C  C193  1  0.76679794  0.82450386  0.24393773  1  -0.053465  0  -0.24577  -0.417774  0  3.911633  0
C  C194  1  0.26679985  0.67549567  0.75606183  1  -0.053518  0  -0.245743  -0.417712  0  3.911518  0
C  C195  1  0.23319975  0.32450378  0.25606229  1  -0.053329  0  -0.245762  -0.417724  0  3.911561  0
N  N196  1  0.43845164  0.76817078  0.04273633  1  -1.227662  0  -0.2775  0.038096  0  3.729062  0
N  N197  1  0.06154966  0.23183069  0.54273739  1  -1.227662  0  -0.277494  0.038128  0  3.729131  0
N  N198  1  0.56155078  0.26816819  0.45726267  1  -1.227477  0  -0.27746  0.038143  0  3.729163  0
N  N199  1  0.93845038  0.73183154  0.95726231  1  -1.227501  0  -0.277477  0.038146  0  3.729088  0
O  O200  1  0.81880414  0.42209678  0.06978621  1  -1.186778  0  -0.309147  -0.556967  0  2.37545  0
O  O201  1  0.68119466  0.57789765  0.56978711  1  -1.186733  0  -0.309132  -0.557002  0  2.375413  0
O  O202  1  0.18119660  0.92210264  0.43021340  1  -1.186704  0  -0.309074  -0.556871  0  2.375469  0
O  O203  1  0.31880321  0.07790242  0.93021441  1  -1.186771  0  -0.309124  -0.55695  0  2.375507  0
O  O204  1  0.60220637  0.43837934  0.08508294  1  -1.171091  0  -0.311279  -0.571634  0  2.366866  0
O  O205  1  0.89779244  0.56161685  0.58508340  1  -1.17108  0  -0.311267  -0.571593  0  2.366847  0
O  O206  1  0.39779439  0.93838457  0.41491669  1  -1.171123  0  -0.311292  -0.571584  0  2.366857  0
O  O207  1  0.10220636  0.06161787  0.91491665  1  -1.171098  0  -0.311287  -0.571621  0  2.366868  0
O  O208  1  0.91006628  0.54033705  0.40173266  1  -1.169184  0  -0.312162  -0.553088  0  2.364712  0
O  O209  1  0.58993193  0.45966512  0.90173393  1  -1.169315  0  -0.312222  -0.553117  0  2.364775  0
O  O210  1  0.08993579  0.04033809  0.09826565  1  -1.169345  0  -0.31214  -0.553027  0  2.364741  0
O  O211  1  0.41006653  0.95965751  0.59826645  1  -1.16928  0  -0.312117  -0.552956  0  2.364667  0
O  O212  1  0.69598292  0.58008858  0.40849013  1  -1.181545  0  -0.31198  -0.554548  0  2.422944  0
O  O213  1  0.80401722  0.41991704  0.90849191  1  -1.181556  0  -0.311982  -0.554519  0  2.422958  0
O  O214  1  0.30401921  0.08008730  0.09151066  1  -1.181588  0  -0.312  -0.554552  0  2.423053  0
O  O215  1  0.19598118  0.91991516  0.59151039  1  -1.18145  0  -0.311995  -0.554499  0  2.422988  0
O  O216  1  0.64735399  0.26563653  0.98783014  1  -1.194227  0  -0.309847  -0.577198  0  2.48316  0
O  O217  1  0.85264721  0.73436500  0.48783147  1  -1.1943  0  -0.309868  -0.577292  0  2.483334  0
O  O218  1  0.35264610  0.76563636  0.51216959  1  -1.194237  0  -0.309823  -0.577209  0  2.483302  0
O  O219  1  0.14735323  0.23436331  0.01216994  1  -1.194264  0  -0.309779  -0.577134  0  2.483289  0
O  O220  1  0.53037751  0.11537851  0.02505073  1  -1.174761  0  -0.302022  -0.519674  0  2.330961  0
O  O221  1  0.96962703  0.88462526  0.52504855  1  -1.174781  0  -0.301985  -0.519731  0  2.330731  0
O  O222  1  0.46962564  0.61537711  0.47495156  1  -1.174708  0  -0.301999  -0.519706  0  2.330809  0
O  O223  1  0.03037710  0.38462033  0.97494981  1  -1.174738  0  -0.302015  -0.519696  0  2.33098  0
O  O224  1  0.86877354  0.16161695  0.00674545  1  -1.145202  0  -0.401864  -0.625081  0  2.478932  0
O  O225  1  0.63122616  0.83838247  0.50674509  1  -1.14519  0  -0.401847  -0.625028  0  2.478931  0
O  O226  1  0.13122583  0.66161861  0.49325492  1  -1.145284  0  -0.401844  -0.625051  0  2.478997  0
O  O227  1  0.36877501  0.33838231  0.99325421  1  -1.145149  0  -0.401862  -0.625032  0  2.478901  0
O  O228  1  0.45505650  0.58862596  0.99756405  1  -1.158509  0  -0.29766  -0.460217  0  2.392613  0
O  O229  1  0.04494723  0.41137498  0.49756551  1  -1.158523  0  -0.297663  -0.460225  0  2.392642  0
O  O230  1  0.54494717  0.08862474  0.50243504  1  -1.158528  0  -0.297694  -0.460263  0  2.392541  0
O  O231  1  0.95505445  0.91137467  0.00243507  1  -1.158504  0  -0.297723  -0.460274  0  2.392463  0
O  O232  1  0.89461336  0.18113454  0.82725242  1  -1.125418  0  -0.408084  -0.50479  0  2.201145  0
O  O233  1  0.60538573  0.81886399  0.32725228  1  -1.125451  0  -0.408045  -0.504688  0  2.201115  0
O  O234  1  0.10538756  0.68113534  0.67274675  1  -1.125449  0  -0.408085  -0.504737  0  2.201105  0
O  O235  1  0.39461002  0.31886389  0.17274725  1  -1.125461  0  -0.408107  -0.504793  0  2.201103  0
