# generated using pymatgen
data_CdH7C9(NO)3
_symmetry_space_group_name_H-M   'P 1'
_cell_length_a   5.82665465
_cell_length_b   20.86378413
_cell_length_c   20.86322443
_cell_angle_alpha   89.99686900
_cell_angle_beta   89.99999153
_cell_angle_gamma   90.00132755
_symmetry_Int_Tables_number   1
_chemical_formula_structural   CdH7C9(NO)3
_chemical_formula_sum   'Cd8 H56 C72 N24 O24'
_cell_volume   2536.26008963
_cell_formula_units_Z   8
loop_
 _symmetry_equiv_pos_site_id
 _symmetry_equiv_pos_as_xyz
  1  'x, y, z'
loop_
 _atom_site_type_symbol
 _atom_site_label
 _atom_site_symmetry_multiplicity
 _atom_site_fract_x
 _atom_site_fract_y
 _atom_site_fract_z
 _atom_site_occupancy
 _atom_site_pbe_bader_charge
 _atom_site_pbe_bader_spin_density
 _atom_site_pbe_cm5_charge
 _atom_site_pbe_ddec_charge
 _atom_site_pbe_ddec_spin_density
 _atom_site_pbe_ddec_sum_bond_order
 _atom_site_pbe_magmom
Cd  Cd0  1  0.99013871  0.26614024  0.66908267  1  1.25823  0  0.719727  0.978755  0  2.160589  0
Cd  Cd1  1  0.99012679  0.23386702  0.83091923  1  1.258247  0  0.719733  0.978784  0  2.160565  0
Cd  Cd2  1  0.49012961  0.33092163  0.76614063  1  1.258255  0  0.719721  0.978812  0  2.160541  0
Cd  Cd3  1  0.49014870  0.16908398  0.73386341  1  1.258229  0  0.719706  0.978756  0  2.160549  0
Cd  Cd4  1  0.00986529  0.73386455  0.33091884  1  1.258202  0  0.71976  0.978887  0  2.160437  0
Cd  Cd5  1  0.00986004  0.76614352  0.16907940  1  1.258199  0  0.719757  0.978826  0  2.160562  0
Cd  Cd6  1  0.50986581  0.66908076  0.23386135  1  1.258093  0  0.719701  0.97876  0  2.160557  0
Cd  Cd7  1  0.50986560  0.83091697  0.26613906  1  1.258244  0  0.719715  0.978798  0  2.160497  0
H  H8  1  0.01760961  0.14738437  0.72498249  1  0.63386  0  0.264796  0.363738  0  0.995901  0
H  H9  1  0.01758781  0.35262769  0.77501550  1  0.633858  0  0.264723  0.363534  0  0.996169  0
H  H10  1  0.51759032  0.27501416  0.64737861  1  0.633869  0  0.26477  0.363602  0  0.996097  0
H  H11  1  0.51759086  0.22498709  0.85262730  1  0.633856  0  0.264755  0.363536  0  0.996173  0
H  H12  1  0.98241671  0.85262426  0.27501327  1  0.633823  0  0.264781  0.363634  0  0.996028  0
H  H13  1  0.98240074  0.64737901  0.22498073  1  0.633953  0  0.264719  0.363568  0  0.996132  0
H  H14  1  0.48240339  0.72497960  0.35262337  1  0.633891  0  0.264736  0.363541  0  0.996147  0
H  H15  1  0.48241314  0.77501674  0.14737516  1  0.633821  0  0.264735  0.363543  0  0.996154  0
H  H16  1  0.89223439  0.99364848  0.33151251  1  0.101053  0  0.105761  0.107821  0  1.017583  0
H  H17  1  0.89221198  0.50634438  0.16849839  1  0.100705  0  0.105812  0.108006  0  1.017465  0
H  H18  1  0.39221725  0.66848340  0.49365159  1  0.101042  0  0.105749  0.107801  0  1.017667  0
H  H19  1  0.39215612  0.83151690  0.00632933  1  0.101034  0  0.105771  0.107887  0  1.017618  0
H  H20  1  0.10781081  0.00636062  0.66848804  1  0.100687  0  0.105862  0.107937  0  1.017496  0
H  H21  1  0.10778172  0.49364268  0.83152133  1  0.101133  0  0.105774  0.107812  0  1.017563  0
H  H22  1  0.60777302  0.33150940  0.50632595  1  0.101097  0  0.105728  0.107807  0  1.017533  0
H  H23  1  0.60777408  0.16848357  0.99365875  1  0.101025  0  0.105725  0.107733  0  1.017667  0
H  H24  1  0.54215783  0.99370949  0.42818621  1  0.103851  0  0.101376  0.098173  0  1.050863  0
H  H25  1  0.54214236  0.50628532  0.07182278  1  0.104155  0  0.101394  0.098233  0  1.050681  0
H  H26  1  0.04216697  0.57182814  0.49369965  1  0.103942  0  0.101376  0.09821  0  1.050763  0
H  H27  1  0.04211513  0.92815687  0.00630189  1  0.103848  0  0.101366  0.098148  0  1.050497  0
H  H28  1  0.45789251  0.00630824  0.57181290  1  0.103857  0  0.101361  0.098169  0  1.050569  0
H  H29  1  0.45786336  0.49369023  0.92819837  1  0.10404  0  0.101337  0.098118  0  1.050885  0
H  H30  1  0.95785591  0.42817953  0.50630281  1  0.103964  0  0.101373  0.098184  0  1.050861  0
H  H31  1  0.95785454  0.07182203  0.99368667  1  0.104111  0  0.101381  0.098193  0  1.050884  0
H  H32  1  0.41437318  0.08339523  0.49755835  1  0.098078  0  0.106309  0.109295  0  1.043819  0
H  H33  1  0.41434660  0.41660572  0.00245032  1  0.098238  0  0.106329  0.109306  0  1.043854  0
H  H34  1  0.91437879  0.50245334  0.58338446  1  0.098547  0  0.106367  0.109341  0  1.043886  0
H  H35  1  0.91438104  0.99754186  0.91661948  1  0.09864  0  0.10635  0.109252  0  1.043999  0
H  H36  1  0.58565828  0.91662202  0.50244028  1  0.098379  0  0.106287  0.109282  0  1.044033  0
H  H37  1  0.58562994  0.58337415  0.99757323  1  0.098516  0  0.106285  0.109187  0  1.043972  0
H  H38  1  0.08559776  0.49755576  0.41661944  1  0.098433  0  0.106405  0.109365  0  1.043777  0
H  H39  1  0.08561095  0.00243849  0.08336524  1  0.098574  0  0.106383  0.109201  0  1.044075  0
H  H40  1  0.76055562  0.08392616  0.40101070  1  0.121328  0  0.110997  0.121061  0  1.021686  0
H  H41  1  0.76052886  0.41606565  0.09899797  1  0.120987  0  0.110908  0.120937  0  1.021736  0
H  H42  1  0.26054598  0.59897848  0.58392713  1  0.1213  0  0.110959  0.12106  0  1.021675  0
H  H43  1  0.26052522  0.90101864  0.91605855  1  0.120825  0  0.110924  0.121001  0  1.021645  0
H  H44  1  0.23949300  0.91608534  0.59898457  1  0.121218  0  0.11091  0.121166  0  1.021486  0
H  H45  1  0.23944596  0.58392140  0.90101983  1  0.121378  0  0.110888  0.121047  0  1.021599  0
H  H46  1  0.73944086  0.40102247  0.41605999  1  0.120922  0  0.11093  0.12092  0  1.021606  0
H  H47  1  0.73943587  0.09897992  0.08392905  1  0.121094  0  0.110946  0.121021  0  1.021711  0
H  H48  1  0.60588638  0.22983371  0.54586680  1  0.183578  0  0.133667  0.110196  0  1.018538  0
H  H49  1  0.60587639  0.27015687  0.95413947  1  0.183436  0  0.133649  0.110166  0  1.01862  0
H  H50  1  0.10588590  0.45413625  0.72983692  1  0.183637  0  0.133653  0.11014  0  1.018476  0
H  H51  1  0.10587767  0.04586466  0.77016574  1  0.183585  0  0.133665  0.110146  0  1.018567  0
H  H52  1  0.39414165  0.77017635  0.45413374  1  0.183572  0  0.133677  0.110154  0  1.018584  0
H  H53  1  0.39410701  0.72983019  0.04587114  1  0.183608  0  0.133628  0.110118  0  1.01867  0
H  H54  1  0.89415071  0.54587238  0.27017321  1  0.183452  0  0.133678  0.110126  0  1.018626  0
H  H55  1  0.89407999  0.95412335  0.22982666  1  0.183765  0  0.133691  0.110243  0  1.018571  0
H  H56  1  0.23300349  0.13444508  0.57725565  1  0.21196  0  0.143779  0.127925  0  1.007521  0
H  H57  1  0.23297285  0.36555995  0.92274731  1  0.211818  0  0.143729  0.127923  0  1.007458  0
H  H58  1  0.73300706  0.42274414  0.63444098  1  0.211631  0  0.143788  0.127921  0  1.007399  0
H  H59  1  0.73300453  0.07726207  0.86556080  1  0.212254  0  0.14374  0.127949  0  1.007428  0
H  H60  1  0.76701939  0.86556115  0.42274154  1  0.21174  0  0.14371  0.127917  0  1.007444  0
H  H61  1  0.76701055  0.63443286  0.07726905  1  0.2128  0  0.143769  0.127983  0  1.007405  0
H  H62  1  0.26700381  0.57726784  0.36555813  1  0.212531  0  0.143799  0.12795  0  1.007426  0
H  H63  1  0.26697030  0.92273314  0.13442345  1  0.212373  0  0.143818  0.128023  0  1.007252  0
C  C64  1  0.30403349  0.93097791  0.33725481  1  1.552709  0  0.194137  0.564813  0  4.229876  0
C  C65  1  0.30402429  0.56901342  0.16275595  1  1.553641  0  0.194149  0.564896  0  4.229848  0
C  C66  1  0.80403568  0.66275150  0.43097988  1  1.552846  0  0.194085  0.56474  0  4.229949  0
C  C67  1  0.80400242  0.83724820  0.06901388  1  1.552778  0  0.194202  0.564899  0  4.229737  0
C  C68  1  0.69600312  0.06903215  0.66274238  1  1.551922  0  0.194095  0.56447  0  4.230128  0
C  C69  1  0.69596426  0.43097507  0.83725802  1  1.552006  0  0.194155  0.56474  0  4.229874  0
C  C70  1  0.19597690  0.33724850  0.56901347  1  1.553073  0  0.194086  0.564763  0  4.229559  0
C  C71  1  0.19595867  0.16275179  0.93097852  1  1.553058  0  0.194183  0.564742  0  4.229853  0
C  C72  1  0.00576750  0.01322309  0.36804736  1  -0.091143  0  -0.078681  -0.06924  0  3.958186  0
C  C73  1  0.00574922  0.48676792  0.13196619  1  -0.090986  0  -0.078823  -0.06954  0  3.958045  0
C  C74  1  0.50576633  0.63195377  0.51322395  1  -0.091082  0  -0.078705  -0.069292  0  3.958243  0
C  C75  1  0.50571493  0.86804683  0.98676379  1  -0.090952  0  -0.07883  -0.069452  0  3.958311  0
C  C76  1  0.99428112  0.98678985  0.63195031  1  -0.091907  0  -0.078774  -0.069458  0  3.958057  0
C  C77  1  0.99423933  0.51321913  0.86805353  1  -0.091748  0  -0.078798  -0.069473  0  3.958377  0
C  C78  1  0.49422394  0.36804767  0.48676318  1  -0.091655  0  -0.078922  -0.069693  0  3.958441  0
C  C79  1  0.49423244  0.13194838  0.01322717  1  -0.091453  0  -0.078826  -0.069351  0  3.958368  0
C  C80  1  0.22471558  0.98668121  0.37665234  1  0.021867  0  -0.023447  -0.045296  0  3.977255  0
C  C81  1  0.22470743  0.51331167  0.12335709  1  0.0214  0  -0.023443  -0.045401  0  3.977318  0
C  C82  1  0.72471770  0.62335353  0.48667820  1  0.021524  0  -0.023405  -0.045199  0  3.977436  0
C  C83  1  0.72466676  0.87664245  0.01331280  1  0.021385  0  -0.023534  -0.045614  0  3.977925  0
C  C84  1  0.77532618  0.01333268  0.62334485  1  0.02248  0  -0.023458  -0.044994  0  3.977016  0
C  C85  1  0.77528798  0.48667778  0.87665543  1  0.022239  0  -0.023448  -0.045093  0  3.977178  0
C  C86  1  0.27529145  0.37664742  0.51331132  1  0.021972  0  -0.023316  -0.045167  0  3.977549  0
C  C87  1  0.27528919  0.12335275  0.98667816  1  0.022006  0  -0.023359  -0.045071  0  3.977153  0
C  C88  1  0.36966286  0.01294140  0.42330559  1  -0.038193  0  -0.083209  -0.073564  0  3.970157  0
C  C89  1  0.36964713  0.48705291  0.07670410  1  -0.038672  0  -0.083305  -0.073586  0  3.970248  0
C  C90  1  0.86966986  0.57670370  0.51293522  1  -0.038474  0  -0.083272  -0.07363  0  3.97023  0
C  C91  1  0.86962868  0.92329252  0.98706112  1  -0.037803  0  -0.08316  -0.07329  0  3.969956  0
C  C92  1  0.63038920  0.98707537  0.57668920  1  -0.038585  0  -0.083159  -0.073542  0  3.969883  0
C  C93  1  0.63034657  0.51293031  0.92331226  1  -0.038852  0  -0.083073  -0.073299  0  3.969994  0
C  C94  1  0.13033757  0.42330300  0.48706485  1  -0.03813  0  -0.083209  -0.073457  0  3.97016  0
C  C95  1  0.13033756  0.07669502  0.01292505  1  -0.039185  0  -0.083248  -0.073621  0  3.970233  0
C  C96  1  0.29696399  0.06277472  0.46259538  1  -0.021838  0  -0.090596  -0.172998  0  3.984655  0
C  C97  1  0.29694524  0.43721826  0.03741729  1  -0.021727  0  -0.090371  -0.172777  0  3.984542  0
C  C98  1  0.79696970  0.53741810  0.56277154  1  -0.02229  0  -0.090584  -0.173082  0  3.985027  0
C  C99  1  0.79694696  0.96258398  0.93722969  1  -0.021991  0  -0.090547  -0.172913  0  3.984727  0
C  C100  1  0.70307262  0.93724349  0.53739846  1  -0.021702  0  -0.090621  -0.17323  0  3.984763  0
C  C101  1  0.70303816  0.56276257  0.96260626  1  -0.022471  0  -0.090609  -0.173254  0  3.985136  0
C  C102  1  0.20303430  0.46259675  0.43723044  1  -0.022545  0  -0.090737  -0.17336  0  3.985055  0
C  C103  1  0.20303473  0.03739972  0.06275456  1  -0.02256  0  -0.090663  -0.173085  0  3.985087  0
C  C104  1  0.07355659  0.08620857  0.45552524  1  0.236736  0  0.104672  0.157574  0  4.002353  0
C  C105  1  0.07353707  0.41377755  0.04449253  1  0.23682  0  0.104502  0.1575  0  4.002456  0
C  C106  1  0.57356792  0.54448182  0.58621138  1  0.237142  0  0.104792  0.157729  0  4.003065  0
C  C107  1  0.57353833  0.95552395  0.91378729  1  0.236374  0  0.104494  0.157266  0  4.003099  0
C  C108  1  0.92649890  0.91381060  0.54446811  1  0.236483  0  0.104734  0.157926  0  4.002308  0
C  C109  1  0.92644290  0.58620040  0.95553390  1  0.236474  0  0.104682  0.157851  0  4.002627  0
C  C110  1  0.42642922  0.45553303  0.41379013  1  0.236081  0  0.1046  0.157663  0  4.002887  0
C  C111  1  0.42643306  0.04446263  0.08619552  1  0.236732  0  0.104705  0.157781  0  4.003141  0
C  C112  1  0.93002663  0.06299241  0.40703641  1  0.047065  0  -0.087406  -0.16033  0  3.965455  0
C  C113  1  0.93000707  0.43699579  0.09297873  1  0.047638  0  -0.087182  -0.16013  0  3.965492  0
C  C114  1  0.43003015  0.59296438  0.56299652  1  0.047029  0  -0.087314  -0.160302  0  3.965671  0
C  C115  1  0.42999370  0.90703920  0.93699468  1  0.047874  0  -0.087027  -0.159904  0  3.965378  0
C  C116  1  0.07002028  0.93702292  0.59295743  1  0.048383  0  -0.087327  -0.160495  0  3.965464  0
C  C117  1  0.06997290  0.56298743  0.90704626  1  0.048281  0  -0.087208  -0.160253  0  3.965416  0
C  C118  1  0.56997214  0.40704520  0.43699636  1  0.048801  0  -0.087026  -0.159755  0  3.965051  0
C  C119  1  0.56997083  0.09295169  0.06299244  1  0.048498  0  -0.087207  -0.160232  0  3.965874  0
C  C120  1  0.75526595  0.19928427  0.53880460  1  0.935192  0  0.146605  0.143541  0  3.981229  0
C  C121  1  0.75525831  0.30070944  0.96120098  1  0.936194  0  0.146697  0.143576  0  3.981289  0
C  C122  1  0.25527734  0.46119348  0.69928484  1  0.935257  0  0.146676  0.143776  0  3.981301  0
C  C123  1  0.25527175  0.03880768  0.80071138  1  0.935753  0  0.146533  0.143594  0  3.981467  0
C  C124  1  0.24475521  0.80072436  0.46119499  1  0.935528  0  0.146758  0.143919  0  3.981473  0
C  C125  1  0.24472853  0.69928288  0.03881107  1  0.935126  0  0.146572  0.143644  0  3.981521  0
C  C126  1  0.74474726  0.53881562  0.30071618  1  0.935204  0  0.146539  0.14364  0  3.981624  0
C  C127  1  0.74469278  0.96118321  0.19928150  1  0.934833  0  0.146539  0.143537  0  3.981413  0
C  C128  1  0.07463963  0.15213451  0.55598643  1  0.965916  0  0.170567  0.107974  0  3.843136  0
C  C129  1  0.07462153  0.34786500  0.94402011  1  0.965958  0  0.170658  0.108122  0  3.843152  0
C  C130  1  0.57465072  0.44402164  0.65213163  1  0.966655  0  0.170623  0.108099  0  3.84313  0
C  C131  1  0.57463881  0.05598672  0.84786893  1  0.965659  0  0.170729  0.108027  0  3.843272  0
C  C132  1  0.92539183  0.84787555  0.44401220  1  0.96591  0  0.170834  0.10825  0  3.843392  0
C  C133  1  0.92536702  0.65212541  0.05599530  1  0.9643  0  0.170582  0.107908  0  3.843113  0
C  C134  1  0.42536872  0.55599465  0.34787323  1  0.964689  0  0.170634  0.108061  0  3.84295  0
C  C135  1  0.42533430  0.94400465  0.15211724  1  0.964677  0  0.170473  0.107766  0  3.843321  0
N  N136  1  0.98800196  0.13300178  0.49865848  1  -0.862706  0  -0.114004  0.132857  0  3.740708  0
N  N137  1  0.98799365  0.36698873  0.00135322  1  -0.862127  0  -0.114089  0.132547  0  3.740733  0
N  N138  1  0.48801610  0.50134709  0.63300175  1  -0.863036  0  -0.114178  0.132833  0  3.741468  0
N  N139  1  0.48801772  0.99865977  0.86699608  1  -0.863035  0  -0.114124  0.132897  0  3.741778  0
N  N140  1  0.01203637  0.86701355  0.50133584  1  -0.862715  0  -0.114037  0.132607  0  3.741234  0
N  N141  1  0.01198976  0.63299736  0.99866506  1  -0.862752  0  -0.114002  0.132814  0  3.741184  0
N  N142  1  0.51198619  0.49866393  0.36699784  1  -0.862796  0  -0.113979  0.132923  0  3.741444  0
N  N143  1  0.51196912  0.00133160  0.13299056  1  -0.863251  0  -0.114179  0.132775  0  3.741665  0
N  N144  1  0.78266724  0.16288235  0.48736595  1  -0.679448  0  -0.223826  -0.266146  0  3.093643  0
N  N145  1  0.78265532  0.33710464  0.01264508  1  -0.680393  0  -0.22384  -0.265977  0  3.093288  0
N  N146  1  0.28268516  0.51263654  0.66288105  1  -0.679314  0  -0.223836  -0.266315  0  3.093804  0
N  N147  1  0.28268934  0.98736582  0.83711467  1  -0.67929  0  -0.22373  -0.266149  0  3.09403  0
N  N148  1  0.21736593  0.83713203  0.51262933  1  -0.67949  0  -0.223966  -0.266259  0  3.093487  0
N  N149  1  0.21731436  0.66288241  0.98737176  1  -0.679014  0  -0.223762  -0.266125  0  3.093865  0
N  N150  1  0.71730854  0.48737304  0.33711662  1  -0.679018  0  -0.223806  -0.26617  0  3.094008  0
N  N151  1  0.71728377  0.01262507  0.16287677  1  -0.67871  0  -0.223667  -0.266042  0  3.093838  0
N  N152  1  0.93068555  0.19416702  0.58216700  1  -1.191007  0  -0.34079  -0.322545  0  3.460922  0
N  N153  1  0.93066781  0.30583411  0.91783498  1  -1.191362  0  -0.340897  -0.322694  0  3.461159  0
N  N154  1  0.43069298  0.41783755  0.69416599  1  -1.191269  0  -0.340819  -0.322723  0  3.461364  0
N  N155  1  0.43068177  0.08216719  0.80583525  1  -1.191686  0  -0.34078  -0.322556  0  3.461242  0
N  N156  1  0.06933905  0.80583873  0.41783594  1  -1.191273  0  -0.34101  -0.323004  0  3.461665  0
N  N157  1  0.06932761  0.69415870  0.08217563  1  -1.190716  0  -0.340861  -0.322695  0  3.461169  0
N  N158  1  0.56935392  0.58217491  0.30584078  1  -1.190742  0  -0.340847  -0.322737  0  3.461448  0
N  N159  1  0.56928447  0.91782370  0.19415427  1  -1.190502  0  -0.340676  -0.322465  0  3.461195  0
O  O160  1  0.18158037  0.91291539  0.28995526  1  -1.19352  0  -0.324779  -0.580232  0  2.257419  0
O  O161  1  0.18156501  0.58707517  0.21005423  1  -1.193563  0  -0.324812  -0.580195  0  2.257317  0
O  O162  1  0.68158199  0.71005286  0.41292579  1  -1.193732  0  -0.324761  -0.580126  0  2.257172  0
O  O163  1  0.68156259  0.78994510  0.08707198  1  -1.193192  0  -0.324798  -0.580085  0  2.257209  0
O  O164  1  0.81844423  0.08709276  0.71004672  1  -1.193169  0  -0.324782  -0.580145  0  2.25732  0
O  O165  1  0.81840810  0.41291380  0.78995638  1  -1.193374  0  -0.32474  -0.580162  0  2.257501  0
O  O166  1  0.31844261  0.28995001  0.58706853  1  -1.193714  0  -0.324794  -0.580185  0  2.257012  0
O  O167  1  0.31840365  0.21005441  0.91292185  1  -1.193638  0  -0.324784  -0.580144  0  2.257504  0
O  O168  1  0.49343995  0.90369790  0.35245418  1  -1.165178  0  -0.33305  -0.567883  0  2.197996  0
O  O169  1  0.49344241  0.59629028  0.14755775  1  -1.165629  0  -0.332964  -0.567826  0  2.198004  0
O  O170  1  0.99343261  0.64755615  0.40369327  1  -1.164964  0  -0.333042  -0.567867  0  2.19806  0
O  O171  1  0.99341292  0.85244711  0.09629544  1  -1.165534  0  -0.333064  -0.567898  0  2.197827  0
O  O172  1  0.50660352  0.09631168  0.64754109  1  -1.165009  0  -0.332995  -0.567729  0  2.198093  0
O  O173  1  0.50655816  0.40369390  0.85246053  1  -1.164614  0  -0.333106  -0.567926  0  2.198012  0
O  O174  1  0.00658340  0.35244337  0.59630201  1  -1.165179  0  -0.333027  -0.567794  0  2.197952  0
O  O175  1  0.00655676  0.14755049  0.90369360  1  -1.165097  0  -0.333067  -0.567911  0  2.197976  0
O  O176  1  0.10672100  0.18598044  0.73629252  1  -1.228721  0  -0.602618  -0.865508  0  2.119787  0
O  O177  1  0.10669875  0.31403197  0.76371014  1  -1.22803  0  -0.602571  -0.865371  0  2.120032  0
O  O178  1  0.60670077  0.26371227  0.68597826  1  -1.229031  0  -0.602596  -0.865476  0  2.120009  0
O  O179  1  0.60669416  0.23629461  0.81402705  1  -1.228115  0  -0.602613  -0.865385  0  2.120027  0
O  O180  1  0.89329844  0.81402818  0.26370611  1  -1.227953  0  -0.602633  -0.865477  0  2.119893  0
O  O181  1  0.89330010  0.68597618  0.23628705  1  -1.229073  0  -0.602591  -0.86548  0  2.119946  0
O  O182  1  0.39329809  0.73629061  0.31402516  1  -1.228959  0  -0.602576  -0.865401  0  2.120016  0
O  O183  1  0.39329611  0.76370778  0.18597301  1  -1.227956  0  -0.602587  -0.865437  0  2.119971  0
