# generated using pymatgen
data_VH4C6NCl4
_symmetry_space_group_name_H-M   'P 1'
_cell_length_a   5.84297424
_cell_length_b   9.66308121
_cell_length_c   10.07340687
_cell_angle_alpha   116.22373835
_cell_angle_beta   94.25158055
_cell_angle_gamma   105.84047359
_symmetry_Int_Tables_number   1
_chemical_formula_structural   VH4C6NCl4
_chemical_formula_sum   'V2 H8 C12 N2 Cl8'
_cell_volume   478.18044390
_cell_formula_units_Z   2
loop_
 _symmetry_equiv_pos_site_id
 _symmetry_equiv_pos_as_xyz
  1  'x, y, z'
loop_
 _atom_site_type_symbol
 _atom_site_label
 _atom_site_symmetry_multiplicity
 _atom_site_fract_x
 _atom_site_fract_y
 _atom_site_fract_z
 _atom_site_occupancy
 _atom_site_hle17_bader_spin_density
 _atom_site_hle17_ddec_charge
 _atom_site_hle17_ddec_spin_density
 _atom_site_hle17_ddec_sum_bond_order
 _atom_site_hle17_magmom
 _atom_site_hse06_10hf_bader_spin_density
 _atom_site_hse06_10hf_ddec_charge
 _atom_site_hse06_10hf_ddec_spin_density
 _atom_site_hse06_10hf_ddec_sum_bond_order
 _atom_site_hse06_10hf_magmom
 _atom_site_hse06_bader_spin_density
 _atom_site_hse06_ddec_charge
 _atom_site_hse06_ddec_spin_density
 _atom_site_hse06_ddec_sum_bond_order
 _atom_site_hse06_magmom
 _atom_site_pbe_bader_spin_density
 _atom_site_pbe_cm5_charge
 _atom_site_pbe_ddec_charge
 _atom_site_pbe_ddec_spin_density
 _atom_site_pbe_ddec_sum_bond_order
 _atom_site_pbe_magmom
V  V0  1  0.29219905  0.11302037  0.47121699  1  0  1.408565  0  3.042552  0  0  1.457578  0  3.423266  0  0  1.537963  0  3.397223  0  0  1.142369  1.400609  0  3.44616  0
V  V1  1  0.70778747  0.88698176  0.52876860  1  0  1.408323  0  3.04248  0  0  1.457282  0  3.423316  0  0  1.537698  0  3.397196  0  0  1.142044  1.400361  0  3.446103  0
H  H2  1  0.87920628  0.33082827  0.44712911  1  0  0.112299  0  0.964243  0  0  0.119547  0  1.030153  0  0  0.123042  0  1.027995  0  0  0.09752  0.117144  0  1.031574  0
H  H3  1  0.12078992  0.66917645  0.55287291  1  0  0.112337  0  0.96432  0  0  0.119584  0  1.030191  0  0  0.123077  0  1.028032  0  0  0.097556  0.117177  0  1.031615  0
H  H4  1  0.67228428  0.42977755  0.29894023  1  0  0.116955  0  0.961124  0  0  0.124144  0  1.026609  0  0  0.128091  0  1.025189  0  0  0.095991  0.121444  0  1.027715  0
H  H5  1  0.32771599  0.57022838  0.70106051  1  0  0.116872  0  0.961225  0  0  0.124094  0  1.026682  0  0  0.128042  0  1.025262  0  0  0.095963  0.121394  0  1.027785  0
H  H6  1  0.03937584  0.23354104  0.93924047  1  0  0.121562  0  0.95564  0  0  0.127501  0  1.021984  0  0  0.131781  0  1.019421  0  0  0.095343  0.124503  0  1.023934  0
H  H7  1  0.96062752  0.76645759  0.06076332  1  0  0.121542  0  0.955627  0  0  0.12742  0  1.022028  0  0  0.131689  0  1.019482  0  0  0.095287  0.124421  0  1.023978  0
H  H8  1  0.24733141  0.13439569  0.08725685  1  0  0.116881  0  0.926813  0  0  0.129532  0  0.979405  0  0  0.132039  0  0.978773  0  0  0.110854  0.127707  0  0.979893  0
H  H9  1  0.75266806  0.86560537  0.91274579  1  0  0.116882  0  0.926815  0  0  0.129505  0  0.979445  0  0  0.13204  0  0.978779  0  0  0.110832  0.127679  0  0.979933  0
C  C10  1  0.07302622  0.22434354  0.27523223  1  0  0.288808  0  3.827154  0  0  0.304671  0  4.067814  0  0  0.307553  0  4.086249  0  0  0.092668  0.302215  0  4.055492  0
C  C11  1  0.92697575  0.77564895  0.72476894  1  0  0.288915  0  3.827178  0  0  0.304678  0  4.06794  0  0  0.307548  0  4.086396  0  0  0.092633  0.302219  0  4.055617  0
C  C12  1  0.91212072  0.30966662  0.33588116  1  0  -0.081293  0  3.638025  0  0  -0.10601  0  3.885456  0  0  -0.102026  0  3.898673  0  0  -0.07518  -0.107855  0  3.875919  0
C  C13  1  0.08787925  0.69033196  0.66411849  1  0  -0.081314  0  3.638257  0  0  -0.105963  0  3.885669  0  0  -0.10197  0  3.898884  0  0  -0.07519  -0.107809  0  3.876135  0
C  C14  1  0.79658761  0.36393952  0.25324897  1  0  -0.124401  0  3.732599  0  0  -0.14715  0  3.991004  0  0  -0.152667  0  4.008593  0  0  -0.095566  -0.14378  0  3.978933  0
C  C15  1  0.20340983  0.63606765  0.74675313  1  0  -0.12445  0  3.732826  0  0  -0.14722  0  3.991272  0  0  -0.152748  0  4.008851  0  0  -0.09564  -0.143848  0  3.979197  0
C  C16  1  0.84130642  0.33406299  0.11000264  1  0  0.157513  0  3.77323  0  0  0.161253  0  4.047099  0  0  0.170059  0  4.064108  0  0  0.017618  0.155631  0  4.035291  0
C  C17  1  0.15870645  0.66593076  0.89000156  1  0  0.157442  0  3.773368  0  0  0.16107  0  4.047402  0  0  0.169907  0  4.064369  0  0  0.017556  0.155446  0  4.035593  0
C  C18  1  0.00430379  0.25278850  0.04962022  1  0  -0.126896  0  3.746362  0  0  -0.15367  0  4.011559  0  0  -0.158673  0  4.029625  0  0  -0.09651  -0.150614  0  3.99929  0
C  C19  1  0.99569404  0.74721248  0.95037338  1  0  -0.126897  0  3.746436  0  0  -0.153539  0  4.011604  0  0  -0.158546  0  4.029677  0  0  -0.096413  -0.150483  0  3.999333  0
C  C20  1  0.12055808  0.19816209  0.13196882  1  0  -0.09642  0  3.648898  0  0  -0.120764  0  3.899407  0  0  -0.118391  0  3.91512  0  0  -0.073684  -0.121681  0  3.888377  0
C  C21  1  0.87944251  0.80183772  0.86803038  1  0  -0.096476  0  3.649293  0  0  -0.120791  0  3.899822  0  0  -0.118433  0  3.915526  0  0  -0.073697  -0.121707  0  3.888788  0
N  N22  1  0.17732775  0.16715493  0.35571708  1  0  -0.573037  0  2.897835  0  0  -0.585935  0  3.223536  0  0  -0.600717  0  3.238781  0  0  -0.659654  -0.575689  0  3.214104  0
N  N23  1  0.82267277  0.83284494  0.64429007  1  0  -0.572908  0  2.897341  0  0  -0.58576  0  3.223063  0  0  -0.600544  0  3.238308  0  0  -0.65932  -0.575521  0  3.213616  0
Cl  Cl24  1  0.56645035  0.35477921  0.63237207  1  0  -0.377464  0  1.05113  0  0  -0.375192  0  1.301256  0  0  -0.40522  0  1.296027  0  0  -0.22267  -0.355313  0  1.305673  0
Cl  Cl25  1  0.43355065  0.64521820  0.36763309  1  0  -0.377436  0  1.05119  0  0  -0.375146  0  1.301335  0  0  -0.40518  0  1.296095  0  0  -0.222669  -0.355271  0  1.305732  0
Cl  Cl26  1  0.02011274  0.16187518  0.63955226  1  0  -0.445976  0  1.229818  0  0  -0.449071  0  1.50959  0  0  -0.473891  0  1.501943  0  0  -0.222472  -0.431571  0  1.515741  0
Cl  Cl27  1  0.97989798  0.83812099  0.36044988  1  0  -0.445997  0  1.229835  0  0  -0.44909  0  1.509604  0  0  -0.473908  0  1.501953  0  0  -0.222465  -0.431591  0  1.515755  0
Cl  Cl28  1  0.46798772  0.01324955  0.66529655  1  0  -0.444855  0  1.203561  0  0  -0.446386  0  1.467978  0  0  -0.476885  0  1.463027  0  0  -0.220243  -0.424918  0  1.472114  0
Cl  Cl29  1  0.53201441  0.98674661  0.33470418  1  0  -0.444871  0  1.203543  0  0  -0.446405  0  1.467936  0  0  -0.476901  0  1.462992  0  0  -0.220238  -0.424933  0  1.472079  0
Cl  Cl30  1  0.69304876  0.39904039  0.00703560  1  0  -0.052196  0  1.425667  0  0  -0.039996  0  1.672785  0  0  -0.042024  0  1.666122  0  0  0.013622  -0.037794  0  1.677153  0
Cl  Cl31  1  0.30694928  0.60096422  0.99295356  1  0  -0.052007  0  1.426087  0  0  -0.03977  0  1.673251  0  0  -0.041805  0  1.666579  0  0  0.013753  -0.037572  0  1.67762  0
