# generated using pymatgen
data_CdAg2H12(CN2)8
_symmetry_space_group_name_H-M   'P 1'
_cell_length_a   6.65512266
_cell_length_b   6.95755945
_cell_length_c   9.43842438
_cell_angle_alpha   73.10161323
_cell_angle_beta   73.69156188
_cell_angle_gamma   97.48896804
_symmetry_Int_Tables_number   1
_chemical_formula_structural   CdAg2H12(CN2)8
_chemical_formula_sum   'Cd1 Ag2 H12 C8 N16'
_cell_volume   390.49921509
_cell_formula_units_Z   1
loop_
 _symmetry_equiv_pos_site_id
 _symmetry_equiv_pos_as_xyz
  1  'x, y, z'
loop_
 _atom_site_type_symbol
 _atom_site_label
 _atom_site_symmetry_multiplicity
 _atom_site_fract_x
 _atom_site_fract_y
 _atom_site_fract_z
 _atom_site_occupancy
 _atom_site_hle17_bader_spin_density
 _atom_site_hle17_ddec_charge
 _atom_site_hle17_ddec_spin_density
 _atom_site_hle17_ddec_sum_bond_order
 _atom_site_hle17_magmom
 _atom_site_hse06_10hf_bader_spin_density
 _atom_site_hse06_10hf_ddec_charge
 _atom_site_hse06_10hf_ddec_spin_density
 _atom_site_hse06_10hf_ddec_sum_bond_order
 _atom_site_hse06_10hf_magmom
 _atom_site_hse06_bader_spin_density
 _atom_site_hse06_ddec_charge
 _atom_site_hse06_ddec_spin_density
 _atom_site_hse06_ddec_sum_bond_order
 _atom_site_hse06_magmom
 _atom_site_pbe_bader_spin_density
 _atom_site_pbe_cm5_charge
 _atom_site_pbe_ddec_charge
 _atom_site_pbe_ddec_spin_density
 _atom_site_pbe_ddec_sum_bond_order
 _atom_site_pbe_magmom
Cd  Cd0  1  0.50000336  0.50000301  0.49999916  1  0  1.002783  0  1.76744  0  0  0.804442  0  2.201698  0  0  0.851768  0  2.166879  0  0  0.758616  0.770556  0  2.225892  0
Ag  Ag1  1  0.59780153  0.92698066  0.76322614  1  0  0.501232  0  1.495803  0  0  0.355371  0  1.934043  0  0  0.379965  0  1.899946  0  0  0.494609  0.337977  0  1.958593  0
Ag  Ag2  1  0.40220126  0.07302042  0.23677197  1  0  0.50126  0  1.495783  0  0  0.355394  0  1.934032  0  0  0.379987  0  1.899939  0  0  0.494614  0.338006  0  1.958576  0
H  H3  1  0.81498275  0.72906308  0.58116044  1  0  0.29929  0  0.918557  0  0  0.282309  0  0.990946  0  0  0.289387  0  0.984086  0  0  0.290762  0.277229  0  0.995858  0
H  H4  1  0.18501769  0.27094252  0.41884350  1  0  0.299233  0  0.91861  0  0  0.282291  0  0.990947  0  0  0.28937  0  0.984084  0  0  0.290752  0.277209  0  0.995864  0
H  H5  1  0.96839404  0.76602311  0.39836613  1  0  0.30596  0  0.906163  0  0  0.290335  0  0.975322  0  0  0.296909  0  0.969467  0  0  0.296902  0.285658  0  0.979376  0
H  H6  1  0.03160380  0.23397612  0.60163659  1  0  0.305956  0  0.906199  0  0  0.290336  0  0.975348  0  0  0.296908  0  0.969497  0  0  0.296917  0.285659  0  0.9794  0
H  H7  1  0.90490969  0.77795713  0.13036325  1  0  0.321425  0  0.895604  0  0  0.310742  0  0.952838  0  0  0.316088  0  0.949224  0  0  0.3037  0.306924  0  0.955485  0
H  H8  1  0.09509666  0.22203661  0.86963366  1  0  0.321386  0  0.89558  0  0  0.310718  0  0.952763  0  0  0.316065  0  0.949151  0  0  0.303685  0.306903  0  0.955404  0
H  H9  1  0.91956153  0.82433042  0.93954838  1  0  0.318061  0  0.957998  0  0  0.29347  0  1.039479  0  0  0.301545  0  1.031995  0  0  0.286094  0.287879  0  1.044579  0
H  H10  1  0.08044830  0.17567578  0.06044608  1  0  0.318062  0  0.958008  0  0  0.293467  0  1.039506  0  0  0.301544  0  1.032018  0  0  0.286107  0.287877  0  1.044602  0
H  H11  1  0.84446257  0.42127439  0.17611520  1  0  0.097394  0  0.967807  0  0  0.104794  0  1.033237  0  0  0.107019  0  1.03101  0  0  0.127407  0.103244  0  1.034781  0
H  H12  1  0.15553017  0.57872280  0.82388478  1  0  0.097415  0  0.96775  0  0  0.104811  0  1.033177  0  0  0.107037  0  1.030949  0  0  0.127409  0.103245  0  1.034739  0
H  H13  1  0.12609262  0.55610585  0.33335331  1  0  0.054959  0  0.989274  0  0  0.071604  0  1.048555  0  0  0.07219  0  1.047837  0  0  0.114058  0.071209  0  1.049043  0
H  H14  1  0.87391639  0.44389434  0.66664797  1  0  0.054933  0  0.989284  0  0  0.071602  0  1.048543  0  0  0.072189  0  1.047825  0  0  0.11408  0.071207  0  1.049029  0
C  C15  1  0.80684216  0.98383501  0.41826670  1  0  0.511322  0  3.865704  0  0  0.471214  0  4.142553  0  0  0.491077  0  4.154399  0  0  0.291069  0.457781  0  4.134244  0
C  C16  1  0.19315267  0.01616541  0.58173319  1  0  0.511318  0  3.865685  0  0  0.471191  0  4.142558  0  0  0.491055  0  4.154402  0  0  0.291061  0.457746  0  4.134266  0
C  C17  1  0.81513622  0.28363399  0.27778168  1  0  0.190662  0  3.771886  0  0  0.142105  0  4.051886  0  0  0.156001  0  4.062781  0  0  0.118906  0.132903  0  4.044629  0
C  C18  1  0.18485494  0.71636306  0.72221866  1  0  0.19071  0  3.771675  0  0  0.142162  0  4.051656  0  0  0.156058  0  4.062552  0  0  0.118955  0.132974  0  4.044396  0
C  C19  1  0.61235861  0.71992787  0.10134601  1  0  0.571152  0  3.850427  0  0  0.524915  0  4.124117  0  0  0.548846  0  4.134091  0  0  0.308505  0.508665  0  4.116933  0
C  C20  1  0.38763970  0.28007443  0.89865592  1  0  0.571266  0  3.850428  0  0  0.525081  0  4.124046  0  0  0.549014  0  4.134022  0  0  0.308584  0.508825  0  4.11687  0
C  C21  1  0.27654191  0.62161295  0.23541994  1  0  0.113984  0  3.914216  0  0  0.071868  0  4.194761  0  0  0.083027  0  4.207672  0  0  0.085735  0.064411  0  4.186076  0
C  C22  1  0.72346595  0.37839015  0.76457986  1  0  0.113996  0  3.914205  0  0  0.071859  0  4.194766  0  0  0.083015  0  4.207681  0  0  0.085645  0.064405  0  4.186076  0
N  N23  1  0.71930559  0.27183444  0.42623491  1  0  -0.332334  0  3.148037  0  0  -0.271705  0  3.428279  0  0  -0.289292  0  3.448677  0  0  -0.278633  -0.259906  0  3.414385  0
N  N24  1  0.28068742  0.72816431  0.57376573  1  0  -0.332381  0  3.147896  0  0  -0.271772  0  3.428154  0  0  -0.289359  0  3.448551  0  0  -0.278675  -0.259966  0  3.414244  0
N  N25  1  0.71415253  0.07428759  0.51883418  1  0  -0.366174  0  3.288957  0  0  -0.288758  0  3.585915  0  0  -0.308566  0  3.603423  0  0  -0.310915  -0.275057  0  3.573713  0
N  N26  1  0.28584235  0.92571288  0.48116780  1  0  -0.366154  0  3.28893  0  0  -0.288703  0  3.585862  0  0  -0.308514  0  3.60337  0  0  -0.310859  -0.275009  0  3.57367  0
N  N27  1  0.87468815  0.10752818  0.26703880  1  0  -0.513125  0  3.030598  0  0  -0.460148  0  3.303389  0  0  -0.477376  0  3.309448  0  0  -0.355246  -0.448473  0  3.299869  0
N  N28  1  0.12530621  0.89246917  0.73296187  1  0  -0.513139  0  3.03057  0  0  -0.460162  0  3.303358  0  0  -0.477385  0  3.309409  0  0  -0.355263  -0.448484  0  3.299836  0
N  N29  1  0.82371458  0.77818388  0.46571697  1  0  -0.683891  0  3.085962  0  0  -0.637492  0  3.327017  0  0  -0.655663  0  3.320775  0  0  -0.598438  -0.624341  0  3.330685  0
N  N30  1  0.17628191  0.22181675  0.53428571  1  0  -0.683849  0  3.085941  0  0  -0.637512  0  3.327038  0  0  -0.655682  0  3.320796  0  0  -0.598476  -0.624355  0  3.330703  0
N  N31  1  0.28296687  0.69648892  0.08831658  1  0  -0.25508  0  2.990848  0  0  -0.235583  0  3.270624  0  0  -0.241488  0  3.285943  0  0  -0.261107  -0.231599  0  3.260716  0
N  N32  1  0.71703488  0.30351521  0.91168529  1  0  -0.255027  0  2.990835  0  0  -0.235532  0  3.270637  0  0  -0.241438  0  3.285959  0  0  -0.261056  -0.231546  0  3.260726  0
N  N33  1  0.49976281  0.76187748  0.00130398  1  0  -0.366884  0  3.252015  0  0  -0.278831  0  3.555195  0  0  -0.301658  0  3.569885  0  0  -0.308288  -0.263185  0  3.54492  0
N  N34  1  0.50024140  0.23812228  0.99869732  1  0  -0.366988  0  3.252087  0  0  -0.27896  0  3.555271  0  0  -0.301788  0  3.569963  0  0  -0.308342  -0.263314  0  3.545003  0
N  N35  1  0.47558042  0.62979143  0.25261158  1  0  -0.573331  0  3.176955  0  0  -0.487116  0  3.451626  0  0  -0.51306  0  3.462966  0  0  -0.393767  -0.468948  0  3.443681  0
N  N36  1  0.52443101  0.37020433  0.74738702  1  0  -0.573375  0  3.176916  0  0  -0.487185  0  3.451602  0  0  -0.513129  0  3.46294  0  0  -0.393752  -0.469019  0  3.443662  0
N  N37  1  0.82936080  0.75113061  0.05635624  1  0  -0.696014  0  3.127668  0  0  -0.661308  0  3.365021  0  0  -0.680832  0  3.360542  0  0  -0.590668  -0.647646  0  3.367794  0
N  N38  1  0.17065020  0.24887271  0.94364075  1  0  -0.696012  0  3.127899  0  0  -0.661312  0  3.365263  0  0  -0.680834  0  3.360777  0  0  -0.590687  -0.647643  0  3.368025  0
