# generated using pymatgen
data_AlH9C11NO5
_symmetry_space_group_name_H-M   'P 1'
_cell_length_a   6.66704560
_cell_length_b   8.78386841
_cell_length_c   17.77896582
_cell_angle_alpha   77.03477266
_cell_angle_beta   78.79048456
_cell_angle_gamma   75.01632401
_symmetry_Int_Tables_number   1
_chemical_formula_structural   AlH9C11NO5
_chemical_formula_sum   'Al2 H18 C22 N2 O10'
_cell_volume   969.79641045
_cell_formula_units_Z   2
loop_
 _symmetry_equiv_pos_site_id
 _symmetry_equiv_pos_as_xyz
  1  'x, y, z'
loop_
 _atom_site_type_symbol
 _atom_site_label
 _atom_site_symmetry_multiplicity
 _atom_site_fract_x
 _atom_site_fract_y
 _atom_site_fract_z
 _atom_site_occupancy
 _atom_site_pbe_bader_charge
 _atom_site_pbe_bader_spin_density
 _atom_site_pbe_cm5_charge
 _atom_site_pbe_ddec_charge
 _atom_site_pbe_ddec_spin_density
 _atom_site_pbe_ddec_sum_bond_order
 _atom_site_pbe_magmom
Al  Al0  1  0.48883893  0.51135943  0.50097466  1  2.502004  0  0.399154  1.638397  0  2.581357  0
Al  Al1  1  0.98810656  0.51520977  0.49918133  1  2.503983  0  0.397632  1.641349  0  2.58544  0
H  H2  1  0.26517058  0.32752386  0.56245991  1  0.638171  0  0.35204  0.42899  0  0.858596  0
H  H3  1  0.74775279  0.61753159  0.40365533  1  0.615509  0  0.352761  0.4298  0  0.855343  0
H  H4  1  0.70353505  0.40247686  0.28324857  1  0.078631  0  0.105103  0.114587  0  1.003684  0
H  H5  1  0.79341594  0.37658010  0.14262322  1  0.080959  0  0.09884  0.102822  0  1.027284  0
H  H6  1  0.04743518  0.53479707  0.26045895  1  0.089792  0  0.107266  0.121462  0  1.005532  0
H  H7  1  0.91832959  0.57922980  0.72531900  1  0.098233  0  0.111736  0.128515  0  0.996863  0
H  H8  1  0.34310464  0.43366229  0.73737917  1  0.093018  0  0.107015  0.119104  0  1.00409  0
H  H9  1  0.28867887  0.40145882  0.88294736  1  0.065148  0  0.097938  0.100754  0  1.02466  0
H  H10  1  0.14656718  0.54300142  0.05030307  1  0.43107  0  0.29779  0.291848  0  0.972518  0
H  H11  1  0.95810793  0.58601266  0.12808701  1  0.445618  0  0.309841  0.30313  0  0.942707  0
H  H12  1  0.84342353  0.57824939  0.93497380  1  0.451944  0  0.298628  0.291309  0  0.967901  0
H  H13  1  0.99469888  0.62602963  0.84723996  1  0.447694  0  0.311477  0.304937  0  0.937388  0
H  H14  1  0.59748667  0.02851485  0.58863675  1  0.0305  0  0.088104  0.119321  0  1.01029  0
H  H15  1  0.78303661  0.84058730  0.58876394  1  0.078185  0  0.096401  0.137176  0  1.022397  0
H  H16  1  0.64986509  0.92831728  0.50838092  1  0.084821  0  0.104098  0.152162  0  0.995514  0
H  H17  1  0.33523449  0.09114893  0.49414538  1  0.076033  0  0.099065  0.138381  0  1.012507  0
H  H18  1  0.20264868  0.17995726  0.41324247  1  0.080432  0  0.095539  0.137133  0  1.018384  0
H  H19  1  0.38691939  0.99097796  0.41449020  1  0.057206  0  0.0934  0.129749  0  0.999167  0
C  C20  1  0.82806565  0.22199690  0.51409841  1  1.56329  0  0.266428  0.640658  0  4.071672  0
C  C21  1  0.67309378  0.51886227  0.63749652  1  1.581192  0  0.268117  0.633194  0  4.099726  0
C  C22  1  0.15261712  0.80002714  0.48835050  1  1.583525  0  0.270646  0.638076  0  4.071442  0
C  C23  1  0.31323591  0.49529908  0.36199054  1  1.570383  0  0.265686  0.641556  0  4.090944  0
C  C24  1  0.36977380  0.47363668  0.27904022  1  -0.033736  0  -0.017348  -0.022484  0  4.017798  0
C  C25  1  0.58133852  0.42813314  0.24652450  1  -0.01502  0  -0.103224  -0.136549  0  4.03041  0
C  C26  1  0.63050930  0.41434995  0.16847431  1  -0.068424  0  -0.093676  -0.124846  0  4.01002  0
C  C27  1  0.47236067  0.45016980  0.12061218  1  0.098946  0  -0.016096  0.027358  0  4.096232  0
C  C28  1  0.25747067  0.49288504  0.15422798  1  0.457484  0  0.104793  0.268561  0  4.067323  0
C  C29  1  0.21045646  0.50173689  0.23368336  1  -0.024044  0  -0.097621  -0.219016  0  3.947263  0
C  C30  1  0.51900972  0.45080686  0.03959282  1  0.07139  0  -0.05144  -0.112688  0  4.150287  0
C  C31  1  0.53806898  0.46139603  0.96869394  1  -0.516812  0  -0.050756  -0.109547  0  4.153888  0
C  C32  1  0.56973710  0.47629767  0.88672887  1  0.133476  0  -0.017814  0.023541  0  4.097943  0
C  C33  1  0.75018612  0.52854442  0.84212568  1  0.396763  0  0.103657  0.264802  0  4.069143  0
C  C34  1  0.77994371  0.54221796  0.76077549  1  -0.000412  0  -0.094604  -0.215503  0  3.933522  0
C  C35  1  0.63396123  0.50867056  0.72378291  1  -0.00286  0  -0.017098  -0.023806  0  4.015598  0
C  C36  1  0.45417809  0.45991983  0.76749852  1  -0.012649  0  -0.102377  -0.138669  0  4.033588  0
C  C37  1  0.42482629  0.44248314  0.84806597  1  -0.088523  0  -0.094375  -0.122118  0  4.01594  0
C  C38  1  0.89214084  0.04496264  0.51647712  1  -0.038966  0  -0.002279  -0.007529  0  3.855261  0
C  C39  1  0.09063145  0.97717409  0.48610418  1  0.000608  0  -0.000786  -0.005109  0  3.849739  0
C  C40  1  0.72169379  0.95584747  0.55283940  1  -0.072488  0  -0.242878  -0.396612  0  3.981325  0
C  C41  1  0.26242084  0.06484084  0.44961158  1  -0.090527  0  -0.241232  -0.395654  0  3.981408  0
N  N42  1  0.10114920  0.52173455  0.10888992  1  -1.233148  0  -0.590673  -0.611145  0  3.351403  0
N  N43  1  0.89455011  0.55886874  0.87956072  1  -1.252332  0  -0.589203  -0.609517  0  3.351924  0
O  O44  1  0.63680731  0.28828059  0.50629773  1  -1.25838  0  -0.238206  -0.594431  0  2.33277  0
O  O45  1  0.85020928  0.54336369  0.60177959  1  -1.261447  0  -0.23297  -0.584214  0  2.365497  0
O  O46  1  0.01652673  0.73030346  0.47891273  1  -1.26303  0  -0.230811  -0.585437  0  2.378725  0
O  O47  1  0.45645460  0.51719072  0.39398857  1  -1.259253  0  -0.23891  -0.604299  0  2.34424  0
O  O48  1  0.34144588  0.73081174  0.49805468  1  -1.256607  0  -0.231985  -0.575291  0  2.321494  0
O  O49  1  0.12525142  0.49232346  0.39419441  1  -1.267018  0  -0.240403  -0.604761  0  2.353301  0
O  O50  1  0.96409635  0.29471894  0.52135739  1  -1.267207  0  -0.238156  -0.605603  0  2.376027  0
O  O51  1  0.52826484  0.49911655  0.60580701  1  -1.258642  0  -0.232157  -0.583785  0  2.353629  0
O  O52  1  0.24267807  0.43976965  0.53812570  1  -1.443403  0  -0.448181  -0.990663  0  2.200187  0
O  O53  1  0.73485978  0.58160965  0.45965150  1  -1.421083  0  -0.447896  -0.9894  0  2.20119  0
