# generated using pymatgen
data_BaH14(CN8)2
_symmetry_space_group_name_H-M   'P 1'
_cell_length_a   7.19719597
_cell_length_b   9.21924338
_cell_length_c   10.44084055
_cell_angle_alpha   67.13047294
_cell_angle_beta   78.64431811
_cell_angle_gamma   79.72924085
_symmetry_Int_Tables_number   1
_chemical_formula_structural   BaH14(CN8)2
_chemical_formula_sum   'Ba2 H28 C4 N32'
_cell_volume   621.83958232
_cell_formula_units_Z   2
loop_
 _symmetry_equiv_pos_site_id
 _symmetry_equiv_pos_as_xyz
  1  'x, y, z'
loop_
 _atom_site_type_symbol
 _atom_site_label
 _atom_site_symmetry_multiplicity
 _atom_site_fract_x
 _atom_site_fract_y
 _atom_site_fract_z
 _atom_site_occupancy
 _atom_site_pbe_bader_spin_density
 _atom_site_pbe_cm5_charge
 _atom_site_pbe_ddec_charge
 _atom_site_pbe_ddec_spin_density
 _atom_site_pbe_ddec_sum_bond_order
 _atom_site_pbe_magmom
Ba  Ba0  1  0.55627688  0.83478544  0.81234317  1  0  0.933455  1.112292  0  1.754245  0
Ba  Ba1  1  0.44372229  0.16521438  0.18765742  1  0  0.93345  1.112277  0  1.754283  0
H  H2  1  0.85494599  0.56326908  0.43406362  1  0  0.30262  0.231936  0  1.034722  0
H  H3  1  0.14505193  0.43672957  0.56593562  1  0  0.302609  0.231927  0  1.034694  0
H  H4  1  0.53273441  0.47134774  0.38135389  1  0  0.317931  0.241555  0  0.993225  0
H  H5  1  0.46727185  0.52865208  0.61864382  1  0  0.31786  0.241491  0  0.993132  0
H  H6  1  0.13123695  0.04124540  0.87378355  1  0  0.28105  0.211843  0  1.07932  0
H  H7  1  0.86876348  0.95875560  0.12621646  1  0  0.281041  0.211822  0  1.079347  0
H  H8  1  0.20600975  0.95423006  0.02754332  1  0  0.295684  0.233109  0  1.038451  0
H  H9  1  0.79399069  0.04577094  0.97245670  1  0  0.295654  0.233035  0  1.038486  0
H  H10  1  0.12297721  0.23173648  0.95846610  1  0  0.288772  0.23157  0  1.00689  0
H  H11  1  0.87702338  0.76826334  0.04153525  1  0  0.288778  0.231588  0  1.00686  0
H  H12  1  0.30922335  0.25177183  0.83598692  1  0  0.292707  0.24349  0  1.000361  0
H  H13  1  0.69077582  0.74822799  0.16401367  1  0  0.292716  0.243494  0  1.00032  0
H  H14  1  0.27923250  0.94131539  0.54630993  1  0  0.29918  0.246  0  0.991922  0
H  H15  1  0.72076809  0.05868443  0.45369046  1  0  0.299187  0.246011  0  0.991984  0
H  H16  1  0.15734821  0.03203332  0.65026649  1  0  0.289856  0.228679  0  1.037395  0
H  H17  1  0.84265238  0.96796649  0.34973486  1  0  0.289855  0.228685  0  1.037394  0
H  H18  1  0.39732098  0.22659249  0.51305076  1  0  0.286578  0.229972  0  1.041682  0
H  H19  1  0.60267661  0.77340852  0.48694963  1  0  0.28657  0.22995  0  1.041714  0
H  H20  1  0.19094416  0.24004199  0.45811112  1  0  0.283296  0.229682  0  1.042465  0
H  H21  1  0.80905501  0.75995783  0.54189043  1  0  0.283283  0.229651  0  1.042507  0
H  H22  1  0.80729684  0.49716657  0.78344572  1  0  0.28485  0.228978  0  1.043704  0
H  H23  1  0.19270360  0.50283443  0.21655430  1  0  0.284846  0.228981  0  1.043691  0
H  H24  1  0.79557790  0.45409663  0.95229299  1  0  0.296297  0.240173  0  1.018115  0
H  H25  1  0.20442112  0.54590437  0.04770721  1  0  0.296287  0.240173  0  1.018134  0
H  H26  1  0.63815825  0.30008677  0.85323185  1  0  0.29688  0.235489  0  1.023384  0
H  H27  1  0.36184077  0.69991424  0.14676835  1  0  0.296877  0.235486  0  1.023366  0
H  H28  1  0.46087440  0.43353585  0.87504131  1  0  0.297431  0.237382  0  1.039138  0
H  H29  1  0.53912604  0.56646515  0.12495871  1  0  0.297427  0.23739  0  1.039124  0
C  C30  1  0.78227588  0.34841431  0.57577975  1  0  0.30227  0.356573  0  4.168521  0
C  C31  1  0.21772518  0.65158195  0.42422467  1  0  0.302252  0.356546  0  4.168613  0
C  C32  1  0.78799651  0.38820852  0.29326469  1  0  0.312484  0.371041  0  4.152164  0
C  C33  1  0.21201496  0.61178419  0.70673091  1  0  0.312342  0.370709  0  4.152387  0
N  N34  1  0.74138624  0.49564012  0.47176873  1  0  -0.342683  -0.286491  0  3.469276  0
N  N35  1  0.25861797  0.50436445  0.52822669  1  0  -0.342666  -0.286493  0  3.469407  0
N  N36  1  0.92448671  0.31424414  0.65277067  1  0  -0.239618  -0.330381  0  3.228366  0
N  N37  1  0.07551073  0.68575806  0.34722838  1  0  -0.239586  -0.330357  0  3.228311  0
N  N38  1  0.90577716  0.16361159  0.74496092  1  0  -0.103067  -0.088653  0  3.318434  0
N  N39  1  0.09422169  0.83639061  0.25503890  1  0  -0.10311  -0.088699  0  3.318512  0
N  N40  1  0.75955804  0.11305752  0.72142162  1  0  -0.15818  -0.127356  0  3.394641  0
N  N41  1  0.24044239  0.88694348  0.27857839  1  0  -0.158148  -0.127334  0  3.394759  0
N  N42  1  0.67687785  0.22733193  0.61499132  1  0  -0.237997  -0.33842  0  3.218133  0
N  N43  1  0.32312259  0.77266907  0.38500869  1  0  -0.238046  -0.338494  0  3.218157  0
N  N44  1  0.67382678  0.48837615  0.35593068  1  0  -0.342576  -0.288746  0  3.496575  0
N  N45  1  0.32616106  0.51162369  0.64407047  1  0  -0.342403  -0.288456  0  3.496578  0
N  N46  1  0.97041863  0.33406758  0.31153951  1  0  -0.237599  -0.336252  0  3.255066  0
N  N47  1  0.02957787  0.66593108  0.68845896  1  0  -0.237554  -0.336209  0  3.255023  0
N  N48  1  0.03017759  0.25593660  0.22179569  1  0  -0.148956  -0.110803  0  3.399845  0
N  N49  1  0.96982316  0.74406204  0.77820317  1  0  -0.148961  -0.110787  0  3.399899  0
N  N50  1  0.89111867  0.26230082  0.15440733  1  0  -0.108715  -0.099685  0  3.284627  0
N  N51  1  0.10888209  0.73769782  0.84559153  1  0  -0.10876  -0.099786  0  3.284751  0
N  N52  1  0.73251665  0.34611236  0.19819069  1  0  -0.292943  -0.365966  0  3.280604  0
N  N53  1  0.26748253  0.65388747  0.80180798  1  0  -0.292853  -0.365747  0  3.280504  0
N  N54  1  0.24382178  0.02866064  0.92641741  1  0  -0.582166  -0.466025  0  3.277258  0
N  N55  1  0.75617724  0.97134036  0.07358375  1  0  -0.582142  -0.465937  0  3.277193  0
N  N56  1  0.25769011  0.17986610  0.93513688  1  0  -0.553495  -0.439642  0  3.2142  0
N  N57  1  0.74230891  0.82013491  0.06486332  1  0  -0.553498  -0.439653  0  3.214133  0
N  N58  1  0.28693064  0.02094370  0.59079972  1  0  -0.562641  -0.447747  0  3.256404  0
N  N59  1  0.71306995  0.97905612  0.40920068  1  0  -0.56264  -0.447766  0  3.256458  0
N  N60  1  0.31886090  0.17112866  0.47763067  1  0  -0.579762  -0.462409  0  3.281003  0
N  N61  1  0.68113827  0.82887116  0.52236895  1  0  -0.579751  -0.462349  0  3.281024  0
N  N62  1  0.71421920  0.49221526  0.87273699  1  0  -0.576357  -0.458083  0  3.315193  0
N  N63  1  0.28577981  0.50778575  0.12726321  1  0  -0.576339  -0.458077  0  3.315158  0
N  N64  1  0.58734730  0.37372069  0.90758493  1  0  -0.594586  -0.46309  0  3.333141  0
N  N65  1  0.41265187  0.62627913  0.09241565  1  0  -0.594578  -0.463083  0  3.333144  0
