# generated using pymatgen
data_MnH22C22S2(N4O3)2
_symmetry_space_group_name_H-M   'P 1'
_cell_length_a   8.21249378
_cell_length_b   9.81674575
_cell_length_c   9.81108463
_cell_angle_alpha   60.42892695
_cell_angle_beta   74.38181696
_cell_angle_gamma   86.05685688
_symmetry_Int_Tables_number   1
_chemical_formula_structural   MnH22C22S2(N4O3)2
_chemical_formula_sum   'Mn1 H22 C22 S2 N8 O6'
_cell_volume   660.59759210
_cell_formula_units_Z   1
loop_
 _symmetry_equiv_pos_site_id
 _symmetry_equiv_pos_as_xyz
  1  'x, y, z'
loop_
 _atom_site_type_symbol
 _atom_site_label
 _atom_site_symmetry_multiplicity
 _atom_site_fract_x
 _atom_site_fract_y
 _atom_site_fract_z
 _atom_site_occupancy
 _atom_site_hle17_ddec_charge
 _atom_site_hle17_ddec_spin_density
 _atom_site_hle17_ddec_sum_bond_order
 _atom_site_hle17_magmom
 _atom_site_hse06_10hf_ddec_charge
 _atom_site_hse06_10hf_ddec_spin_density
 _atom_site_hse06_10hf_ddec_sum_bond_order
 _atom_site_hse06_10hf_magmom
 _atom_site_hse06_ddec_charge
 _atom_site_hse06_ddec_spin_density
 _atom_site_hse06_ddec_sum_bond_order
 _atom_site_hse06_magmom
 _atom_site_pbe_cm5_charge
 _atom_site_pbe_ddec_charge
 _atom_site_pbe_ddec_spin_density
 _atom_site_pbe_ddec_sum_bond_order
 _atom_site_pbe_magmom
Mn  Mn0  1  0.49999955  0.50000086  0.49999978  1  1.070482  4.798092  1.899173  4.68  0.886897  4.724373  2.401418  4.537  0.939276  4.7636  2.341862  4.595  0.62649  0.846909  4.685631  2.446065  4.482
H  H1  1  0.29756980  0.06527592  0.21823844  1  0.306991  0.000174  0.931311  0.0  0.289304  0.000308  0.990579  0.0  0.297239  0.000234  0.984421  0.0  0.309091  0.283392  0.000515  0.995207  0.0
H  H2  1  0.70243043  0.93472462  0.78175839  1  0.306979  0.000174  0.931316  0.0  0.28932  0.000308  0.990548  0.0  0.297255  0.000234  0.98439  0.0  0.309103  0.283413  0.000515  0.99517  0.0
H  H3  1  0.18071407  0.41784008  0.13817690  1  0.302105  0.000185  0.938235  0.0  0.283387  0.000322  0.998499  0.0  0.291141  0.000249  0.992693  0.0  0.308654  0.277371  0.000488  1.003348  0.0
H  H4  1  0.81928698  0.58215574  0.86182513  1  0.302112  0.000185  0.938233  0.0  0.283393  0.000322  0.998501  0.0  0.291146  0.00025  0.992694  0.0  0.308652  0.277374  0.000488  1.003355  0.0
H  H5  1  0.09523421  0.66410454  0.94255578  1  0.119749  -4e-06  0.982458  0.0  0.125765  5.2e-05  1.049752  0.0  0.129415  3.4e-05  1.047041  0.0  0.106648  0.122586  9.4e-05  1.052401  0.0
H  H6  1  0.90476478  0.33589600  0.05744541  1  0.11977  -3e-06  0.982437  0.0  0.125785  5.2e-05  1.049727  0.0  0.129434  3.4e-05  1.047017  0.0  0.106656  0.122607  9.4e-05  1.052371  0.0
H  H7  1  0.36140675  0.83034394  0.85389056  1  0.099722  1.7e-05  0.941816  0.0  0.111098  2.3e-05  0.997893  0.0  0.114359  1.4e-05  0.996699  0.0  0.103999  0.10863  5e-05  0.99894  0.0
H  H8  1  0.63859107  0.16965779  0.14610827  1  0.099751  1.7e-05  0.941796  0.0  0.111121  2.3e-05  0.997873  0.0  0.114382  1.4e-05  0.996678  0.0  0.104022  0.108653  5e-05  0.998918  0.0
H  H9  1  0.34963579  0.07270997  0.86978070  1  0.095644  -0.00023  0.994745  0.0  0.101816  -0.000232  1.064481  0.0  0.105153  -0.000246  1.06232  0.0  0.101576  0.099276  -0.000219  1.066349  0.0
H  H10  1  0.65036193  0.92729058  0.13021976  1  0.095601  -0.000236  0.994767  0.0  0.101786  -0.000232  1.064501  0.0  0.105123  -0.000246  1.062341  0.0  0.101561  0.099246  -0.000219  1.066367  0.0
H  H11  1  0.36586245  0.81210632  0.21269075  1  0.09051  -0.000221  0.940883  0.0  0.098508  0.000157  1.007114  0.0  0.100416  6.9e-05  1.005344  0.0  0.134514  0.09671  0.000226  1.009051  0.0
H  H12  1  0.63413652  0.18789423  0.78730840  1  0.090503  -0.000214  0.940892  0.0  0.098506  0.000157  1.007116  0.0  0.100399  6.9e-05  1.005362  0.0  0.134521  0.096716  0.000226  1.009051  0.0
H  H13  1  0.26661203  0.03059267  0.50345424  1  0.106408  0.000204  0.966104  0.0  0.113866  0.000319  1.029793  0.0  0.116082  0.000231  1.030167  0.0  0.117401  0.11257  0.000435  1.029227  0.0
H  H14  1  0.73338601  0.96941141  0.49654135  1  0.106408  0.000202  0.966097  0.0  0.113864  0.000319  1.02979  0.0  0.11608  0.000231  1.030164  0.0  0.117401  0.112579  0.000435  1.029205  0.0
H  H15  1  0.35190083  0.72297556  0.68217949  1  0.100332  -8.4e-05  0.968752  0.0  0.106486  0.000152  1.036023  0.0  0.108714  8.3e-05  1.035078  0.0  0.113953  0.105  0.000254  1.036816  0.0
H  H16  1  0.64809597  0.27702854  0.31782045  1  0.100341  -8.5e-05  0.968732  0.0  0.106504  0.000152  1.035986  0.0  0.108732  8.3e-05  1.035041  0.0  0.113967  0.105024  0.000254  1.036766  0.0
H  H17  1  0.44173873  0.53313649  0.14748534  1  0.083411  -0.000241  0.96703  0.0  0.089527  4e-05  1.037088  0.0  0.092446  -1.4e-05  1.033317  0.0  0.126832  0.087401  7.7e-05  1.039514  0.0
H  H18  1  0.55826449  0.46685577  0.85251589  1  0.083374  -0.000242  0.967037  0.0  0.089493  4e-05  1.037096  0.0  0.092411  -1.4e-05  1.033329  0.0  0.126805  0.087386  7.7e-05  1.039505  0.0
H  H19  1  0.96188968  0.28336724  0.41935485  1  0.103897  3.5e-05  0.995988  0.0  0.11073  0.000112  1.062178  0.0  0.112852  3.7e-05  1.062313  0.0  0.113717  0.10913  0.000198  1.062369  0.0
H  H20  1  0.03811068  0.71663445  0.58064546  1  0.103921  3.1e-05  0.995974  0.0  0.110761  0.000111  1.062154  0.0  0.112881  3.8e-05  1.062292  0.0  0.113722  0.10916  0.000198  1.062345  0.0
H  H21  1  0.11453770  0.31959440  0.62330206  1  0.104722  -0.000261  0.96931  0.0  0.110881  -0.000132  1.033155  0.0  0.113006  -0.000184  1.033142  0.0  0.113368  0.109534  -6.5e-05  1.033048  0.0
H  H22  1  0.88546277  0.68040848  0.37669662  1  0.104724  -0.00027  0.969325  0.0  0.110891  -0.000132  1.033161  0.0  0.113015  -0.000183  1.033149  0.0  0.113363  0.109541  -6.5e-05  1.033052  0.0
C  C23  1  0.92313502  0.95194818  0.02709452  1  0.056276  4.7e-05  3.754417  0.0  0.066277  0.000284  3.979174  0.0  0.066574  0.000148  4.003582  0.0  -0.001767  0.065904  0.00036  3.962723  0.0
C  C24  1  0.07686501  0.04804999  0.97290963  1  0.056333  1.8e-05  3.754339  0.0  0.066305  0.000281  3.979122  0.0  0.066601  0.000146  4.00353  0.0  -0.001767  0.065937  0.00036  3.962667  0.0
C  C25  1  0.93621934  0.81240092  0.01425097  1  -0.172337  0.001498  3.724698  0.002  -0.149931  0.00189  3.973112  0.002  -0.157607  0.001352  3.994248  0.001  -0.021699  -0.144974  0.002617  3.958544  0.002
C  C26  1  0.06377942  0.18759727  0.98575245  1  -0.172304  0.001557  3.724655  0.002  -0.149892  0.001888  3.973075  0.002  -0.157567  0.001361  3.99421  0.001  -0.021683  -0.14494  0.002617  3.958508  0.002
C  C27  1  0.09006965  0.77060973  0.95137626  1  -0.066425  0.000715  3.757735  0.001  -0.098207  0.001255  4.012528  0.001  -0.095769  0.000927  4.030977  0.001  -0.087854  -0.099249  0.001913  4.000226  0.001
C  C28  1  0.90993037  0.22938845  0.04862586  1  -0.066464  0.000665  3.757761  0.001  -0.098243  0.001257  4.012548  0.001  -0.095805  0.000919  4.030999  0.001  -0.087862  -0.099289  0.001913  4.000245  0.001
C  C29  1  0.23954215  0.86534492  0.90027132  1  -0.051746  -0.000216  3.746771  0.0  -0.062656  -1.3e-05  4.000216  0.0  -0.065454  -0.000137  4.019515  0.0  -0.087096  -0.060863  0.000113  3.98712  0.0
C  C30  1  0.76045682  0.13465562  0.09972885  1  -0.051745  -0.000181  3.746711  0.0  -0.06265  -1.3e-05  4.000153  0.0  -0.065447  -0.000133  4.019452  0.0  -0.087108  -0.060852  0.000113  3.987053  0.0
C  C31  1  0.23332086  0.00069919  0.91041708  1  -0.096187  0.000411  3.718282  0.0  -0.121774  0.000822  3.971851  0.001  -0.121393  0.00054  3.989393  0.001  -0.086644  -0.121731  0.001431  3.95991  0.001
C  C32  1  0.76667802  0.99930018  0.08958573  1  -0.096143  0.000395  3.718268  0.0  -0.121751  0.000822  3.97183  0.001  -0.12137  0.000538  3.989371  0.001  -0.086645  -0.121711  0.001431  3.959892  0.001
C  C33  1  0.35006278  0.82659560  0.31818237  1  0.210042  0.004141  3.673239  0.004  0.155004  0.0064  3.941575  0.006  0.167912  0.005425  3.954753  0.005  0.143489  0.146748  0.007746  3.932151  0.007
C  C34  1  0.64993609  0.17340377  0.68181840  1  0.210034  0.004105  3.673223  0.004  0.155003  0.006401  3.941562  0.006  0.167925  0.005422  3.954745  0.005  0.143487  0.146733  0.007746  3.932152  0.007
C  C35  1  0.29960976  0.93896683  0.47174870  1  -0.030359  -0.000372  3.715495  0.0  -0.065312  0.000425  3.974245  0.0  -0.063892  -0.000101  3.99349  0.0  -0.003936  -0.066367  0.000926  3.961562  0.001
C  C36  1  0.70038943  0.06103606  0.52824924  1  -0.030357  -0.000344  3.71531  0.0  -0.065293  0.000426  3.974063  0.0  -0.063873  -0.000103  3.993309  0.0  -0.003917  -0.066352  0.000925  3.961364  0.001
C  C37  1  0.34283794  0.78758370  0.55793231  1  -0.013141  0.001665  3.756757  0.002  -0.045105  0.00312  4.025721  0.003  -0.044199  0.002526  4.046418  0.003  -0.004788  -0.04603  0.003654  4.012099  0.004
C  C38  1  0.65716115  0.21241801  0.44206726  1  -0.013177  0.001653  3.756726  0.002  -0.045152  0.003119  4.025703  0.003  -0.044246  0.002529  4.0464  0.003  -0.00482  -0.046084  0.003654  4.012077  0.004
C  C39  1  0.33475073  0.46823649  0.25194917  1  0.198661  0.003756  3.689355  0.004  0.144792  0.005969  3.956087  0.006  0.156868  0.005072  3.970331  0.005  0.134206  0.136562  0.006652  3.945801  0.006
C  C40  1  0.66525296  0.53176047  0.74805067  1  0.198675  0.003773  3.689453  0.004  0.144809  0.005968  3.956212  0.006  0.156883  0.00507  3.970458  0.005  0.13421  0.13656  0.006652  3.945925  0.006
C  C41  1  0.08419657  0.33738178  0.39630260  1  -0.020151  -0.000126  3.701684  0.0  -0.052764  0.000452  3.954691  0.0  -0.050771  -2.7e-05  3.973102  0.0  -0.005151  -0.054562  0.000888  3.942846  0.001
C  C42  1  0.91580493  0.66261873  0.60369701  1  -0.020205  -0.000158  3.701685  0.0  -0.052825  0.000453  3.954697  0.0  -0.050832  -2.9e-05  3.973111  0.0  -0.005156  -0.054627  0.000889  3.94285  0.001
C  C43  1  0.16088099  0.35663350  0.49492227  1  -0.010562  0.000936  3.746411  0.002  -0.039391  0.002354  4.007825  0.003  -0.038458  0.001821  4.028369  0.002  -0.006792  -0.040177  0.003021  3.99403  0.003
C  C44  1  0.83912052  0.64336701  0.50507734  1  -0.010546  0.000991  3.746348  0.002  -0.039367  0.002352  4.007754  0.003  -0.038435  0.00183  4.028302  0.002  -0.006791  -0.040146  0.00302  3.993949  0.003
S  S45  1  0.75272560  0.68461036  0.08179364  1  1.30162  0.004517  5.641413  0.005  1.198148  0.007919  6.166259  0.007  1.246484  0.006051  6.142191  0.006  0.52119  1.164712  0.010229  6.181221  0.009
S  S46  1  0.24727337  0.31539018  0.91820551  1  1.3014  0.004513  5.641735  0.005  1.197939  0.007921  6.166588  0.007  1.246278  0.006045  6.142519  0.006  0.521102  1.164505  0.010228  6.181553  0.009
N  N47  1  0.37434355  0.71879831  0.46069516  1  -0.388425  0.027357  3.234485  0.014  -0.321984  0.031751  3.525186  0.014  -0.34164  0.028361  3.540128  0.012  -0.346922  -0.307405  0.034643  3.514219  0.016
N  N48  1  0.62565543  0.28120223  0.53930501  1  -0.388384  0.027372  3.234514  0.014  -0.321939  0.031749  3.525205  0.014  -0.341594  0.028362  3.540145  0.012  -0.346907  -0.30735  0.034643  3.514235  0.016
N  N49  1  0.30450012  0.96088266  0.32057729  1  -0.286667  0.001191  3.462186  0.001  -0.218305  0.002472  3.693002  0.002  -0.23414  0.001905  3.70808  0.002  -0.384227  -0.207271  0.002906  3.682339  0.003
N  N50  1  0.69549896  0.03911906  0.67942024  1  -0.286653  0.001199  3.462136  0.001  -0.218335  0.002471  3.692978  0.002  -0.23417  0.001906  3.70805  0.002  -0.384244  -0.207302  0.002906  3.682319  0.003
N  N51  1  0.31763820  0.43862507  0.40352119  1  -0.394135  0.027608  3.233405  0.015  -0.324688  0.031653  3.519969  0.014  -0.344725  0.028411  3.536396  0.012  -0.346858  -0.30994  0.034527  3.508543  0.017
N  N52  1  0.68236423  0.56137190  0.59647994  1  -0.394078  0.027583  3.233367  0.015  -0.324656  0.031652  3.519958  0.014  -0.344693  0.0284  3.53639  0.012  -0.346827  -0.309914  0.034526  3.508543  0.017
N  N53  1  0.19637571  0.40872096  0.24341998  1  -0.283888  0.001368  3.480398  0.001  -0.216638  0.002633  3.711858  0.002  -0.232491  0.002078  3.727867  0.002  -0.385888  -0.205956  0.003168  3.70129  0.003
N  N54  1  0.80362659  0.59127484  0.75657972  1  -0.283901  0.001364  3.480466  0.001  -0.21665  0.002633  3.711921  0.002  -0.232502  0.002077  3.727932  0.002  -0.385895  -0.205968  0.003168  3.70136  0.003
O  O55  1  0.68022091  0.63692022  0.25478691  1  -0.667231  0.025445  2.090623  0.011  -0.596826  0.034611  2.379082  0.017  -0.62155  0.031504  2.362083  0.015  -0.317211  -0.57892  0.037231  2.390724  0.019
O  O56  1  0.31977543  0.36307917  0.74521544  1  -0.667129  0.025443  2.090709  0.011  -0.596778  0.034609  2.379204  0.017  -0.621507  0.031506  2.362209  0.015  -0.31718  -0.578856  0.037231  2.390814  0.019
O  O57  1  0.63708069  0.77677321  0.98254997  1  -0.679118  0.000909  1.960466  0.001  -0.633992  0.001646  2.21343  0.002  -0.654747  0.001154  2.200083  0.002  -0.34409  -0.618491  0.001865  2.221773  0.002
O  O58  1  0.36292082  0.22322730  0.01744963  1  -0.679079  0.000909  1.960491  0.001  -0.633937  0.001644  2.213447  0.002  -0.654689  0.001156  2.200092  0.002  -0.344087  -0.618439  0.001864  2.221795  0.002
O  O59  1  0.81052068  0.55148556  0.05696054  1  -0.655011  0.000532  1.992633  0.001  -0.6015  0.001053  2.239252  0.002  -0.621492  0.000684  2.2251  0.001  -0.330963  -0.587087  0.00124  2.248721  0.002
O  O60  1  0.18947946  0.44851379  0.94304199  1  -0.654949  0.00053  1.992767  0.001  -0.601424  0.001054  2.239367  0.002  -0.621419  0.000682  2.225218  0.001  -0.330924  -0.587017  0.00124  2.248839  0.002
